(PID.TID 0000.0001) 
(PID.TID 0000.0001) // ======================================================
(PID.TID 0000.0001) //                      MITgcm UV
(PID.TID 0000.0001) //                      =========
(PID.TID 0000.0001) // ======================================================
(PID.TID 0000.0001) // execution environment starting up...
(PID.TID 0000.0001) 
(PID.TID 0000.0001) // MITgcmUV version:  checkpoint68a
(PID.TID 0000.0001) // Build user:        hajsong
(PID.TID 0000.0001) // Build host:        acc00
(PID.TID 0000.0001) // Build date:        Wed Dec  8 23:41:35 KST 2021
(PID.TID 0000.0001) 
(PID.TID 0000.0001) // =======================================================
(PID.TID 0000.0001) // Execution Environment parameter file "eedata"
(PID.TID 0000.0001) // =======================================================
(PID.TID 0000.0001) ># Example "eedata" file
(PID.TID 0000.0001) ># Lines beginning "#" are comments
(PID.TID 0000.0001) ># nTx - No. threads per process in X
(PID.TID 0000.0001) ># nTy - No. threads per process in Y
(PID.TID 0000.0001) > &EEPARMS
(PID.TID 0000.0001) > nTx=1,
(PID.TID 0000.0001) > nTy=1,
(PID.TID 0000.0001) > &
(PID.TID 0000.0001) ># Note: Some systems use & as the
(PID.TID 0000.0001) ># namelist terminator. Other systems
(PID.TID 0000.0001) ># use a / character (as shown here).
(PID.TID 0000.0001) 
(PID.TID 0000.0001) // =======================================================
(PID.TID 0000.0001) // Computational Grid Specification ( see files "SIZE.h" )
(PID.TID 0000.0001) //                                  ( and "eedata"       )
(PID.TID 0000.0001) // =======================================================
(PID.TID 0000.0001)      nPx =    1 ; /* No. processes in X */
(PID.TID 0000.0001)      nPy =    1 ; /* No. processes in Y */
(PID.TID 0000.0001)      nSx =    1 ; /* No. tiles in X per process */
(PID.TID 0000.0001)      nSy =    1 ; /* No. tiles in Y per process */
(PID.TID 0000.0001)      sNx =   90 ; /* Tile size in X */
(PID.TID 0000.0001)      sNy =   40 ; /* Tile size in Y */
(PID.TID 0000.0001)      OLx =    2 ; /* Tile overlap distance in X */
(PID.TID 0000.0001)      OLy =    2 ; /* Tile overlap distance in Y */
(PID.TID 0000.0001)      nTx =    1 ; /* No. threads in X per process */
(PID.TID 0000.0001)      nTy =    1 ; /* No. threads in Y per process */
(PID.TID 0000.0001)       Nr =   15 ; /* No. levels in the vertical   */
(PID.TID 0000.0001)       Nx =   90 ; /* Total domain size in X ( = nPx*nSx*sNx ) */
(PID.TID 0000.0001)       Ny =   40 ; /* Total domain size in Y ( = nPy*nSy*sNy ) */
(PID.TID 0000.0001)   nTiles =    1 ; /* Total no. tiles per process ( = nSx*nSy ) */
(PID.TID 0000.0001)   nProcs =    1 ; /* Total no. processes ( = nPx*nPy ) */
(PID.TID 0000.0001) nThreads =    1 ; /* Total no. threads per process ( = nTx*nTy ) */
(PID.TID 0000.0001) usingMPI =    T ; /* Flag used to control whether MPI is in use */
(PID.TID 0000.0001)                   /*  note: To execute a program with MPI calls */
(PID.TID 0000.0001)                   /*  it must be launched appropriately e.g     */
(PID.TID 0000.0001)                   /*  "mpirun -np 64 ......"                    */
(PID.TID 0000.0001) useCoupler=   F ; /* Flag used to control communications with   */
(PID.TID 0000.0001)                   /*  other model components, through a coupler */
(PID.TID 0000.0001) useNest2W_parent =    F ;/* Control 2-W Nesting comm */
(PID.TID 0000.0001) useNest2W_child  =    F ;/* Control 2-W Nesting comm */
(PID.TID 0000.0001) debugMode =    F ; /* print debug msg. (sequence of S/R calls)  */
(PID.TID 0000.0001) printMapIncludesZeros=    F ; /* print zeros in Std.Output maps */
(PID.TID 0000.0001) maxLengthPrt1D=   65 /* maxLength of 1D array printed to StdOut */
(PID.TID 0000.0001) 
(PID.TID 0000.0001) ======= Starting MPI parallel Run =========
(PID.TID 0000.0001)  My Processor Name (len:  5 ) = acc00
(PID.TID 0000.0001)  Located at (  0,  0) on processor grid (0:  0,0:  0)
(PID.TID 0000.0001)  Origin at  (     1,     1) on global grid (1:    90,1:    40)
(PID.TID 0000.0001)  North neighbor = processor 0000
(PID.TID 0000.0001)  South neighbor = processor 0000
(PID.TID 0000.0001)   East neighbor = processor 0000
(PID.TID 0000.0001)   West neighbor = processor 0000
(PID.TID 0000.0001) // ======================================================
(PID.TID 0000.0001) // Mapping of tiles to threads
(PID.TID 0000.0001) // ======================================================
(PID.TID 0000.0001) // -o- Thread   1, tiles (   1:   1,   1:   1)
(PID.TID 0000.0001) 
(PID.TID 0000.0001) // ======================================================
(PID.TID 0000.0001) // Tile <-> Tile connectvity table
(PID.TID 0000.0001) // ======================================================
(PID.TID 0000.0001) // Tile number: 000001 (process no. = 000000)
(PID.TID 0000.0001) //        WEST: Tile = 000001, Process = 000000, Comm = put
(PID.TID 0000.0001) //                bi = 000001, bj = 000001
(PID.TID 0000.0001) //        EAST: Tile = 000001, Process = 000000, Comm = put
(PID.TID 0000.0001) //                bi = 000001, bj = 000001
(PID.TID 0000.0001) //       SOUTH: Tile = 000001, Process = 000000, Comm = put
(PID.TID 0000.0001) //                bi = 000001, bj = 000001
(PID.TID 0000.0001) //       NORTH: Tile = 000001, Process = 000000, Comm = put
(PID.TID 0000.0001) //                bi = 000001, bj = 000001
(PID.TID 0000.0001) 
(PID.TID 0000.0001)  INI_PARMS: opening model parameter file "data"
(PID.TID 0000.0001)  OPEN_COPY_DATA_FILE: opening file data
(PID.TID 0000.0001) // =======================================================
(PID.TID 0000.0001) // Parameter file "data"
(PID.TID 0000.0001) // =======================================================
(PID.TID 0000.0001) ># ====================
(PID.TID 0000.0001) ># | Model parameters |
(PID.TID 0000.0001) ># ====================
(PID.TID 0000.0001) >#
(PID.TID 0000.0001) ># Continuous equation parameters
(PID.TID 0000.0001) > &PARM01
(PID.TID 0000.0001) > tRef = 15*20.,
(PID.TID 0000.0001) > sRef = 15*35.,
(PID.TID 0000.0001) > viscAr=1.E-3,
(PID.TID 0000.0001) > viscAh=5.E5,
(PID.TID 0000.0001) > diffKhT=0.,
(PID.TID 0000.0001) > diffKrT=3.E-5,
(PID.TID 0000.0001) > diffKhS=0.,
(PID.TID 0000.0001) > diffKrS=3.E-5,
(PID.TID 0000.0001) > rhoConst=1035.,
(PID.TID 0000.0001) > rhoConstFresh=1000.,
(PID.TID 0000.0001) > eosType = 'JMD95Z',
(PID.TID 0000.0001) > ivdc_kappa=100.,
(PID.TID 0000.0001) > implicitDiffusion=.TRUE.,
(PID.TID 0000.0001) > allowFreezing=.TRUE.,
(PID.TID 0000.0001) > exactConserv=.TRUE.,
(PID.TID 0000.0001) > useRealFreshWaterFlux=.TRUE.,
(PID.TID 0000.0001) > useCDscheme=.TRUE.,
(PID.TID 0000.0001) ># turn on looped cells
(PID.TID 0000.0001) > hFacMin=.05,
(PID.TID 0000.0001) > hFacMindr=50.,
(PID.TID 0000.0001) ># set precision of data files
(PID.TID 0000.0001) > readBinaryPrec=32,
(PID.TID 0000.0001) > useSingleCpuIO=.TRUE.,
(PID.TID 0000.0001) > debugLevel=5,
(PID.TID 0000.0001) > &
(PID.TID 0000.0001) >
(PID.TID 0000.0001) ># Elliptic solver parameters
(PID.TID 0000.0001) > &PARM02
(PID.TID 0000.0001) > cg2dMaxIters=500,
(PID.TID 0000.0001) > cg2dTargetResidual=1.E-13,
(PID.TID 0000.0001) > &
(PID.TID 0000.0001) >
(PID.TID 0000.0001) ># Time stepping parameters
(PID.TID 0000.0001) > &PARM03
(PID.TID 0000.0001) > nIter0=        0,
(PID.TID 0000.0001) > nTimeSteps = 100,
(PID.TID 0000.0001) ># 100 years of integration will yield a reasonable flow field
(PID.TID 0000.0001) ># startTime =          0.,
(PID.TID 0000.0001) ># endTime   = 3110400000.,
(PID.TID 0000.0001) ># endTime   = 31104000.,
(PID.TID 0000.0001) > deltaTmom = 1800.,
(PID.TID 0000.0001) > tauCD =     321428.,
(PID.TID 0000.0001) > deltaTtracer= 86400.,
(PID.TID 0000.0001) > deltaTClock = 86400.,
(PID.TID 0000.0001) > deltaTfreesurf= 86400.,
(PID.TID 0000.0001) > abEps = 0.1,
(PID.TID 0000.0001) > pChkptFreq= 31104000.,
(PID.TID 0000.0001) > dumpFreq=   864000.,
(PID.TID 0000.0001) > taveFreq=   864000.,
(PID.TID 0000.0001) > monitorFreq=1.,
(PID.TID 0000.0001) ># 2 months restoring timescale for temperature
(PID.TID 0000.0001) > tauThetaClimRelax=  5184000.,
(PID.TID 0000.0001) ># 6 months restoring timescale for salinity
(PID.TID 0000.0001) > tauSaltClimRelax = 15552000.,
(PID.TID 0000.0001) > periodicExternalForcing=.TRUE.,
(PID.TID 0000.0001) > externForcingPeriod=2592000.,
(PID.TID 0000.0001) > externForcingCycle=31104000.,
(PID.TID 0000.0001) > &
(PID.TID 0000.0001) >
(PID.TID 0000.0001) ># Gridding parameters
(PID.TID 0000.0001) > &PARM04
(PID.TID 0000.0001) > usingSphericalPolarGrid=.TRUE.,
(PID.TID 0000.0001) > delR= 50.,  70., 100., 140., 190.,
(PID.TID 0000.0001) >      240., 290., 340., 390., 440.,
(PID.TID 0000.0001) >      490., 540., 590., 640., 690.,
(PID.TID 0000.0001) > ygOrigin=-80.,
(PID.TID 0000.0001) > dySpacing=4.,
(PID.TID 0000.0001) > dxSpacing=4.,
(PID.TID 0000.0001) > &
(PID.TID 0000.0001) >
(PID.TID 0000.0001) ># Input datasets
(PID.TID 0000.0001) > &PARM05
(PID.TID 0000.0001) > bathyFile=      'bathymetry.bin',
(PID.TID 0000.0001) > hydrogThetaFile='lev_t.bin',
(PID.TID 0000.0001) > hydrogSaltFile= 'lev_s.bin',
(PID.TID 0000.0001) > zonalWindFile=  'trenberth_taux.bin',
(PID.TID 0000.0001) > meridWindFile=  'trenberth_tauy.bin',
(PID.TID 0000.0001) > thetaClimFile=  'lev_sst.bin',
(PID.TID 0000.0001) > saltClimFile=   'lev_sss.bin',
(PID.TID 0000.0001) > surfQnetFile=   'ncep_qnet.bin',
(PID.TID 0000.0001) > the_run_name=   'global_oce_latlon',
(PID.TID 0000.0001) ># fresh water flux is turned on, comment next line to it turn off
(PID.TID 0000.0001) ># (maybe better with surface salinity restoring)
(PID.TID 0000.0001) > EmPmRFile=      'ncep_emp.bin',
(PID.TID 0000.0001) ># checkIniTemp=.FALSE.,
(PID.TID 0000.0001) ># checkIniSalt=.FALSE.
(PID.TID 0000.0001) > &
(PID.TID 0000.0001) 
(PID.TID 0000.0001)  INI_PARMS ; starts to read PARM01
(PID.TID 0000.0001)  INI_PARMS ; read PARM01 : OK
(PID.TID 0000.0001) S/R INI_PARMS: No request for barotropic solver
(PID.TID 0000.0001) S/R INI_PARMS: => Use implicitFreeSurface as default
(PID.TID 0000.0001)  INI_PARMS ; starts to read PARM02
(PID.TID 0000.0001)  INI_PARMS ; read PARM02 : OK
(PID.TID 0000.0001)  INI_PARMS ; starts to read PARM03
(PID.TID 0000.0001)  INI_PARMS ; read PARM03 : OK
(PID.TID 0000.0001)  INI_PARMS ; starts to read PARM04
(PID.TID 0000.0001)  INI_PARMS ; read PARM04 : OK
(PID.TID 0000.0001)  INI_PARMS ; starts to read PARM05
(PID.TID 0000.0001)  INI_PARMS ; read PARM05 : OK
(PID.TID 0000.0001)  INI_PARMS: finished reading file "data"
(PID.TID 0000.0001)  PACKAGES_BOOT: opening data.pkg
(PID.TID 0000.0001)  OPEN_COPY_DATA_FILE: opening file data.pkg
(PID.TID 0000.0001) // =======================================================
(PID.TID 0000.0001) // Parameter file "data.pkg"
(PID.TID 0000.0001) // =======================================================
(PID.TID 0000.0001) ># Packages (lines beginning "#" are comments)
(PID.TID 0000.0001) > &PACKAGES
(PID.TID 0000.0001) > useGMRedi=.TRUE.,
(PID.TID 0000.0001) >#usePTRACERS=.TRUE.,
(PID.TID 0000.0001) >#useMNC=.TRUE.,
(PID.TID 0000.0001) > &
(PID.TID 0000.0001) 
(PID.TID 0000.0001)  PACKAGES_BOOT: finished reading data.pkg
(PID.TID 0000.0001)  PACKAGES_BOOT: On/Off package Summary
 --------  pkgs with a standard "usePKG" On/Off switch in "data.pkg":  --------
 pkg/gmredi               compiled   and   used ( useGMRedi                = T )
 pkg/ptracers             compiled but not used ( usePTRACERS              = F )
 pkg/mnc                  compiled but not used ( useMNC                   = F )
 -------- pkgs without standard "usePKG" On/Off switch in "data.pkg":  --------
 pkg/generic_advdiff      compiled   and   used ( useGAD                   = T )
 pkg/mom_common           compiled   and   used ( momStepping              = T )
 pkg/mom_vecinv           compiled but not used ( +vectorInvariantMomentum = F )
 pkg/mom_fluxform         compiled   and   used ( & not vectorInvariantMom = T )
 pkg/cd_code              compiled   and   used ( useCDscheme              = T )
 pkg/monitor              compiled   and   used ( monitorFreq > 0.         = T )
 pkg/timeave              compiled   and   used ( taveFreq > 0.            = T )
 pkg/debug                compiled but not used ( debugMode                = F )
 pkg/rw                   compiled   and   used
 pkg/mdsio                compiled   and   used
(PID.TID 0000.0001)  PACKAGES_BOOT: End of package Summary
(PID.TID 0000.0001) 
(PID.TID 0000.0001)  GM_READPARMS: opening data.gmredi
(PID.TID 0000.0001)  OPEN_COPY_DATA_FILE: opening file data.gmredi
(PID.TID 0000.0001) // =======================================================
(PID.TID 0000.0001) // Parameter file "data.gmredi"
(PID.TID 0000.0001) // =======================================================
(PID.TID 0000.0001) ># GM+Redi package parameters:
(PID.TID 0000.0001) >
(PID.TID 0000.0001) >#-from MOM :
(PID.TID 0000.0001) ># GM_background_K: 	G & Mc.W  diffusion coefficient
(PID.TID 0000.0001) ># GM_maxSlope    :	max slope of isopycnals
(PID.TID 0000.0001) ># GM_Scrit       :	transition for scaling diffusion coefficient
(PID.TID 0000.0001) ># GM_Sd          :	half width scaling for diffusion coefficient
(PID.TID 0000.0001) ># GM_taper_scheme:	slope clipping or one of the tapering schemes
(PID.TID 0000.0001) ># GM_Kmin_horiz  :	horizontal diffusion minimum value
(PID.TID 0000.0001) >
(PID.TID 0000.0001) >#-Option parameters (needs to "define" options in GMREDI_OPTIONS.h")
(PID.TID 0000.0001) ># GM_isopycK     :	isopycnal diffusion coefficient (default=GM_background_K)
(PID.TID 0000.0001) ># GM_AdvForm     :	turn on GM Advective form       (default=Skew flux form)
(PID.TID 0000.0001) >
(PID.TID 0000.0001) > &GM_PARM01
(PID.TID 0000.0001) >  GM_background_K    = 1.e+3,
(PID.TID 0000.0001) >  GM_taper_scheme    = 'gkw91',
(PID.TID 0000.0001) >  GM_maxSlope        = 1.e-2,
(PID.TID 0000.0001) >  GM_Kmin_horiz      = 50.,
(PID.TID 0000.0001) >  GM_Scrit           = 4.e-3,
(PID.TID 0000.0001) >  GM_Sd              = 1.e-3,
(PID.TID 0000.0001) ># GM_Visbeck_alpha   = 0.,
(PID.TID 0000.0001) ># GM_Visbeck_length  = 2.e+5,
(PID.TID 0000.0001) ># GM_Visbeck_depth   = 1.e+3,
(PID.TID 0000.0001) ># GM_Visbeck_maxval_K= 2.5e+3,
(PID.TID 0000.0001) > &
(PID.TID 0000.0001) >
(PID.TID 0000.0001) >
(PID.TID 0000.0001) 
(PID.TID 0000.0001)  GM_READPARMS: finished reading data.gmredi
(PID.TID 0000.0001) SET_PARMS: done
(PID.TID 0000.0001) Enter INI_VERTICAL_GRID: setInterFDr=    T ; setCenterDr=    F
(PID.TID 0000.0001) %MON XC_max                       =   3.5800000000000E+02
(PID.TID 0000.0001) %MON XC_min                       =   2.0000000000000E+00
(PID.TID 0000.0001) %MON XC_mean                      =   1.8000000000000E+02
(PID.TID 0000.0001) %MON XC_sd                        =   1.0391663325314E+02
(PID.TID 0000.0001) %MON XG_max                       =   3.5600000000000E+02
(PID.TID 0000.0001) %MON XG_min                       =   0.0000000000000E+00
(PID.TID 0000.0001) %MON XG_mean                      =   1.7800000000000E+02
(PID.TID 0000.0001) %MON XG_sd                        =   1.0391663325314E+02
(PID.TID 0000.0001) %MON DXC_max                      =   4.4443898815675E+05
(PID.TID 0000.0001) %MON DXC_min                      =   9.2460385861875E+04
(PID.TID 0000.0001) %MON DXC_mean                     =   3.1372497618153E+05
(PID.TID 0000.0001) %MON DXC_sd                       =   1.1216447457560E+05
(PID.TID 0000.0001) %MON DXF_max                      =   4.4443898815675E+05
(PID.TID 0000.0001) %MON DXF_min                      =   9.2460385861875E+04
(PID.TID 0000.0001) %MON DXF_mean                     =   3.1372497618153E+05
(PID.TID 0000.0001) %MON DXF_sd                       =   1.1216447457560E+05
(PID.TID 0000.0001) %MON DXG_max                      =   4.4470989340816E+05
(PID.TID 0000.0001) %MON DXG_min                      =   7.7223062580781E+04
(PID.TID 0000.0001) %MON DXG_mean                     =   3.1353386340260E+05
(PID.TID 0000.0001) %MON DXG_sd                       =   1.1256651772502E+05
(PID.TID 0000.0001) %MON DXV_max                      =   4.4470989340816E+05
(PID.TID 0000.0001) %MON DXV_min                      =   7.7223062580781E+04
(PID.TID 0000.0001) %MON DXV_mean                     =   3.1353386340260E+05
(PID.TID 0000.0001) %MON DXV_sd                       =   1.1256651772502E+05
(PID.TID 0000.0001) %MON YC_max                       =   7.8000000000000E+01
(PID.TID 0000.0001) %MON YC_min                       =  -7.8000000000000E+01
(PID.TID 0000.0001) %MON YC_mean                      =   0.0000000000000E+00
(PID.TID 0000.0001) %MON YC_sd                        =   4.6173585522461E+01
(PID.TID 0000.0001) %MON YG_max                       =   7.6000000000000E+01
(PID.TID 0000.0001) %MON YG_min                       =  -8.0000000000000E+01
(PID.TID 0000.0001) %MON YG_mean                      =  -2.0000000000000E+00
(PID.TID 0000.0001) %MON YG_sd                        =   4.6173585522461E+01
(PID.TID 0000.0001) %MON DYC_max                      =   4.4470989340816E+05
(PID.TID 0000.0001) %MON DYC_min                      =   4.4470989340816E+05
(PID.TID 0000.0001) %MON DYC_mean                     =   4.4470989340814E+05
(PID.TID 0000.0001) %MON DYC_sd                       =   1.9848812371492E-08
(PID.TID 0000.0001) %MON DYF_max                      =   4.4470989340816E+05
(PID.TID 0000.0001) %MON DYF_min                      =   4.4470989340816E+05
(PID.TID 0000.0001) %MON DYF_mean                     =   4.4470989340814E+05
(PID.TID 0000.0001) %MON DYF_sd                       =   1.9848812371492E-08
(PID.TID 0000.0001) %MON DYG_max                      =   4.4470989340816E+05
(PID.TID 0000.0001) %MON DYG_min                      =   4.4470989340816E+05
(PID.TID 0000.0001) %MON DYG_mean                     =   4.4470989340814E+05
(PID.TID 0000.0001) %MON DYG_sd                       =   1.9848812371492E-08
(PID.TID 0000.0001) %MON DYU_max                      =   4.4470989340816E+05
(PID.TID 0000.0001) %MON DYU_min                      =   4.4470989340816E+05
(PID.TID 0000.0001) %MON DYU_mean                     =   4.4470989340814E+05
(PID.TID 0000.0001) %MON DYU_sd                       =   1.9848812371492E-08
(PID.TID 0000.0001) %MON RA_max                       =   1.9760627980089E+11
(PID.TID 0000.0001) %MON RA_min                       =   4.1109698667290E+10
(PID.TID 0000.0001) %MON RA_mean                      =   1.3948826965197E+11
(PID.TID 0000.0001) %MON RA_sd                        =   4.9870522472902E+10
(PID.TID 0000.0001) %MON RAW_max                      =   1.9760627980089E+11
(PID.TID 0000.0001) %MON RAW_min                      =   4.1109698667290E+10
(PID.TID 0000.0001) %MON RAW_mean                     =   1.3948826965197E+11
(PID.TID 0000.0001) %MON RAW_sd                       =   4.9870522472902E+10
(PID.TID 0000.0001) %MON RAS_max                      =   1.9772672958215E+11
(PID.TID 0000.0001) %MON RAS_min                      =   3.4334886267983E+10
(PID.TID 0000.0001) %MON RAS_mean                     =   1.3940329716694E+11
(PID.TID 0000.0001) %MON RAS_sd                       =   5.0049278732354E+10
(PID.TID 0000.0001) %MON RAZ_max                      =   1.9772672958215E+11
(PID.TID 0000.0001) %MON RAZ_min                      =   3.4334886267983E+10
(PID.TID 0000.0001) %MON RAZ_mean                     =   1.3940329716694E+11
(PID.TID 0000.0001) %MON RAZ_sd                       =   5.0049278732354E+10
(PID.TID 0000.0001) %MON AngleCS_max                  =   1.0000000000000E+00
(PID.TID 0000.0001) %MON AngleCS_min                  =   1.0000000000000E+00
(PID.TID 0000.0001) %MON AngleCS_mean                 =   1.0000000000000E+00
(PID.TID 0000.0001) %MON AngleCS_sd                   =   0.0000000000000E+00
(PID.TID 0000.0001) %MON AngleSN_max                  =   0.0000000000000E+00
(PID.TID 0000.0001) %MON AngleSN_min                  =   0.0000000000000E+00
(PID.TID 0000.0001) %MON AngleSN_mean                 =   0.0000000000000E+00
(PID.TID 0000.0001) %MON AngleSN_sd                   =   0.0000000000000E+00
(PID.TID 0000.0001)  MDS_WRITEVEC_LOC: open file: RhoRef.data
(PID.TID 0000.0001)  MDS_WR_REC_RL: iRec,Dim =         1         15
(PID.TID 0000.0001)  MDS_READ_FIELD: opening global file: bathymetry.bin
(PID.TID 0000.0001) // =======================================================
(PID.TID 0000.0001) // Field Bottom depths (ini_depths)
(PID.TID 0000.0001) // CMIN =         -5.200000000000000E+03
(PID.TID 0000.0001) // CMAX =         -1.200000000000000E+02
(PID.TID 0000.0001) // CINT =          1.881481481481482E+02
(PID.TID 0000.0001) // SYMBOLS (CMIN->CMAX): -abcdefghijklmnopqrstuvwxyz+
(PID.TID 0000.0001) //                  0.0: .
(PID.TID 0000.0001) // RANGE I (Lo:Hi:Step):(    -1:    92:     1)
(PID.TID 0000.0001) // RANGE J (Lo:Hi:Step):(    42:    -1:    -1)
(PID.TID 0000.0001) // RANGE K (Lo:Hi:Step):(   1:   1:   1)
(PID.TID 0000.0001) // =======================================================
(PID.TID 0000.0001) K =   1
(PID.TID 0000.0001) //                I=8       I=18      I=28      I=38      I=48      I=58      I=68      I=78      I=88
(PID.TID 0000.0001) // |--J--|101234567|901234567|901234567|901234567|901234567|901234567|901234567|901234567|901234567|9012
(PID.TID 0000.0001) //     42 ............................................zyxxmgfeeefefgimnpwwwy..+zyy.....yyyyoiiihhz+.....
(PID.TID 0000.0001) //     41 ..............................................................................................
(PID.TID 0000.0001) //     40 qlloqz+.++++zzz++++++..................................................................+++qllo
(PID.TID 0000.0001) //     39 slloorzzzzzzzzz+...++.....................................................yxxz........+zvusllo
(PID.TID 0000.0001) //     38 mqpporzzzzzz+++...........................................................zxxy+......zyyvsmqpp
(PID.TID 0000.0001) //     37 mmmuz..................................................................++...zy+...zttyy.+smmmu
(PID.TID 0000.0001) //     36 utt+.........................................mm++....................+++++++znmm.zoowssvuyutt+
(PID.TID 0000.0001) //     35 ++++.................................+zzz..rrmmkk+...+gghn...........+++....+nmiijlsoopuww++++
(PID.TID 0000.0001) //     34 .....................................+vvy.ggqyxv+z.ccdffhim..................+nihhikkihhm+....
(PID.TID 0000.0001) //     33 +.....................................uuz---h------aaabdefin+.................zqvddflifffw+...
(PID.TID 0000.0001) //     32 +.....................................+t----h---------acdfgnn................+++gdffkofffm+...
(PID.TID 0000.0001) //     31 ......................................-----ad--------abddegil..............qbaafccdhqqgddm....
(PID.TID 0000.0001) //     30 .....................................f----b--b------------abd............zfbb--fbcdosjfddi....
(PID.TID 0000.0001) //     29 ...................................tu----e---fjg----------abdf...........eaac--abfmijaadgi....
(PID.TID 0000.0001) //     28 .................................+xfl-------------------bdedefi.........qbaa---aemfbbaaejz....
(PID.TID 0000.0001) //     27 ................xx..............+wfgfpf--------eallc---bbbccefgi...+++y.qb-----akfa---ah......
(PID.TID 0000.0001) //     26 ................xnn...........+vd---dna------a--aicfna---aabdfghku.++xssuy-----bgca---ci......
(PID.TID 0000.0001) //     25 ................iiik...oo+...+ivd---doaa-bc--ilglf--aa---aabcghhkll...ssum+xaaacjbaabdjk......
(PID.TID 0000.0001) //     24 ..............xnheeft.kkk+...uii.aagdm----aa-----a-------bbbcdefjljjju.zummwwbbchba--abi......
(PID.TID 0000.0001) //     23 ..............xgheefp.iikw...uuw..fihi----fed-----eaaa--bbbbcdfflkjiiiq....zykccefa--abd......
(PID.TID 0000.0001) //     22 uss...........bbelffslffkk...zz.wqkeeqoheccdfa-----egabaabcdddegghliiiqq......xeeehheehccquss.
(PID.TID 0000.0001) //     21 bbeir........nbbcdjhqdddiiz.....wqfeelgghmedea-----bibbcddddddefghklnqoo........ieeflhgcccbbei
(PID.TID 0000.0001) //     20 bbder.......ldcccdgkccccidd......z.vkkktqqhegg----aaacddddddddefghkiiijl.........nhfa--gfcbbde
(PID.TID 0000.0001) //     19 cdaaf.......kddosggpaaaibbccx...+z+.....r+nlec---agaaabcddddddefikfgffff...........d---cjhcdaa
(PID.TID 0000.0001) //     18 d---d.......kglggvliaaaibbcaaeaiv++...qqzolhecccfdgkaabcdfdddeeikgfgffdd+..........d---djhd---
(PID.TID 0000.0001) //     17 c---c.......l.feewlfaaaoaa----aiv.....qqnllslmlofcdbaacceffffhhligfigeddj.........hd---ckhc---
(PID.TID 0000.0001) //     16 ba--c......tn.ddgnlfdaaqa-----lv.......vnllvllnwv--accivomfffhilhgfffeddjf........re--aeigba--
(PID.TID 0000.0001) //     15 b--dpz....+ll.ccdfhmdddlc----av.........otsxoomv---abccddfihgijkhgfffeejfff......+fd---ckfb--d
(PID.TID 0000.0001) //     14 c--mcl....weeqbaafilkfend--eagy.........hhstofft----aacdheefijkmjhhjijiffff.....zlfdaaadlfc--m
(PID.TID 0000.0001) //     13 cclbbg....nccobaaiddgkffqrqeaal.........eeutqfft------aaceeffhijlkjhhigfffq....+jgfodccflhcclb
(PID.TID 0000.0001) //     12 hgaaacw+iiicclemhdddfliigfdcaabfaaaz....ccsurqpc--------abcifffikiiihhggff.....kbbbdfffglhhgaa
(PID.TID 0000.0001) //     11 gcaaacbbifccennhbbdefnihgfdccaaaa----..dcccnt.ncab-------aabcdfilhggjiggff....l---abcefjlkgcaa
(PID.TID 0000.0001) //     10 fcaaccbdaacfrllfbbdegkmmljhfdddba----d.dcccfx.nyrebaba----abcdgilhfeegijgi..+w--aa-abcfilkfcaa
(PID.TID 0000.0001) //      9 ffcdcccaaaoqsolfdeehikihhlllgfedcccccdmdcccf.vyfaaaaaaaa--abdehmjhfeeefglv.++w-----abcdfklffcd
(PID.TID 0000.0001) //      8 iffjklcaafddffeeccvznkfffhhhlkjifgjkkfeeddfsyvcaaaaaaccdcccdfgjligedbbdeg+.++xffn--cfddefliffj
(PID.TID 0000.0001) //      7 mqnnbbkkf--bmbaabbgtykfddeffeeddccdfhlffeelfbaaaaaacddeghgjgjlligeddaaabedfiiiiiisvkfkecchmqnn
(PID.TID 0000.0001) //      6 ca-------------aabdelttdddedddddccccdfkkiiffbaaaabcdgimmkmefecaaabbbaaabbdfiiiiispmmregifcca--
(PID.TID 0000.0001) //      5 -------a-------aacdehhhiddeddddddcccdfiikomodddefffmlmigedccaaaaaaaababbbdfiijsqgeccccbaa-----
(PID.TID 0000.0001) //      4 -ahebaabbbbbeihffgijiiiijpywnnpokkomkiiijmmmolkommmgffeeedccaaaaaabbcccefhmz..yjgeccccbaa--ahe
(PID.TID 0000.0001) //      3 ffhhrpjiiwyy............................yyotmjjjjgfeeeeeeddeffffheddeghjkzz..yqjgeddccdbbgffhh
(PID.TID 0000.0001) //      2 ............................................zyxxmgfeeefefgimnpwwwy..+zyy.....yyyyoiiihhz+.....
(PID.TID 0000.0001) //      1 ..............................................................................................
(PID.TID 0000.0001) //      0 qlloqz+.++++zzz++++++..................................................................+++qllo
(PID.TID 0000.0001) //     -1 slloorzzzzzzzzz+...++.....................................................yxxz........+zvusllo
(PID.TID 0000.0001) // =======================================================
(PID.TID 0000.0001) // END OF FIELD                                          =
(PID.TID 0000.0001) // =======================================================
(PID.TID 0000.0001) 
(PID.TID 0000.0001) // =======================================================
(PID.TID 0000.0001) // Field Surface reference r-position (ini_depths)
(PID.TID 0000.0001) // CMIN =          1.000000000000000E+32
(PID.TID 0000.0001) // CMAX =         -1.000000000000000E+32
(PID.TID 0000.0001) // CINT =          0.000000000000000E+00
(PID.TID 0000.0001) // SYMBOLS (CMIN->CMAX): -abcdefghijklmnopqrstuvwxyz+
(PID.TID 0000.0001) //                  0.0: .
(PID.TID 0000.0001) // RANGE I (Lo:Hi:Step):(    -1:    92:     1)
(PID.TID 0000.0001) // RANGE J (Lo:Hi:Step):(    42:    -1:    -1)
(PID.TID 0000.0001) // RANGE K (Lo:Hi:Step):(   1:   1:   1)
(PID.TID 0000.0001) // =======================================================
(PID.TID 0000.0001) // =======================================================
(PID.TID 0000.0001) // END OF FIELD                                          =
(PID.TID 0000.0001) // =======================================================
(PID.TID 0000.0001) 
(PID.TID 0000.0001) // =======================================================
(PID.TID 0000.0001) // Field Model R_low (ini_masks_etc)
(PID.TID 0000.0001) // CMIN =         -5.200000000000000E+03
(PID.TID 0000.0001) // CMAX =         -1.200000000000000E+02
(PID.TID 0000.0001) // CINT =          1.881481481481482E+02
(PID.TID 0000.0001) // SYMBOLS (CMIN->CMAX): -abcdefghijklmnopqrstuvwxyz+
(PID.TID 0000.0001) //                  0.0: .
(PID.TID 0000.0001) // RANGE I (Lo:Hi:Step):(    -1:    92:     1)
(PID.TID 0000.0001) // RANGE J (Lo:Hi:Step):(    42:    -1:    -1)
(PID.TID 0000.0001) // RANGE K (Lo:Hi:Step):(   1:   1:   1)
(PID.TID 0000.0001) // =======================================================
(PID.TID 0000.0001) K =   1
(PID.TID 0000.0001) //                I=8       I=18      I=28      I=38      I=48      I=58      I=68      I=78      I=88
(PID.TID 0000.0001) // |--J--|101234567|901234567|901234567|901234567|901234567|901234567|901234567|901234567|901234567|9012
(PID.TID 0000.0001) //     42 ............................................zyxxmgfeeefefgimnpwwwy..+zyy.....yyyyoiiihhz+.....
(PID.TID 0000.0001) //     41 ..............................................................................................
(PID.TID 0000.0001) //     40 qlloqz+.++++zzz++++++..................................................................+++qllo
(PID.TID 0000.0001) //     39 slloorzzzzzzzzz+...++.....................................................yxxz........+zvusllo
(PID.TID 0000.0001) //     38 mqpporzzzzzz+++...........................................................zxxy+......zyyvsmqpp
(PID.TID 0000.0001) //     37 mmmuz..................................................................++...zy+...yttyy.+smmmu
(PID.TID 0000.0001) //     36 utt+.........................................mm++....................+++++++znmm.yoowssvuyutt+
(PID.TID 0000.0001) //     35 ++++.................................+zzz..rrmmkk+...+gghn...........+++....+nmiijlsoopuww++++
(PID.TID 0000.0001) //     34 .....................................+vvy.ggqyxv+y.ccdffhim..................+nihhikkihhm+....
(PID.TID 0000.0001) //     33 +.....................................uuz---h------aaabdefin+.................zqvddflifffw+...
(PID.TID 0000.0001) //     32 +.....................................+t----h---------acdfgnn................+++gdffkofffm+...
(PID.TID 0000.0001) //     31 ......................................-----ad--------abddegil..............qbaafccdhqqgddm....
(PID.TID 0000.0001) //     30 .....................................f----b--b------------abd............zfbb--fbcdosjfddi....
(PID.TID 0000.0001) //     29 ...................................tu----e---fjg----------abdf...........eaac--abfmijaadgi....
(PID.TID 0000.0001) //     28 .................................+xfl-------------------bdedefi.........qbaa---aemfbbaaejz....
(PID.TID 0000.0001) //     27 ................xx..............+wfgfpf--------eallc---bbbccefgi...+++x.qb-----akfa---ah......
(PID.TID 0000.0001) //     26 ................xnn...........+vd---dna------a--aicfna---aabdfghku.++xssuy-----bgca---ci......
(PID.TID 0000.0001) //     25 ................iiik...oo+...+ivd---doaa-bc--ilglf--aa---aabcghhkll...ssum+xaaacjbaabdjk......
(PID.TID 0000.0001) //     24 ..............xnheeft.kkk+...uii.aagdm----aa-----a-------bbbcdefjljjju.zummwwbbchba--abi......
(PID.TID 0000.0001) //     23 ..............xgheefp.iikw...uuw..fihi----fed-----eaaa--bbbbcdfflkjiiiq....zykccefa--abd......
(PID.TID 0000.0001) //     22 uss...........bbelffslffkk...zz.wqkeeqoheccdfa-----egabaabcdddegghliiiqq......xeeehheehccquss.
(PID.TID 0000.0001) //     21 bbeir........nbbcdjhqdddiiz.....wqfeelgghmedea-----bibbcddddddefghklnqoo........ieeflhgcccbbei
(PID.TID 0000.0001) //     20 bbder.......ldcccdgkccccidd......z.vkkktqqhegg----aaacddddddddefghkiiijl.........nhfa--gfcbbde
(PID.TID 0000.0001) //     19 cdaaf.......kddosggpaaaibbccx...+z+.....r+nlec---agaaabcddccddefikfgffff...........d---cjhcdaa
(PID.TID 0000.0001) //     18 d---d.......kglggvliaaaibbcaaeaiv++...qqzolhecccfdgkaabcdfccdeeikgfgffdd+..........d---djhd---
(PID.TID 0000.0001) //     17 c---c.......l.feewlfaaaoaa----aiv.....qqnllslmlofcdbaacceffffhhligfigeddj.........hd---ckhc---
(PID.TID 0000.0001) //     16 ba--c......tn.ddgnlfdaaqa-----lv.......vnllvllnwv--accivomfffhilhgfffeddjf........re--aeigba--
(PID.TID 0000.0001) //     15 b--dpz....+ll.ccdfhmdddlc----av.........otsxoomv---abccddfihgijkhgfffeejfff......+fd---ckfb--d
(PID.TID 0000.0001) //     14 c--mcl....weeqbaafilkfend--eagy.........hhstofft----aacdheefijkmjhhjijiffff.....zlfdaaadlfc--m
(PID.TID 0000.0001) //     13 cclbbg....nccobaaiddgkffqrqeaal.........eeutqfft------aaceeffhijlkjhhigfffq....+jgfodccflhcclb
(PID.TID 0000.0001) //     12 hgaaacw+iiicclemhdddfliigfdcaabfaaaz....ccsurqpc--------abcifffikiiihhggff.....kbbbdfffglhhgaa
(PID.TID 0000.0001) //     11 gcaaacbbifccennhbbdefnihgfdccaaaa----..dcccnt.ncab-------aabcdfilhggjiggff....l---abcefjlkgcaa
(PID.TID 0000.0001) //     10 fcaaccbdaacfrllfbbdegkmmljhfdddba----d.dcccfx.nyrebaba----abcdgilhfeegijgi..+w--aa-abcfilkfcaa
(PID.TID 0000.0001) //      9 ffcdcccaaaoqsolfdeehikihhlllgfedcccccdmdcccf.vyfaaaaaaaa--abdehmjhfeeefglv.++w-----abcdfklffcd
(PID.TID 0000.0001) //      8 iffjklcaafddffeeccvznkfffhhhlkjifgjkkfeeddfsyvcaaaaaaccdcccdfgjligedbbceg+.++xffn--cfddefliffj
(PID.TID 0000.0001) //      7 mqnnbbkkf--bmbaabbgtykfddeffeeddccdfhlffeelfbaaaaaacddeghgjgjlligeddaaabedfiiiiiisvkfkecchmqnn
(PID.TID 0000.0001) //      6 ca-------------aabcelttdddedddddccccdfkkiiffbaaaabcdgimmkmefecaaabbbaaabbdfiiiiispmmregifcca--
(PID.TID 0000.0001) //      5 -------a-------aaccehhhiddeddddddcccdfiikomodddefffmlmigedccaaaaaaaababbbdfiijsqgeccccbaa-----
(PID.TID 0000.0001) //      4 -ahebaabbbbbeihffgijiiiijpywnnpokkomkiiijmmmolkommmgffeeedccaaaaaabbcccefhmz..yjgeccccbaa--ahe
(PID.TID 0000.0001) //      3 ffhhrpjiiwyy............................yxotmjjjjgfeeeeeeddeffffheddeghjkyy..yqjgeddccdbbgffhh
(PID.TID 0000.0001) //      2 ............................................zyxxmgfeeefefgimnpwwwy..+zyy.....yyyyoiiihhz+.....
(PID.TID 0000.0001) //      1 ..............................................................................................
(PID.TID 0000.0001) //      0 qlloqz+.++++zzz++++++..................................................................+++qllo
(PID.TID 0000.0001) //     -1 slloorzzzzzzzzz+...++.....................................................yxxz........+zvusllo
(PID.TID 0000.0001) // =======================================================
(PID.TID 0000.0001) // END OF FIELD                                          =
(PID.TID 0000.0001) // =======================================================
(PID.TID 0000.0001) 
(PID.TID 0000.0001) // =======================================================
(PID.TID 0000.0001) // Field Model Ro_surf (ini_masks_etc)
(PID.TID 0000.0001) // CMIN =          1.000000000000000E+32
(PID.TID 0000.0001) // CMAX =         -1.000000000000000E+32
(PID.TID 0000.0001) // CINT =          0.000000000000000E+00
(PID.TID 0000.0001) // SYMBOLS (CMIN->CMAX): -abcdefghijklmnopqrstuvwxyz+
(PID.TID 0000.0001) //                  0.0: .
(PID.TID 0000.0001) // RANGE I (Lo:Hi:Step):(    -1:    92:     1)
(PID.TID 0000.0001) // RANGE J (Lo:Hi:Step):(    42:    -1:    -1)
(PID.TID 0000.0001) // RANGE K (Lo:Hi:Step):(   1:   1:   1)
(PID.TID 0000.0001) // =======================================================
(PID.TID 0000.0001) // =======================================================
(PID.TID 0000.0001) // END OF FIELD                                          =
(PID.TID 0000.0001) // =======================================================
(PID.TID 0000.0001) 
(PID.TID 0000.0001) // =======================================================
(PID.TID 0000.0001) // Field hFacC at iteration          0
(PID.TID 0000.0001) // CMIN =          1.000000000000000E+00
(PID.TID 0000.0001) // CMAX =          1.000000000000000E+00
(PID.TID 0000.0001) // CINT =          0.000000000000000E+00
(PID.TID 0000.0001) // SYMBOLS (CMIN->CMAX): -abcdefghijklmnopqrstuvwxyz+
(PID.TID 0000.0001) //                  0.0: .
(PID.TID 0000.0001) // RANGE I (Lo:Hi:Step):(    -1:    92:     1)
(PID.TID 0000.0001) // RANGE J (Lo:Hi:Step):(    42:    -1:    -1)
(PID.TID 0000.0001) // RANGE K (Lo:Hi:Step):(   1:   1:   1)
(PID.TID 0000.0001) // =======================================================
(PID.TID 0000.0001) // =======================================================
(PID.TID 0000.0001) // END OF FIELD                                          =
(PID.TID 0000.0001) // =======================================================
(PID.TID 0000.0001) 
(PID.TID 0000.0001) // =======================================================
(PID.TID 0000.0001) // Field hFacW at iteration          0
(PID.TID 0000.0001) // CMIN =          1.000000000000000E+00
(PID.TID 0000.0001) // CMAX =          1.000000000000000E+00
(PID.TID 0000.0001) // CINT =          0.000000000000000E+00
(PID.TID 0000.0001) // SYMBOLS (CMIN->CMAX): -abcdefghijklmnopqrstuvwxyz+
(PID.TID 0000.0001) //                  0.0: .
(PID.TID 0000.0001) // RANGE I (Lo:Hi:Step):(    -1:    92:     1)
(PID.TID 0000.0001) // RANGE J (Lo:Hi:Step):(    42:    -1:    -1)
(PID.TID 0000.0001) // RANGE K (Lo:Hi:Step):(   1:   1:   1)
(PID.TID 0000.0001) // =======================================================
(PID.TID 0000.0001) // =======================================================
(PID.TID 0000.0001) // END OF FIELD                                          =
(PID.TID 0000.0001) // =======================================================
(PID.TID 0000.0001) 
(PID.TID 0000.0001) // =======================================================
(PID.TID 0000.0001) // Field hFacS at iteration          0
(PID.TID 0000.0001) // CMIN =          1.000000000000000E+00
(PID.TID 0000.0001) // CMAX =          1.000000000000000E+00
(PID.TID 0000.0001) // CINT =          0.000000000000000E+00
(PID.TID 0000.0001) // SYMBOLS (CMIN->CMAX): -abcdefghijklmnopqrstuvwxyz+
(PID.TID 0000.0001) //                  0.0: .
(PID.TID 0000.0001) // RANGE I (Lo:Hi:Step):(    -1:    92:     1)
(PID.TID 0000.0001) // RANGE J (Lo:Hi:Step):(    42:    -1:    -1)
(PID.TID 0000.0001) // RANGE K (Lo:Hi:Step):(   1:   1:   1)
(PID.TID 0000.0001) // =======================================================
(PID.TID 0000.0001) // =======================================================
(PID.TID 0000.0001) // END OF FIELD                                          =
(PID.TID 0000.0001) // =======================================================
(PID.TID 0000.0001) 
(PID.TID 0000.0001) GAD_INIT_FIXED: GAD_OlMinSize=  1  0  1
(PID.TID 0000.0001) 
(PID.TID 0000.0001) // ===================================
(PID.TID 0000.0001) // GAD parameters :
(PID.TID 0000.0001) // ===================================
(PID.TID 0000.0001) tempAdvScheme =   /* Temp. Horiz.Advection scheme selector */
(PID.TID 0000.0001)                       2
(PID.TID 0000.0001)     ;
(PID.TID 0000.0001) tempVertAdvScheme =   /* Temp. Vert. Advection scheme selector */
(PID.TID 0000.0001)                       2
(PID.TID 0000.0001)     ;
(PID.TID 0000.0001) tempMultiDimAdvec =   /* use Muti-Dim Advec method for Temp */
(PID.TID 0000.0001)                   F
(PID.TID 0000.0001)     ;
(PID.TID 0000.0001) tempSOM_Advection = /* use 2nd Order Moment Advection for Temp */
(PID.TID 0000.0001)                   F
(PID.TID 0000.0001)     ;
(PID.TID 0000.0001) AdamsBashforthGt = /* apply Adams-Bashforth extrapolation on Gt */
(PID.TID 0000.0001)                   T
(PID.TID 0000.0001)     ;
(PID.TID 0000.0001) AdamsBashforth_T = /* apply Adams-Bashforth extrapolation on Temp */
(PID.TID 0000.0001)                   F
(PID.TID 0000.0001)     ;
(PID.TID 0000.0001) saltAdvScheme =   /* Salt. Horiz.advection scheme selector */
(PID.TID 0000.0001)                       2
(PID.TID 0000.0001)     ;
(PID.TID 0000.0001) saltVertAdvScheme =   /* Salt. Vert. Advection scheme selector */
(PID.TID 0000.0001)                       2
(PID.TID 0000.0001)     ;
(PID.TID 0000.0001) saltMultiDimAdvec =   /* use Muti-Dim Advec method for Salt */
(PID.TID 0000.0001)                   F
(PID.TID 0000.0001)     ;
(PID.TID 0000.0001) saltSOM_Advection = /* use 2nd Order Moment Advection for Salt */
(PID.TID 0000.0001)                   F
(PID.TID 0000.0001)     ;
(PID.TID 0000.0001) AdamsBashforthGs = /* apply Adams-Bashforth extrapolation on Gs */
(PID.TID 0000.0001)                   T
(PID.TID 0000.0001)     ;
(PID.TID 0000.0001) AdamsBashforth_S = /* apply Adams-Bashforth extrapolation on Salt */
(PID.TID 0000.0001)                   F
(PID.TID 0000.0001)     ;
(PID.TID 0000.0001) // ===================================
(PID.TID 0000.0001) %MON fCori_max                    =   1.4265546244797E-04
(PID.TID 0000.0001) %MON fCori_min                    =  -1.4265546244797E-04
(PID.TID 0000.0001) %MON fCori_mean                   =  -1.2347858075529E-21
(PID.TID 0000.0001) %MON fCori_sd                     =   9.6599226301547E-05
(PID.TID 0000.0001) %MON fCoriG_max                   =   1.4151032568025E-04
(PID.TID 0000.0001) %MON fCoriG_min                   =  -1.4362679550910E-04
(PID.TID 0000.0001) %MON fCoriG_mean                  =  -3.5906698877274E-06
(PID.TID 0000.0001) %MON fCoriG_sd                    =   9.6548915696244E-05
(PID.TID 0000.0001) %MON fCoriCos_max                 =   1.4575362704741E-04
(PID.TID 0000.0001) %MON fCoriCos_min                 =   3.0322354601388E-05
(PID.TID 0000.0001) %MON fCoriCos_mean                =   1.0288600773632E-04
(PID.TID 0000.0001) %MON fCoriCos_sd                  =   3.6784304327266E-05
(PID.TID 0000.0001) INI_CG2D: CG2D normalisation factor =  6.5682677425711703E-05
(PID.TID 0000.0001) 
(PID.TID 0000.0001) // =======================================================
(PID.TID 0000.0001) // Model configuration
(PID.TID 0000.0001) // =======================================================
(PID.TID 0000.0001) //
(PID.TID 0000.0001) // "Physical" paramters ( PARM01 in namelist )
(PID.TID 0000.0001) //
(PID.TID 0000.0001) buoyancyRelation = /* Type of relation to get Buoyancy */
(PID.TID 0000.0001)               'OCEANIC'
(PID.TID 0000.0001)     ;
(PID.TID 0000.0001) fluidIsAir   =  /* fluid major constituent is Air */
(PID.TID 0000.0001)                   F
(PID.TID 0000.0001)     ;
(PID.TID 0000.0001) fluidIsWater =  /* fluid major constituent is Water */
(PID.TID 0000.0001)                   T
(PID.TID 0000.0001)     ;
(PID.TID 0000.0001) usingPCoords =  /* use p (or p*) vertical coordinate */
(PID.TID 0000.0001)                   F
(PID.TID 0000.0001)     ;
(PID.TID 0000.0001) usingZCoords =  /* use z (or z*) vertical coordinate */
(PID.TID 0000.0001)                   T
(PID.TID 0000.0001)     ;
(PID.TID 0000.0001) tRef =   /* Reference temperature profile ( oC or K ) */
(PID.TID 0000.0001)    15 @  2.000000000000000E+01              /* K =  1: 15 */
(PID.TID 0000.0001)     ;
(PID.TID 0000.0001) sRef =   /* Reference salinity profile ( g/kg ) */
(PID.TID 0000.0001)    15 @  3.500000000000000E+01              /* K =  1: 15 */
(PID.TID 0000.0001)     ;
(PID.TID 0000.0001) useStrainTensionVisc= /* Use StrainTension Form of Viscous Operator */
(PID.TID 0000.0001)                   F
(PID.TID 0000.0001)     ;
(PID.TID 0000.0001) useVariableVisc = /* Use variable horizontal viscosity */
(PID.TID 0000.0001)                   F
(PID.TID 0000.0001)     ;
(PID.TID 0000.0001) useHarmonicVisc = /* Use harmonic horizontal viscosity */
(PID.TID 0000.0001)                   T
(PID.TID 0000.0001)     ;
(PID.TID 0000.0001) useBiharmonicVisc= /* Use biharmonic horiz.  viscosity */
(PID.TID 0000.0001)                   F
(PID.TID 0000.0001)     ;
(PID.TID 0000.0001) useSmag3D = /* Use isotropic 3-D Smagorinsky viscosity */
(PID.TID 0000.0001)                   F
(PID.TID 0000.0001)     ;
(PID.TID 0000.0001) viscAh  =   /* Lateral harmonic viscosity ( m^2/s ) */
(PID.TID 0000.0001)                 5.000000000000000E+05
(PID.TID 0000.0001)     ;
(PID.TID 0000.0001) viscA4  =   /* Lateral biharmonic viscosity ( m^4/s ) */
(PID.TID 0000.0001)                 0.000000000000000E+00
(PID.TID 0000.0001)     ;
(PID.TID 0000.0001) no_slip_sides =  /* Viscous BCs: No-slip sides */
(PID.TID 0000.0001)                   T
(PID.TID 0000.0001)     ;
(PID.TID 0000.0001) sideDragFactor = /* side-drag scaling factor (non-dim) */
(PID.TID 0000.0001)                 2.000000000000000E+00
(PID.TID 0000.0001)     ;
(PID.TID 0000.0001) viscArNr = /* vertical profile of vertical viscosity ( m^2/s )*/
(PID.TID 0000.0001)    15 @  1.000000000000000E-03              /* K =  1: 15 */
(PID.TID 0000.0001)     ;
(PID.TID 0000.0001) no_slip_bottom =  /* Viscous BCs: No-slip bottom */
(PID.TID 0000.0001)                   T
(PID.TID 0000.0001)     ;
(PID.TID 0000.0001) bottomVisc_pCell = /* Partial-cell in bottom Visc. BC */
(PID.TID 0000.0001)                   F
(PID.TID 0000.0001)     ;
(PID.TID 0000.0001) bottomDragLinear = /* linear bottom-drag coefficient ( m/s ) */
(PID.TID 0000.0001)                 0.000000000000000E+00
(PID.TID 0000.0001)     ;
(PID.TID 0000.0001) bottomDragQuadratic = /* quadratic bottom-drag coefficient (-) */
(PID.TID 0000.0001)                 0.000000000000000E+00
(PID.TID 0000.0001)     ;
(PID.TID 0000.0001) selectBotDragQuadr = /* select quadratic bottom drag options */
(PID.TID 0000.0001)                      -1
(PID.TID 0000.0001)     ;
(PID.TID 0000.0001) diffKhT =   /* Laplacian diffusion of heat laterally ( m^2/s ) */
(PID.TID 0000.0001)                 0.000000000000000E+00
(PID.TID 0000.0001)     ;
(PID.TID 0000.0001) diffK4T =   /* Biharmonic diffusion of heat laterally ( m^4/s ) */
(PID.TID 0000.0001)                 0.000000000000000E+00
(PID.TID 0000.0001)     ;
(PID.TID 0000.0001) diffKhS =   /* Laplacian diffusion of salt laterally ( m^2/s ) */
(PID.TID 0000.0001)                 0.000000000000000E+00
(PID.TID 0000.0001)     ;
(PID.TID 0000.0001) diffK4S =   /* Biharmonic diffusion of salt laterally ( m^4/s ) */
(PID.TID 0000.0001)                 0.000000000000000E+00
(PID.TID 0000.0001)     ;
(PID.TID 0000.0001) diffKrNrT = /* vertical profile of vertical diffusion of Temp ( m^2/s )*/
(PID.TID 0000.0001)    15 @  3.000000000000000E-05              /* K =  1: 15 */
(PID.TID 0000.0001)     ;
(PID.TID 0000.0001) diffKrNrS = /* vertical profile of vertical diffusion of Salt ( m^2/s )*/
(PID.TID 0000.0001)    15 @  3.000000000000000E-05              /* K =  1: 15 */
(PID.TID 0000.0001)     ;
(PID.TID 0000.0001) diffKrBL79surf = /* Surface diffusion for Bryan and Lewis 79 ( m^2/s ) */
(PID.TID 0000.0001)                 0.000000000000000E+00
(PID.TID 0000.0001)     ;
(PID.TID 0000.0001) diffKrBL79deep = /* Deep diffusion for Bryan and Lewis 1979 ( m^2/s ) */
(PID.TID 0000.0001)                 0.000000000000000E+00
(PID.TID 0000.0001)     ;
(PID.TID 0000.0001) diffKrBL79scl = /* Depth scale for Bryan and Lewis 1979 ( m ) */
(PID.TID 0000.0001)                 2.000000000000000E+02
(PID.TID 0000.0001)     ;
(PID.TID 0000.0001) diffKrBL79Ho = /* Turning depth for Bryan and Lewis 1979 ( m ) */
(PID.TID 0000.0001)                -2.000000000000000E+03
(PID.TID 0000.0001)     ;
(PID.TID 0000.0001) ivdc_kappa = /* Implicit Vertical Diffusivity for Convection ( m^2/s) */
(PID.TID 0000.0001)                 1.000000000000000E+02
(PID.TID 0000.0001)     ;
(PID.TID 0000.0001) hMixCriteria=  /* Criteria for mixed-layer diagnostic */
(PID.TID 0000.0001)                -8.000000000000000E-01
(PID.TID 0000.0001)     ;
(PID.TID 0000.0001) dRhoSmall =  /* Parameter for mixed-layer diagnostic */
(PID.TID 0000.0001)                 1.000000000000000E-06
(PID.TID 0000.0001)     ;
(PID.TID 0000.0001) hMixSmooth=  /* Smoothing parameter for mixed-layer diagnostic */
(PID.TID 0000.0001)                 0.000000000000000E+00
(PID.TID 0000.0001)     ;
(PID.TID 0000.0001) eosType =  /* Type of Equation of State */
(PID.TID 0000.0001)               'JMD95Z'
(PID.TID 0000.0001)     ;
(PID.TID 0000.0001) eosRefP0 = /* Reference atmospheric pressure for EOS ( Pa ) */
(PID.TID 0000.0001)                 1.013250000000000E+05
(PID.TID 0000.0001)     ;
(PID.TID 0000.0001) selectP_inEOS_Zc = /* select pressure to use in EOS (0,1,2,3) */
(PID.TID 0000.0001)                       0
(PID.TID 0000.0001)     0= -g*rhoConst*z ; 1= pRef (from tRef,sRef); 2= Hyd P ; 3= Hyd+NH P
(PID.TID 0000.0001)     ;
(PID.TID 0000.0001) surf_pRef = /* Surface reference pressure ( Pa ) */
(PID.TID 0000.0001)                 1.013250000000000E+05
(PID.TID 0000.0001)     ;
(PID.TID 0000.0001) HeatCapacity_Cp =  /* Specific heat capacity ( J/kg/K ) */
(PID.TID 0000.0001)                 3.994000000000000E+03
(PID.TID 0000.0001)     ;
(PID.TID 0000.0001) celsius2K = /* 0 degree Celsius converted to Kelvin ( K ) */
(PID.TID 0000.0001)                 2.731500000000000E+02
(PID.TID 0000.0001)     ;
(PID.TID 0000.0001) rhoConst  = /* Reference density (Boussinesq)  ( kg/m^3 ) */
(PID.TID 0000.0001)                 1.035000000000000E+03
(PID.TID 0000.0001)     ;
(PID.TID 0000.0001) rhoFacC = /* normalized Reference density @ cell-Center (-) */
(PID.TID 0000.0001)    15 @  1.000000000000000E+00              /* K =  1: 15 */
(PID.TID 0000.0001)     ;
(PID.TID 0000.0001) rhoFacF = /* normalized Reference density @ W-Interface (-) */
(PID.TID 0000.0001)    16 @  1.000000000000000E+00              /* K =  1: 16 */
(PID.TID 0000.0001)     ;
(PID.TID 0000.0001) rhoConstFresh = /* Fresh-water reference density ( kg/m^3 ) */
(PID.TID 0000.0001)                 1.000000000000000E+03
(PID.TID 0000.0001)     ;
(PID.TID 0000.0001) gravity =   /* Gravitational acceleration ( m/s^2 ) */
(PID.TID 0000.0001)                 9.810000000000000E+00
(PID.TID 0000.0001)     ;
(PID.TID 0000.0001) gBaro =   /* Barotropic gravity ( m/s^2 ) */
(PID.TID 0000.0001)                 9.810000000000000E+00
(PID.TID 0000.0001)     ;
(PID.TID 0000.0001) gravFacC = /* gravity factor (vs surf.) @ cell-Center (-) */
(PID.TID 0000.0001)    15 @  1.000000000000000E+00              /* K =  1: 15 */
(PID.TID 0000.0001)     ;
(PID.TID 0000.0001) gravFacF = /* gravity factor (vs surf.) @ W-Interface (-) */
(PID.TID 0000.0001)    16 @  1.000000000000000E+00              /* K =  1: 16 */
(PID.TID 0000.0001)     ;
(PID.TID 0000.0001) rotationPeriod =   /* Rotation Period ( s ) */
(PID.TID 0000.0001)                 8.616400000000000E+04
(PID.TID 0000.0001)     ;
(PID.TID 0000.0001) omega =   /* Angular velocity ( rad/s ) */
(PID.TID 0000.0001)                 7.292123516990375E-05
(PID.TID 0000.0001)     ;
(PID.TID 0000.0001) f0 =   /* Reference coriolis parameter ( 1/s ) */
(PID.TID 0000.0001)                 1.000000000000000E-04
(PID.TID 0000.0001)     ;
(PID.TID 0000.0001) beta =   /* Beta ( 1/(m.s) ) */
(PID.TID 0000.0001)                 9.999999999999999E-12
(PID.TID 0000.0001)     ;
(PID.TID 0000.0001) fPrime =   /* Second coriolis parameter ( 1/s ) */
(PID.TID 0000.0001)                 0.000000000000000E+00
(PID.TID 0000.0001)     ;
(PID.TID 0000.0001) rigidLid =   /* Rigid lid on/off flag */
(PID.TID 0000.0001)                   F
(PID.TID 0000.0001)     ;
(PID.TID 0000.0001) implicitFreeSurface =   /* Implicit free surface on/off flag */
(PID.TID 0000.0001)                   T
(PID.TID 0000.0001)     ;
(PID.TID 0000.0001) freeSurfFac =   /* Implicit free surface factor */
(PID.TID 0000.0001)                 1.000000000000000E+00
(PID.TID 0000.0001)     ;
(PID.TID 0000.0001) implicSurfPress =  /* Surface Pressure implicit factor (0-1)*/
(PID.TID 0000.0001)                 1.000000000000000E+00
(PID.TID 0000.0001)     ;
(PID.TID 0000.0001) implicDiv2DFlow =  /* Barot. Flow Div. implicit factor (0-1)*/
(PID.TID 0000.0001)                 1.000000000000000E+00
(PID.TID 0000.0001)     ;
(PID.TID 0000.0001) uniformLin_PhiSurf = /* use uniform Bo_surf on/off flag*/
(PID.TID 0000.0001)                   T
(PID.TID 0000.0001)     ;
(PID.TID 0000.0001) uniformFreeSurfLev = /* free-surface level-index is uniform */
(PID.TID 0000.0001)                   T
(PID.TID 0000.0001)     ;
(PID.TID 0000.0001) hFacMin =   /* minimum partial cell factor (hFac) */
(PID.TID 0000.0001)                 5.000000000000000E-02
(PID.TID 0000.0001)     ;
(PID.TID 0000.0001) hFacMinDr = /* minimum partial cell thickness ( m) */
(PID.TID 0000.0001)                 5.000000000000000E+01
(PID.TID 0000.0001)     ;
(PID.TID 0000.0001) exactConserv =  /* Exact Volume Conservation on/off flag*/
(PID.TID 0000.0001)                   T
(PID.TID 0000.0001)     ;
(PID.TID 0000.0001) linFSConserveTr = /* Tracer correction for Lin Free Surface on/off flag*/
(PID.TID 0000.0001)                   F
(PID.TID 0000.0001)     ;
(PID.TID 0000.0001) nonlinFreeSurf = /* Non-linear Free Surf. options (-1,0,1,2,3)*/
(PID.TID 0000.0001)                       0
(PID.TID 0000.0001)      -1,0= Off ; 1,2,3= On, 2=+rescale gU,gV, 3=+update cg2d solv.
(PID.TID 0000.0001)     ;
(PID.TID 0000.0001) hFacInf =   /* lower threshold for hFac (nonlinFreeSurf only)*/
(PID.TID 0000.0001)                 2.000000000000000E-01
(PID.TID 0000.0001)     ;
(PID.TID 0000.0001) hFacSup =   /* upper threshold for hFac (nonlinFreeSurf only)*/
(PID.TID 0000.0001)                 2.000000000000000E+00
(PID.TID 0000.0001)     ;
(PID.TID 0000.0001) select_rStar = /* r* Vertical coord. options (=0 r coord.; >0 uses r*)*/
(PID.TID 0000.0001)                       0
(PID.TID 0000.0001)     ;
(PID.TID 0000.0001) useRealFreshWaterFlux = /* Real Fresh Water Flux on/off flag*/
(PID.TID 0000.0001)                   T
(PID.TID 0000.0001)     ;
(PID.TID 0000.0001) temp_EvPrRn = /* Temp. of Evap/Prec/R (UNSET=use local T)(oC)*/
(PID.TID 0000.0001)                 1.234567000000000E+05
(PID.TID 0000.0001)     ;
(PID.TID 0000.0001) salt_EvPrRn = /* Salin. of Evap/Prec/R (UNSET=use local S)(g/kg)*/
(PID.TID 0000.0001)                 0.000000000000000E+00
(PID.TID 0000.0001)     ;
(PID.TID 0000.0001) selectAddFluid = /* option for mass source/sink of fluid (=0: off) */
(PID.TID 0000.0001)                       0
(PID.TID 0000.0001)     ;
(PID.TID 0000.0001) temp_addMass = /* Temp. of addMass array (UNSET=use local T)(oC)*/
(PID.TID 0000.0001)                 1.234567000000000E+05
(PID.TID 0000.0001)     ;
(PID.TID 0000.0001) salt_addMass = /* Salin. of addMass array (UNSET=use local S)(g/kg)*/
(PID.TID 0000.0001)                 0.000000000000000E+00
(PID.TID 0000.0001)     ;
(PID.TID 0000.0001) convertFW2Salt = /* convert F.W. Flux to Salt Flux (-1=use local S)(g/kg)*/
(PID.TID 0000.0001)                -1.000000000000000E+00
(PID.TID 0000.0001)     ;
(PID.TID 0000.0001) use3Dsolver = /* use 3-D pressure solver on/off flag */
(PID.TID 0000.0001)                   F
(PID.TID 0000.0001)     ;
(PID.TID 0000.0001) nonHydrostatic =  /* Non-Hydrostatic on/off flag */
(PID.TID 0000.0001)                   F
(PID.TID 0000.0001)     ;
(PID.TID 0000.0001) nh_Am2 = /* Non-Hydrostatic terms scaling factor */
(PID.TID 0000.0001)                 1.000000000000000E+00
(PID.TID 0000.0001)     ;
(PID.TID 0000.0001) implicitNHPress = /* Non-Hyd Pressure implicit factor (0-1)*/
(PID.TID 0000.0001)                 1.000000000000000E+00
(PID.TID 0000.0001)     ;
(PID.TID 0000.0001) selectNHfreeSurf = /* Non-Hyd (free-)Surface option */
(PID.TID 0000.0001)                       0
(PID.TID 0000.0001)     ;
(PID.TID 0000.0001) quasiHydrostatic = /* Quasi-Hydrostatic on/off flag */
(PID.TID 0000.0001)                   F
(PID.TID 0000.0001)     ;
(PID.TID 0000.0001) calc_wVelocity = /* vertical velocity calculation on/off flag */
(PID.TID 0000.0001)                   T
(PID.TID 0000.0001)     ;
(PID.TID 0000.0001) momStepping =  /* Momentum equation on/off flag */
(PID.TID 0000.0001)                   T
(PID.TID 0000.0001)     ;
(PID.TID 0000.0001) vectorInvariantMomentum= /* Vector-Invariant Momentum on/off */
(PID.TID 0000.0001)                   F
(PID.TID 0000.0001)     ;
(PID.TID 0000.0001) momAdvection =  /* Momentum advection on/off flag */
(PID.TID 0000.0001)                   T
(PID.TID 0000.0001)     ;
(PID.TID 0000.0001) momViscosity =  /* Momentum viscosity on/off flag */
(PID.TID 0000.0001)                   T
(PID.TID 0000.0001)     ;
(PID.TID 0000.0001) momImplVertAdv= /* Momentum implicit vert. advection on/off*/
(PID.TID 0000.0001)                   F
(PID.TID 0000.0001)     ;
(PID.TID 0000.0001) implicitViscosity = /* Implicit viscosity on/off flag */
(PID.TID 0000.0001)                   F
(PID.TID 0000.0001)     ;
(PID.TID 0000.0001) selectImplicitDrag= /* Implicit bot Drag options (0,1,2)*/
(PID.TID 0000.0001)                       0
(PID.TID 0000.0001)     0= Expl. ; 1= Impl. on provis. Vel ; 2= Fully Impl (with surf.P)
(PID.TID 0000.0001)     ;
(PID.TID 0000.0001) metricTerms =  /* metric-Terms on/off flag */
(PID.TID 0000.0001)                   T
(PID.TID 0000.0001)     ;
(PID.TID 0000.0001) useNHMTerms = /* Non-Hydrostatic Metric-Terms on/off */
(PID.TID 0000.0001)                   F
(PID.TID 0000.0001)     ;
(PID.TID 0000.0001) selectCoriMap = /* Coriolis Map options (0,1,2,3)*/
(PID.TID 0000.0001)                       2
(PID.TID 0000.0001)     0= f-Plane ; 1= Beta-Plane ; 2= Spherical ; 3= read from file
(PID.TID 0000.0001)     ;
(PID.TID 0000.0001) use3dCoriolis = /* 3-D Coriolis on/off flag */
(PID.TID 0000.0001)                   F
(PID.TID 0000.0001)     ;
(PID.TID 0000.0001) useCoriolis =  /* Coriolis on/off flag */
(PID.TID 0000.0001)                   T
(PID.TID 0000.0001)     ;
(PID.TID 0000.0001) useCDscheme =  /* CD scheme on/off flag */
(PID.TID 0000.0001)                   T
(PID.TID 0000.0001)     ;
(PID.TID 0000.0001) selectCoriScheme= /* Scheme selector for Coriolis-Term */
(PID.TID 0000.0001)                       0
(PID.TID 0000.0001)    = 0 : original discretization (simple averaging, no hFac)
(PID.TID 0000.0001)    = 1 : Wet-point averaging (Jamar & Ozer 1986)
(PID.TID 0000.0001)    = 2 : energy conserving scheme (no hFac weight)
(PID.TID 0000.0001)    = 3 : energy conserving scheme using Wet-point averaging
(PID.TID 0000.0001)     ;
(PID.TID 0000.0001) momForcing =  /* Momentum forcing on/off flag */
(PID.TID 0000.0001)                   T
(PID.TID 0000.0001)     ;
(PID.TID 0000.0001) momTidalForcing = /* Momentum Tidal forcing on/off flag */
(PID.TID 0000.0001)                   T
(PID.TID 0000.0001)     ;
(PID.TID 0000.0001) momPressureForcing =  /* Momentum pressure term on/off flag */
(PID.TID 0000.0001)                   T
(PID.TID 0000.0001)     ;
(PID.TID 0000.0001) implicitIntGravWave= /* Implicit Internal Gravity Wave flag */
(PID.TID 0000.0001)                   F
(PID.TID 0000.0001)     ;
(PID.TID 0000.0001) staggerTimeStep =    /* Stagger time stepping on/off flag */
(PID.TID 0000.0001)                   F
(PID.TID 0000.0001)     ;
(PID.TID 0000.0001) doResetHFactors = /* reset thickness factors @ each time-step */
(PID.TID 0000.0001)                   F
(PID.TID 0000.0001)     ;
(PID.TID 0000.0001) multiDimAdvection =  /* enable/disable Multi-Dim Advection */
(PID.TID 0000.0001)                   T
(PID.TID 0000.0001)     ;
(PID.TID 0000.0001) useMultiDimAdvec =   /* Multi-Dim Advection is/is-not used */
(PID.TID 0000.0001)                   F
(PID.TID 0000.0001)     ;
(PID.TID 0000.0001) implicitDiffusion = /* Implicit Diffusion on/off flag */
(PID.TID 0000.0001)                   T
(PID.TID 0000.0001)     ;
(PID.TID 0000.0001) tempStepping =  /* Temperature equation on/off flag */
(PID.TID 0000.0001)                   T
(PID.TID 0000.0001)     ;
(PID.TID 0000.0001) tempAdvection = /* Temperature advection on/off flag */
(PID.TID 0000.0001)                   T
(PID.TID 0000.0001)     ;
(PID.TID 0000.0001) tempImplVertAdv = /* Temp. implicit vert. advection on/off */
(PID.TID 0000.0001)                   F
(PID.TID 0000.0001)     ;
(PID.TID 0000.0001) tempForcing  =  /* Temperature forcing on/off flag */
(PID.TID 0000.0001)                   T
(PID.TID 0000.0001)     ;
(PID.TID 0000.0001) doThetaClimRelax = /* apply SST relaxation on/off flag */
(PID.TID 0000.0001)                   T
(PID.TID 0000.0001)     ;
(PID.TID 0000.0001) tempIsActiveTr = /* Temp. is a dynamically Active Tracer */
(PID.TID 0000.0001)                   T
(PID.TID 0000.0001)     ;
(PID.TID 0000.0001) saltStepping =  /* Salinity equation on/off flag */
(PID.TID 0000.0001)                   T
(PID.TID 0000.0001)     ;
(PID.TID 0000.0001) saltAdvection = /* Salinity advection on/off flag */
(PID.TID 0000.0001)                   T
(PID.TID 0000.0001)     ;
(PID.TID 0000.0001) saltImplVertAdv = /* Sali. implicit vert. advection on/off */
(PID.TID 0000.0001)                   F
(PID.TID 0000.0001)     ;
(PID.TID 0000.0001) saltForcing  =  /* Salinity forcing on/off flag */
(PID.TID 0000.0001)                   T
(PID.TID 0000.0001)     ;
(PID.TID 0000.0001) doSaltClimRelax = /* apply SSS relaxation on/off flag */
(PID.TID 0000.0001)                   T
(PID.TID 0000.0001)     ;
(PID.TID 0000.0001) saltIsActiveTr = /* Salt  is a dynamically Active Tracer */
(PID.TID 0000.0001)                   T
(PID.TID 0000.0001)     ;
(PID.TID 0000.0001)  readBinaryPrec = /* Precision used for reading binary files */
(PID.TID 0000.0001)                      32
(PID.TID 0000.0001)     ;
(PID.TID 0000.0001) writeBinaryPrec = /* Precision used for writing binary files */
(PID.TID 0000.0001)                      32
(PID.TID 0000.0001)     ;
(PID.TID 0000.0001)  rwSuffixType =   /* select format of mds file suffix */
(PID.TID 0000.0001)                       0
(PID.TID 0000.0001)    = 0 : myIter (I10.10) ;   = 1 : 100*myTime (100th sec) ;
(PID.TID 0000.0001)    = 2 : myTime (seconds);   = 3 : myTime/360 (10th of hr);
(PID.TID 0000.0001)    = 4 : myTime/3600 (hours)
(PID.TID 0000.0001)     ;
(PID.TID 0000.0001)  globalFiles = /* write "global" (=not per tile) files */
(PID.TID 0000.0001)                   F
(PID.TID 0000.0001)     ;
(PID.TID 0000.0001)  useSingleCpuIO = /* only master MPI process does I/O */
(PID.TID 0000.0001)                   T
(PID.TID 0000.0001)     ;
(PID.TID 0000.0001)  useSingleCpuInput = /* only master process reads input */
(PID.TID 0000.0001)                   T
(PID.TID 0000.0001)     ;
(PID.TID 0000.0001) /* debLev[*]  : level of debug & auxiliary message printing */
(PID.TID 0000.0001) debLevZero =  0 ; /* level of disabled aux. msg printing */
(PID.TID 0000.0001)    debLevA =  1 ; /* level of minimum  aux. msg printing */
(PID.TID 0000.0001)    debLevB =  2 ; /* level of low aux. print (report read-file opening)*/
(PID.TID 0000.0001)    debLevC =  3 ; /* level of moderate debug prt (most pkgs debug msg) */
(PID.TID 0000.0001)    debLevD =  4 ; /* level of enhanced debug prt (add DEBUG_STATS prt) */
(PID.TID 0000.0001)    debLevE =  5 ; /* level of extensive debug printing */
(PID.TID 0000.0001) debugLevel =  /* select debug printing level */
(PID.TID 0000.0001)                       5
(PID.TID 0000.0001)     ;
(PID.TID 0000.0001)  plotLevel =  /* select PLOT_FIELD printing level */
(PID.TID 0000.0001)                       5
(PID.TID 0000.0001)     ;
(PID.TID 0000.0001) //
(PID.TID 0000.0001) // Elliptic solver(s) paramters ( PARM02 in namelist )
(PID.TID 0000.0001) //
(PID.TID 0000.0001) cg2dMaxIters =   /* Upper limit on 2d con. grad iterations  */
(PID.TID 0000.0001)                     500
(PID.TID 0000.0001)     ;
(PID.TID 0000.0001) cg2dChkResFreq =   /* 2d con. grad convergence test frequency */
(PID.TID 0000.0001)                       1
(PID.TID 0000.0001)     ;
(PID.TID 0000.0001) cg2dUseMinResSol= /* use cg2d last-iter(=0) / min-resid.(=1) solution */
(PID.TID 0000.0001)                       0
(PID.TID 0000.0001)     ;
(PID.TID 0000.0001) cg2dTargetResidual =   /* 2d con. grad target residual  */
(PID.TID 0000.0001)                 1.000000000000000E-13
(PID.TID 0000.0001)     ;
(PID.TID 0000.0001) cg2dTargetResWunit =   /* CG2d target residual [W units] */
(PID.TID 0000.0001)                -1.000000000000000E+00
(PID.TID 0000.0001)     ;
(PID.TID 0000.0001) cg2dPreCondFreq =   /* Freq. for updating cg2d preconditioner */
(PID.TID 0000.0001)                       1
(PID.TID 0000.0001)     ;
(PID.TID 0000.0001) useSRCGSolver =  /* use single reduction CG solver(s) */
(PID.TID 0000.0001)                   F
(PID.TID 0000.0001)     ;
(PID.TID 0000.0001) printResidualFreq = /* Freq. for printing CG residual */
(PID.TID 0000.0001)                       1
(PID.TID 0000.0001)     ;
(PID.TID 0000.0001) //
(PID.TID 0000.0001) // Time stepping paramters ( PARM03 in namelist )
(PID.TID 0000.0001) //
(PID.TID 0000.0001) deltaTMom =   /* Momentum equation timestep ( s ) */
(PID.TID 0000.0001)                 1.800000000000000E+03
(PID.TID 0000.0001)     ;
(PID.TID 0000.0001) deltaTFreeSurf = /* FreeSurface equation timestep ( s ) */
(PID.TID 0000.0001)                 8.640000000000000E+04
(PID.TID 0000.0001)     ;
(PID.TID 0000.0001) dTtracerLev =  /* Tracer equation timestep ( s ) */
(PID.TID 0000.0001)    15 @  8.640000000000000E+04              /* K =  1: 15 */
(PID.TID 0000.0001)     ;
(PID.TID 0000.0001) deltaTClock  =   /* Model clock timestep ( s ) */
(PID.TID 0000.0001)                 8.640000000000000E+04
(PID.TID 0000.0001)     ;
(PID.TID 0000.0001) cAdjFreq =   /* Convective adjustment interval ( s ) */
(PID.TID 0000.0001)                 0.000000000000000E+00
(PID.TID 0000.0001)     ;
(PID.TID 0000.0001) momForcingOutAB = /* =1: take Momentum Forcing out of Adams-Bash. stepping */
(PID.TID 0000.0001)                       0
(PID.TID 0000.0001)     ;
(PID.TID 0000.0001) tracForcingOutAB = /* =1: take T,S,pTr Forcing out of Adams-Bash. stepping */
(PID.TID 0000.0001)                       0
(PID.TID 0000.0001)     ;
(PID.TID 0000.0001) momDissip_In_AB = /* put Dissipation Tendency in Adams-Bash. stepping */
(PID.TID 0000.0001)                   T
(PID.TID 0000.0001)     ;
(PID.TID 0000.0001) doAB_onGtGs = /* apply AB on Tendencies (rather than on T,S)*/
(PID.TID 0000.0001)                   T
(PID.TID 0000.0001)     ;
(PID.TID 0000.0001) abEps =   /* Adams-Bashforth-2 stabilizing weight */
(PID.TID 0000.0001)                 1.000000000000000E-01
(PID.TID 0000.0001)     ;
(PID.TID 0000.0001) applyExchUV_early = /* Apply EXCH to U,V earlier in time-step */
(PID.TID 0000.0001)                   F
(PID.TID 0000.0001)     ;
(PID.TID 0000.0001) tauCD =   /* CD coupling time-scale ( s ) */
(PID.TID 0000.0001)                 3.214280000000000E+05
(PID.TID 0000.0001)     ;
(PID.TID 0000.0001) rCD =   /* Normalised CD coupling parameter */
(PID.TID 0000.0001)                 9.943999900444267E-01
(PID.TID 0000.0001)     ;
(PID.TID 0000.0001) epsAB_CD = /* AB-2 stabilizing weight for CD-scheme*/
(PID.TID 0000.0001)                 1.000000000000000E-01
(PID.TID 0000.0001)     ;
(PID.TID 0000.0001) pickupStrictlyMatch= /* stop if pickup do not strictly match */
(PID.TID 0000.0001)                   T
(PID.TID 0000.0001)     ;
(PID.TID 0000.0001) nIter0   =   /* Run starting timestep number */
(PID.TID 0000.0001)                       0
(PID.TID 0000.0001)     ;
(PID.TID 0000.0001) nTimeSteps = /* Number of timesteps */
(PID.TID 0000.0001)                     100
(PID.TID 0000.0001)     ;
(PID.TID 0000.0001) nEndIter =   /* Run ending timestep number */
(PID.TID 0000.0001)                     100
(PID.TID 0000.0001)     ;
(PID.TID 0000.0001) baseTime =   /* Model base time ( s ) */
(PID.TID 0000.0001)                 0.000000000000000E+00
(PID.TID 0000.0001)     ;
(PID.TID 0000.0001) startTime =  /* Run start time ( s ) */
(PID.TID 0000.0001)                 0.000000000000000E+00
(PID.TID 0000.0001)     ;
(PID.TID 0000.0001) endTime  =   /* Integration ending time ( s ) */
(PID.TID 0000.0001)                 8.640000000000000E+06
(PID.TID 0000.0001)     ;
(PID.TID 0000.0001) pChkPtFreq = /* Permanent restart/pickup file interval ( s ) */
(PID.TID 0000.0001)                 3.110400000000000E+07
(PID.TID 0000.0001)     ;
(PID.TID 0000.0001) chkPtFreq  = /* Rolling restart/pickup file interval ( s ) */
(PID.TID 0000.0001)                 0.000000000000000E+00
(PID.TID 0000.0001)     ;
(PID.TID 0000.0001) pickup_write_mdsio =   /* Model IO flag. */
(PID.TID 0000.0001)                   T
(PID.TID 0000.0001)     ;
(PID.TID 0000.0001) pickup_read_mdsio =   /* Model IO flag. */
(PID.TID 0000.0001)                   T
(PID.TID 0000.0001)     ;
(PID.TID 0000.0001) pickup_write_mnc =   /* Model IO flag. */
(PID.TID 0000.0001)                   F
(PID.TID 0000.0001)     ;
(PID.TID 0000.0001) pickup_read_mnc =   /* Model IO flag. */
(PID.TID 0000.0001)                   F
(PID.TID 0000.0001)     ;
(PID.TID 0000.0001) writePickupAtEnd =   /* Model IO flag. */
(PID.TID 0000.0001)                   T
(PID.TID 0000.0001)     ;
(PID.TID 0000.0001) dumpFreq =   /* Model state write out interval ( s ). */
(PID.TID 0000.0001)                 8.640000000000000E+05
(PID.TID 0000.0001)     ;
(PID.TID 0000.0001) dumpInitAndLast= /* write out Initial & Last iter. model state */
(PID.TID 0000.0001)                   T
(PID.TID 0000.0001)     ;
(PID.TID 0000.0001) snapshot_mdsio =   /* Model IO flag. */
(PID.TID 0000.0001)                   T
(PID.TID 0000.0001)     ;
(PID.TID 0000.0001) snapshot_mnc =   /* Model IO flag. */
(PID.TID 0000.0001)                   F
(PID.TID 0000.0001)     ;
(PID.TID 0000.0001) monitorFreq =   /* Monitor output interval ( s ). */
(PID.TID 0000.0001)                 1.000000000000000E+00
(PID.TID 0000.0001)     ;
(PID.TID 0000.0001) monitorSelect = /* select group of variables to monitor */
(PID.TID 0000.0001)                       3
(PID.TID 0000.0001)     ;
(PID.TID 0000.0001) monitor_stdio =   /* Model IO flag. */
(PID.TID 0000.0001)                   T
(PID.TID 0000.0001)     ;
(PID.TID 0000.0001) monitor_mnc =   /* Model IO flag. */
(PID.TID 0000.0001)                   F
(PID.TID 0000.0001)     ;
(PID.TID 0000.0001) externForcingPeriod =   /* forcing period (s) */
(PID.TID 0000.0001)                 2.592000000000000E+06
(PID.TID 0000.0001)     ;
(PID.TID 0000.0001) externForcingCycle =   /* period of the cyle (s). */
(PID.TID 0000.0001)                 3.110400000000000E+07
(PID.TID 0000.0001)     ;
(PID.TID 0000.0001) tauThetaClimRelax =   /* relaxation time scale (s) */
(PID.TID 0000.0001)                 5.184000000000000E+06
(PID.TID 0000.0001)     ;
(PID.TID 0000.0001) tauSaltClimRelax =   /* relaxation time scale (s) */
(PID.TID 0000.0001)                 1.555200000000000E+07
(PID.TID 0000.0001)     ;
(PID.TID 0000.0001) latBandClimRelax =   /* max. Lat. where relaxation */
(PID.TID 0000.0001)                 1.800000000000000E+02
(PID.TID 0000.0001)     ;
(PID.TID 0000.0001) //
(PID.TID 0000.0001) // Gridding paramters ( PARM04 in namelist )
(PID.TID 0000.0001) //
(PID.TID 0000.0001) usingCartesianGrid = /* Cartesian coordinates flag ( True/False ) */
(PID.TID 0000.0001)                   F
(PID.TID 0000.0001)     ;
(PID.TID 0000.0001) usingCylindricalGrid = /* Cylindrical coordinates flag ( True/False ) */
(PID.TID 0000.0001)                   F
(PID.TID 0000.0001)     ;
(PID.TID 0000.0001) usingSphericalPolarGrid = /* Spherical coordinates flag ( True/False ) */
(PID.TID 0000.0001)                   T
(PID.TID 0000.0001)     ;
(PID.TID 0000.0001) usingCurvilinearGrid = /* Curvilinear coordinates flag ( True/False ) */
(PID.TID 0000.0001)                   F
(PID.TID 0000.0001)     ;
(PID.TID 0000.0001) useMin4hFacEdges = /* set hFacW,S as minimum of adjacent hFacC factor */
(PID.TID 0000.0001)                   F
(PID.TID 0000.0001)     ;
(PID.TID 0000.0001) interViscAr_pCell = /* account for partial-cell in interior vert. viscosity */
(PID.TID 0000.0001)                   F
(PID.TID 0000.0001)     ;
(PID.TID 0000.0001) interDiffKr_pCell = /* account for partial-cell in interior vert. diffusion */
(PID.TID 0000.0001)                   F
(PID.TID 0000.0001)     ;
(PID.TID 0000.0001) pCellMix_select = /* option to enhance mixing near surface & bottom */
(PID.TID 0000.0001)                       0
(PID.TID 0000.0001)     ;
(PID.TID 0000.0001) selectSigmaCoord = /* Hybrid-Sigma Vert. Coordinate option */
(PID.TID 0000.0001)                       0
(PID.TID 0000.0001)     ;
(PID.TID 0000.0001) rSigmaBnd = /* r/sigma transition ( units of r ==  m ) */
(PID.TID 0000.0001)                 1.234567000000000E+05
(PID.TID 0000.0001)     ;
(PID.TID 0000.0001) rkSign =   /* index orientation relative to vertical coordinate */
(PID.TID 0000.0001)                -1.000000000000000E+00
(PID.TID 0000.0001)     ;
(PID.TID 0000.0001) gravitySign = /* gravity orientation relative to vertical coordinate */
(PID.TID 0000.0001)                -1.000000000000000E+00
(PID.TID 0000.0001)     ;
(PID.TID 0000.0001) seaLev_Z =  /* reference height of sea-level [m] */
(PID.TID 0000.0001)                 0.000000000000000E+00
(PID.TID 0000.0001)     ;
(PID.TID 0000.0001) top_Pres =  /* reference pressure at the top [Pa] */
(PID.TID 0000.0001)                 0.000000000000000E+00
(PID.TID 0000.0001)     ;
(PID.TID 0000.0001) mass2rUnit = /* convert mass per unit area [kg/m2] to r-units [m] */
(PID.TID 0000.0001)                 9.661835748792270E-04
(PID.TID 0000.0001)     ;
(PID.TID 0000.0001) rUnit2mass = /* convert r-units [m] to mass per unit area [kg/m2] */
(PID.TID 0000.0001)                 1.035000000000000E+03
(PID.TID 0000.0001)     ;
(PID.TID 0000.0001) drC =   /* C spacing ( units of r ) */
(PID.TID 0000.0001)                 2.500000000000000E+01,      /* K =  1 */
(PID.TID 0000.0001)                 6.000000000000000E+01,      /* K =  2 */
(PID.TID 0000.0001)                 8.500000000000000E+01,      /* K =  3 */
(PID.TID 0000.0001)                 1.200000000000000E+02,      /* K =  4 */
(PID.TID 0000.0001)                 1.650000000000000E+02,      /* K =  5 */
(PID.TID 0000.0001)                 2.150000000000000E+02,      /* K =  6 */
(PID.TID 0000.0001)                 2.650000000000000E+02,      /* K =  7 */
(PID.TID 0000.0001)                 3.150000000000000E+02,      /* K =  8 */
(PID.TID 0000.0001)                 3.650000000000000E+02,      /* K =  9 */
(PID.TID 0000.0001)                 4.150000000000000E+02,      /* K = 10 */
(PID.TID 0000.0001)                 4.650000000000000E+02,      /* K = 11 */
(PID.TID 0000.0001)                 5.150000000000000E+02,      /* K = 12 */
(PID.TID 0000.0001)                 5.650000000000000E+02,      /* K = 13 */
(PID.TID 0000.0001)                 6.150000000000000E+02,      /* K = 14 */
(PID.TID 0000.0001)                 6.650000000000000E+02,      /* K = 15 */
(PID.TID 0000.0001)                 3.450000000000000E+02       /* K = 16 */
(PID.TID 0000.0001)     ;
(PID.TID 0000.0001) drF =   /* W spacing ( units of r ) */
(PID.TID 0000.0001)                 5.000000000000000E+01,      /* K =  1 */
(PID.TID 0000.0001)                 7.000000000000000E+01,      /* K =  2 */
(PID.TID 0000.0001)                 1.000000000000000E+02,      /* K =  3 */
(PID.TID 0000.0001)                 1.400000000000000E+02,      /* K =  4 */
(PID.TID 0000.0001)                 1.900000000000000E+02,      /* K =  5 */
(PID.TID 0000.0001)                 2.400000000000000E+02,      /* K =  6 */
(PID.TID 0000.0001)                 2.900000000000000E+02,      /* K =  7 */
(PID.TID 0000.0001)                 3.400000000000000E+02,      /* K =  8 */
(PID.TID 0000.0001)                 3.900000000000000E+02,      /* K =  9 */
(PID.TID 0000.0001)                 4.400000000000000E+02,      /* K = 10 */
(PID.TID 0000.0001)                 4.900000000000000E+02,      /* K = 11 */
(PID.TID 0000.0001)                 5.400000000000000E+02,      /* K = 12 */
(PID.TID 0000.0001)                 5.900000000000000E+02,      /* K = 13 */
(PID.TID 0000.0001)                 6.400000000000000E+02,      /* K = 14 */
(PID.TID 0000.0001)                 6.900000000000000E+02       /* K = 15 */
(PID.TID 0000.0001)     ;
(PID.TID 0000.0001) delX = /* U spacing ( m - cartesian, degrees - spherical ) */
(PID.TID 0000.0001)    90 @  4.000000000000000E+00              /* I =  1: 90 */
(PID.TID 0000.0001)     ;
(PID.TID 0000.0001) delY = /* V spacing ( m - cartesian, degrees - spherical ) */
(PID.TID 0000.0001)    40 @  4.000000000000000E+00              /* J =  1: 40 */
(PID.TID 0000.0001)     ;
(PID.TID 0000.0001) xgOrigin = /* X-axis origin of West  edge (cartesian: m, lat-lon: deg) */
(PID.TID 0000.0001)                 0.000000000000000E+00
(PID.TID 0000.0001)     ;
(PID.TID 0000.0001) ygOrigin = /* Y-axis origin of South edge (cartesian: m, lat-lon: deg) */
(PID.TID 0000.0001)                -8.000000000000000E+01
(PID.TID 0000.0001)     ;
(PID.TID 0000.0001) rSphere =  /* Radius ( ignored - cartesian, m - spherical ) */
(PID.TID 0000.0001)                 6.370000000000000E+06
(PID.TID 0000.0001)     ;
(PID.TID 0000.0001) deepAtmosphere = /* Deep/Shallow Atmosphere flag (True/False) */
(PID.TID 0000.0001)                   F
(PID.TID 0000.0001)     ;
(PID.TID 0000.0001) xC =  /* xC(:,1,:,1) : P-point X coord ( deg. or m if cartesian) */
(PID.TID 0000.0001)                 2.000000000000000E+00,      /* I =  1 */
(PID.TID 0000.0001)                 6.000000000000000E+00,      /* I =  2 */
(PID.TID 0000.0001)                 1.000000000000000E+01,      /* I =  3 */
(PID.TID 0000.0001)      . . .
(PID.TID 0000.0001)                 8.200000000000000E+01,      /* I = 21 */
(PID.TID 0000.0001)                 8.600000000000000E+01,      /* I = 22 */
(PID.TID 0000.0001)                 9.000000000000000E+01,      /* I = 23 */
(PID.TID 0000.0001)                 9.400000000000000E+01,      /* I = 24 */
(PID.TID 0000.0001)                 9.800000000000000E+01,      /* I = 25 */
(PID.TID 0000.0001)                 1.020000000000000E+02,      /* I = 26 */
(PID.TID 0000.0001)      . . .
(PID.TID 0000.0001)                 1.700000000000000E+02,      /* I = 43 */
(PID.TID 0000.0001)                 1.740000000000000E+02,      /* I = 44 */
(PID.TID 0000.0001)                 1.780000000000000E+02,      /* I = 45 */
(PID.TID 0000.0001)                 1.820000000000000E+02,      /* I = 46 */
(PID.TID 0000.0001)                 1.860000000000000E+02,      /* I = 47 */
(PID.TID 0000.0001)                 1.900000000000000E+02,      /* I = 48 */
(PID.TID 0000.0001)      . . .
(PID.TID 0000.0001)                 2.580000000000000E+02,      /* I = 65 */
(PID.TID 0000.0001)                 2.620000000000000E+02,      /* I = 66 */
(PID.TID 0000.0001)                 2.660000000000000E+02,      /* I = 67 */
(PID.TID 0000.0001)                 2.700000000000000E+02,      /* I = 68 */
(PID.TID 0000.0001)                 2.740000000000000E+02,      /* I = 69 */
(PID.TID 0000.0001)                 2.780000000000000E+02,      /* I = 70 */
(PID.TID 0000.0001)      . . .
(PID.TID 0000.0001)                 3.500000000000000E+02,      /* I = 88 */
(PID.TID 0000.0001)                 3.540000000000000E+02,      /* I = 89 */
(PID.TID 0000.0001)                 3.580000000000000E+02       /* I = 90 */
(PID.TID 0000.0001)     ;
(PID.TID 0000.0001) yC =  /* yC(1,:,1,:) : P-point Y coord ( deg. or m if cartesian) */
(PID.TID 0000.0001)                -7.800000000000000E+01,      /* J =  1 */
(PID.TID 0000.0001)                -7.400000000000000E+01,      /* J =  2 */
(PID.TID 0000.0001)                -7.000000000000000E+01,      /* J =  3 */
(PID.TID 0000.0001)                -6.600000000000000E+01,      /* J =  4 */
(PID.TID 0000.0001)                -6.200000000000000E+01,      /* J =  5 */
(PID.TID 0000.0001)                -5.800000000000000E+01,      /* J =  6 */
(PID.TID 0000.0001)                -5.400000000000000E+01,      /* J =  7 */
(PID.TID 0000.0001)                -5.000000000000000E+01,      /* J =  8 */
(PID.TID 0000.0001)                -4.600000000000000E+01,      /* J =  9 */
(PID.TID 0000.0001)                -4.200000000000000E+01,      /* J = 10 */
(PID.TID 0000.0001)                -3.800000000000000E+01,      /* J = 11 */
(PID.TID 0000.0001)                -3.400000000000000E+01,      /* J = 12 */
(PID.TID 0000.0001)                -3.000000000000000E+01,      /* J = 13 */
(PID.TID 0000.0001)                -2.600000000000000E+01,      /* J = 14 */
(PID.TID 0000.0001)                -2.200000000000000E+01,      /* J = 15 */
(PID.TID 0000.0001)                -1.800000000000000E+01,      /* J = 16 */
(PID.TID 0000.0001)                -1.400000000000000E+01,      /* J = 17 */
(PID.TID 0000.0001)                -1.000000000000000E+01,      /* J = 18 */
(PID.TID 0000.0001)                -6.000000000000000E+00,      /* J = 19 */
(PID.TID 0000.0001)                -2.000000000000000E+00,      /* J = 20 */
(PID.TID 0000.0001)                 2.000000000000000E+00,      /* J = 21 */
(PID.TID 0000.0001)                 6.000000000000000E+00,      /* J = 22 */
(PID.TID 0000.0001)                 1.000000000000000E+01,      /* J = 23 */
(PID.TID 0000.0001)                 1.400000000000000E+01,      /* J = 24 */
(PID.TID 0000.0001)                 1.800000000000000E+01,      /* J = 25 */
(PID.TID 0000.0001)                 2.200000000000000E+01,      /* J = 26 */
(PID.TID 0000.0001)                 2.600000000000000E+01,      /* J = 27 */
(PID.TID 0000.0001)                 3.000000000000000E+01,      /* J = 28 */
(PID.TID 0000.0001)                 3.400000000000000E+01,      /* J = 29 */
(PID.TID 0000.0001)                 3.800000000000000E+01,      /* J = 30 */
(PID.TID 0000.0001)                 4.200000000000000E+01,      /* J = 31 */
(PID.TID 0000.0001)                 4.600000000000000E+01,      /* J = 32 */
(PID.TID 0000.0001)                 5.000000000000000E+01,      /* J = 33 */
(PID.TID 0000.0001)                 5.400000000000000E+01,      /* J = 34 */
(PID.TID 0000.0001)                 5.800000000000000E+01,      /* J = 35 */
(PID.TID 0000.0001)                 6.200000000000000E+01,      /* J = 36 */
(PID.TID 0000.0001)                 6.600000000000000E+01,      /* J = 37 */
(PID.TID 0000.0001)                 7.000000000000000E+01,      /* J = 38 */
(PID.TID 0000.0001)                 7.400000000000000E+01,      /* J = 39 */
(PID.TID 0000.0001)                 7.800000000000000E+01       /* J = 40 */
(PID.TID 0000.0001)     ;
(PID.TID 0000.0001) rcoord = /* P-point R coordinate (  units of r ) */
(PID.TID 0000.0001)                -2.500000000000000E+01,      /* K =  1 */
(PID.TID 0000.0001)                -8.500000000000000E+01,      /* K =  2 */
(PID.TID 0000.0001)                -1.700000000000000E+02,      /* K =  3 */
(PID.TID 0000.0001)                -2.900000000000000E+02,      /* K =  4 */
(PID.TID 0000.0001)                -4.550000000000000E+02,      /* K =  5 */
(PID.TID 0000.0001)                -6.700000000000000E+02,      /* K =  6 */
(PID.TID 0000.0001)                -9.350000000000000E+02,      /* K =  7 */
(PID.TID 0000.0001)                -1.250000000000000E+03,      /* K =  8 */
(PID.TID 0000.0001)                -1.615000000000000E+03,      /* K =  9 */
(PID.TID 0000.0001)                -2.030000000000000E+03,      /* K = 10 */
(PID.TID 0000.0001)                -2.495000000000000E+03,      /* K = 11 */
(PID.TID 0000.0001)                -3.010000000000000E+03,      /* K = 12 */
(PID.TID 0000.0001)                -3.575000000000000E+03,      /* K = 13 */
(PID.TID 0000.0001)                -4.190000000000000E+03,      /* K = 14 */
(PID.TID 0000.0001)                -4.855000000000000E+03       /* K = 15 */
(PID.TID 0000.0001)     ;
(PID.TID 0000.0001) rF =   /* W-Interf. R coordinate (  units of r ) */
(PID.TID 0000.0001)                 0.000000000000000E+00,      /* K =  1 */
(PID.TID 0000.0001)                -5.000000000000000E+01,      /* K =  2 */
(PID.TID 0000.0001)                -1.200000000000000E+02,      /* K =  3 */
(PID.TID 0000.0001)                -2.200000000000000E+02,      /* K =  4 */
(PID.TID 0000.0001)                -3.600000000000000E+02,      /* K =  5 */
(PID.TID 0000.0001)                -5.500000000000000E+02,      /* K =  6 */
(PID.TID 0000.0001)                -7.900000000000000E+02,      /* K =  7 */
(PID.TID 0000.0001)                -1.080000000000000E+03,      /* K =  8 */
(PID.TID 0000.0001)                -1.420000000000000E+03,      /* K =  9 */
(PID.TID 0000.0001)                -1.810000000000000E+03,      /* K = 10 */
(PID.TID 0000.0001)                -2.250000000000000E+03,      /* K = 11 */
(PID.TID 0000.0001)                -2.740000000000000E+03,      /* K = 12 */
(PID.TID 0000.0001)                -3.280000000000000E+03,      /* K = 13 */
(PID.TID 0000.0001)                -3.870000000000000E+03,      /* K = 14 */
(PID.TID 0000.0001)                -4.510000000000000E+03,      /* K = 15 */
(PID.TID 0000.0001)                -5.200000000000000E+03       /* K = 16 */
(PID.TID 0000.0001)     ;
(PID.TID 0000.0001) deepFacC = /* deep-model grid factor @ cell-Center (-) */
(PID.TID 0000.0001)    15 @  1.000000000000000E+00              /* K =  1: 15 */
(PID.TID 0000.0001)     ;
(PID.TID 0000.0001) deepFacF = /* deep-model grid factor @ W-Interface (-) */
(PID.TID 0000.0001)    16 @  1.000000000000000E+00              /* K =  1: 16 */
(PID.TID 0000.0001)     ;
(PID.TID 0000.0001) rVel2wUnit = /* convert units: rVel -> wSpeed (=1 if z-coord)*/
(PID.TID 0000.0001)    16 @  1.000000000000000E+00              /* K =  1: 16 */
(PID.TID 0000.0001)     ;
(PID.TID 0000.0001) wUnit2rVel = /* convert units: wSpeed -> rVel (=1 if z-coord)*/
(PID.TID 0000.0001)    16 @  1.000000000000000E+00              /* K =  1: 16 */
(PID.TID 0000.0001)     ;
(PID.TID 0000.0001) dBdrRef = /* Vertical grad. of reference buoyancy [(m/s/r)^2] */
(PID.TID 0000.0001)    15 @  0.000000000000000E+00              /* K =  1: 15 */
(PID.TID 0000.0001)     ;
(PID.TID 0000.0001) rotateGrid = /* use rotated grid ( True/False ) */
(PID.TID 0000.0001)                   F
(PID.TID 0000.0001)     ;
(PID.TID 0000.0001) phiEuler = /* Euler angle, rotation about original z-coordinate [rad] */
(PID.TID 0000.0001)                 0.000000000000000E+00
(PID.TID 0000.0001)     ;
(PID.TID 0000.0001) thetaEuler = /* Euler angle, rotation about new x-coordinate [rad] */
(PID.TID 0000.0001)                 0.000000000000000E+00
(PID.TID 0000.0001)     ;
(PID.TID 0000.0001) psiEuler = /* Euler angle, rotation about new z-coordinate [rad] */
(PID.TID 0000.0001)                 0.000000000000000E+00
(PID.TID 0000.0001)     ;
(PID.TID 0000.0001) dxF =  /* dxF(:,1,:,1) ( units: m ) */
(PID.TID 0000.0001)    90 @  9.246038586187513E+04              /* I =  1: 90 */
(PID.TID 0000.0001)     ;
(PID.TID 0000.0001) dxF =  /* dxF(1,:,1,:) ( units: m ) */
(PID.TID 0000.0001)                 9.246038586187513E+04,      /* J =  1 */
(PID.TID 0000.0001)                 1.225786591246834E+05,      /* J =  2 */
(PID.TID 0000.0001)                 1.520997414818001E+05,      /* J =  3 */
(PID.TID 0000.0001)                 1.808798091874300E+05,      /* J =  4 */
(PID.TID 0000.0001)                 2.087786486446736E+05,      /* J =  5 */
(PID.TID 0000.0001)                 2.356603395120765E+05,      /* J =  6 */
(PID.TID 0000.0001)                 2.613939168938713E+05,      /* J =  7 */
(PID.TID 0000.0001)                 2.858540093877838E+05,      /* J =  8 */
(PID.TID 0000.0001)                 3.089214498819034E+05,      /* J =  9 */
(PID.TID 0000.0001)                 3.304838561248741E+05,      /* J = 10 */
(PID.TID 0000.0001)                 3.504361782409254E+05,      /* J = 11 */
(PID.TID 0000.0001)                 3.686812105223082E+05,      /* J = 12 */
(PID.TID 0000.0001)                 3.851300650057323E+05,      /* J = 13 */
(PID.TID 0000.0001)                 3.997026045255871E+05,      /* J = 14 */
(PID.TID 0000.0001)                 4.123278331341585E+05,      /* J = 15 */
(PID.TID 0000.0001)                 4.229442419867491E+05,      /* J = 16 */
(PID.TID 0000.0001)                 4.315001090065870E+05,      /* J = 17 */
(PID.TID 0000.0001)                 4.379537508695838E+05,      /* J = 18 */
(PID.TID 0000.0001)                 4.422737260813012E+05,      /* J = 19 */
(PID.TID 0000.0001)     2 @  4.444389881567502E+05,             /* J = 20: 21 */
(PID.TID 0000.0001)                 4.422737260813012E+05,      /* J = 22 */
(PID.TID 0000.0001)                 4.379537508695838E+05,      /* J = 23 */
(PID.TID 0000.0001)                 4.315001090065870E+05,      /* J = 24 */
(PID.TID 0000.0001)                 4.229442419867491E+05,      /* J = 25 */
(PID.TID 0000.0001)                 4.123278331341585E+05,      /* J = 26 */
(PID.TID 0000.0001)                 3.997026045255871E+05,      /* J = 27 */
(PID.TID 0000.0001)                 3.851300650057323E+05,      /* J = 28 */
(PID.TID 0000.0001)                 3.686812105223082E+05,      /* J = 29 */
(PID.TID 0000.0001)                 3.504361782409254E+05,      /* J = 30 */
(PID.TID 0000.0001)                 3.304838561248741E+05,      /* J = 31 */
(PID.TID 0000.0001)                 3.089214498819034E+05,      /* J = 32 */
(PID.TID 0000.0001)                 2.858540093877838E+05,      /* J = 33 */
(PID.TID 0000.0001)                 2.613939168938713E+05,      /* J = 34 */
(PID.TID 0000.0001)                 2.356603395120765E+05,      /* J = 35 */
(PID.TID 0000.0001)                 2.087786486446736E+05,      /* J = 36 */
(PID.TID 0000.0001)                 1.808798091874300E+05,      /* J = 37 */
(PID.TID 0000.0001)                 1.520997414818001E+05,      /* J = 38 */
(PID.TID 0000.0001)                 1.225786591246834E+05,      /* J = 39 */
(PID.TID 0000.0001)                 9.246038586187513E+04       /* J = 40 */
(PID.TID 0000.0001)     ;
(PID.TID 0000.0001) dyF =  /* dyF(:,1,:,1) ( units: m ) */
(PID.TID 0000.0001)    90 @  4.447098934081552E+05              /* I =  1: 90 */
(PID.TID 0000.0001)     ;
(PID.TID 0000.0001) dyF =  /* dyF(1,:,1,:) ( units: m ) */
(PID.TID 0000.0001)    40 @  4.447098934081552E+05              /* J =  1: 40 */
(PID.TID 0000.0001)     ;
(PID.TID 0000.0001) dxG =  /* dxG(:,1,:,1) ( units: m ) */
(PID.TID 0000.0001)    90 @  7.722306258078101E+04              /* I =  1: 90 */
(PID.TID 0000.0001)     ;
(PID.TID 0000.0001) dxG =  /* dxG(1,:,1,:) ( units: m ) */
(PID.TID 0000.0001)                 7.722306258078101E+04,      /* J =  1 */
(PID.TID 0000.0001)                 1.075850604052271E+05,      /* J =  2 */
(PID.TID 0000.0001)                 1.374229146297914E+05,      /* J =  3 */
(PID.TID 0000.0001)                 1.665912582279823E+05,      /* J =  4 */
(PID.TID 0000.0001)                 1.949479859617814E+05,      /* J =  5 */
(PID.TID 0000.0001)                 2.223549467040777E+05,      /* J =  6 */
(PID.TID 0000.0001)                 2.486786164970726E+05,      /* J =  7 */
(PID.TID 0000.0001)                 2.737907490675810E+05,      /* J =  8 */
(PID.TID 0000.0001)                 2.975690006299821E+05,      /* J =  9 */
(PID.TID 0000.0001)                 3.198975259328452E+05,      /* J = 10 */
(PID.TID 0000.0001)                 3.406675426453503E+05,      /* J = 11 */
(PID.TID 0000.0001)                 3.597778613338690E+05,      /* J = 12 */
(PID.TID 0000.0001)                 3.771353784467131E+05,      /* J = 13 */
(PID.TID 0000.0001)                 3.926555299052806E+05,      /* J = 14 */
(PID.TID 0000.0001)                 4.062627030917454E+05,      /* J = 15 */
(PID.TID 0000.0001)                 4.178906052261313E+05,      /* J = 16 */
(PID.TID 0000.0001)                 4.274825863380723E+05,      /* J = 17 */
(PID.TID 0000.0001)                 4.349919152597734E+05,      /* J = 18 */
(PID.TID 0000.0001)                 4.403820072955634E+05,      /* J = 19 */
(PID.TID 0000.0001)                 4.436266024588540E+05,      /* J = 20 */
(PID.TID 0000.0001)                 4.447098934081552E+05,      /* J = 21 */
(PID.TID 0000.0001)                 4.436266024588540E+05,      /* J = 22 */
(PID.TID 0000.0001)                 4.403820072955634E+05,      /* J = 23 */
(PID.TID 0000.0001)                 4.349919152597734E+05,      /* J = 24 */
(PID.TID 0000.0001)                 4.274825863380723E+05,      /* J = 25 */
(PID.TID 0000.0001)                 4.178906052261313E+05,      /* J = 26 */
(PID.TID 0000.0001)                 4.062627030917454E+05,      /* J = 27 */
(PID.TID 0000.0001)                 3.926555299052806E+05,      /* J = 28 */
(PID.TID 0000.0001)                 3.771353784467131E+05,      /* J = 29 */
(PID.TID 0000.0001)                 3.597778613338690E+05,      /* J = 30 */
(PID.TID 0000.0001)                 3.406675426453503E+05,      /* J = 31 */
(PID.TID 0000.0001)                 3.198975259328452E+05,      /* J = 32 */
(PID.TID 0000.0001)                 2.975690006299821E+05,      /* J = 33 */
(PID.TID 0000.0001)                 2.737907490675810E+05,      /* J = 34 */
(PID.TID 0000.0001)                 2.486786164970726E+05,      /* J = 35 */
(PID.TID 0000.0001)                 2.223549467040777E+05,      /* J = 36 */
(PID.TID 0000.0001)                 1.949479859617814E+05,      /* J = 37 */
(PID.TID 0000.0001)                 1.665912582279823E+05,      /* J = 38 */
(PID.TID 0000.0001)                 1.374229146297914E+05,      /* J = 39 */
(PID.TID 0000.0001)                 1.075850604052271E+05       /* J = 40 */
(PID.TID 0000.0001)     ;
(PID.TID 0000.0001) dyG =  /* dyG(:,1,:,1) ( units: m ) */
(PID.TID 0000.0001)    90 @  4.447098934081552E+05              /* I =  1: 90 */
(PID.TID 0000.0001)     ;
(PID.TID 0000.0001) dyG =  /* dyG(1,:,1,:) ( units: m ) */
(PID.TID 0000.0001)    40 @  4.447098934081552E+05              /* J =  1: 40 */
(PID.TID 0000.0001)     ;
(PID.TID 0000.0001) dxC =  /* dxC(:,1,:,1) ( units: m ) */
(PID.TID 0000.0001)    90 @  9.246038586187513E+04              /* I =  1: 90 */
(PID.TID 0000.0001)     ;
(PID.TID 0000.0001) dxC =  /* dxC(1,:,1,:) ( units: m ) */
(PID.TID 0000.0001)                 9.246038586187513E+04,      /* J =  1 */
(PID.TID 0000.0001)                 1.225786591246834E+05,      /* J =  2 */
(PID.TID 0000.0001)                 1.520997414818001E+05,      /* J =  3 */
(PID.TID 0000.0001)                 1.808798091874300E+05,      /* J =  4 */
(PID.TID 0000.0001)                 2.087786486446736E+05,      /* J =  5 */
(PID.TID 0000.0001)                 2.356603395120765E+05,      /* J =  6 */
(PID.TID 0000.0001)                 2.613939168938713E+05,      /* J =  7 */
(PID.TID 0000.0001)                 2.858540093877838E+05,      /* J =  8 */
(PID.TID 0000.0001)                 3.089214498819034E+05,      /* J =  9 */
(PID.TID 0000.0001)                 3.304838561248741E+05,      /* J = 10 */
(PID.TID 0000.0001)                 3.504361782409254E+05,      /* J = 11 */
(PID.TID 0000.0001)                 3.686812105223082E+05,      /* J = 12 */
(PID.TID 0000.0001)                 3.851300650057323E+05,      /* J = 13 */
(PID.TID 0000.0001)                 3.997026045255871E+05,      /* J = 14 */
(PID.TID 0000.0001)                 4.123278331341585E+05,      /* J = 15 */
(PID.TID 0000.0001)                 4.229442419867491E+05,      /* J = 16 */
(PID.TID 0000.0001)                 4.315001090065870E+05,      /* J = 17 */
(PID.TID 0000.0001)                 4.379537508695838E+05,      /* J = 18 */
(PID.TID 0000.0001)                 4.422737260813012E+05,      /* J = 19 */
(PID.TID 0000.0001)     2 @  4.444389881567502E+05,             /* J = 20: 21 */
(PID.TID 0000.0001)                 4.422737260813012E+05,      /* J = 22 */
(PID.TID 0000.0001)                 4.379537508695838E+05,      /* J = 23 */
(PID.TID 0000.0001)                 4.315001090065870E+05,      /* J = 24 */
(PID.TID 0000.0001)                 4.229442419867491E+05,      /* J = 25 */
(PID.TID 0000.0001)                 4.123278331341585E+05,      /* J = 26 */
(PID.TID 0000.0001)                 3.997026045255871E+05,      /* J = 27 */
(PID.TID 0000.0001)                 3.851300650057323E+05,      /* J = 28 */
(PID.TID 0000.0001)                 3.686812105223082E+05,      /* J = 29 */
(PID.TID 0000.0001)                 3.504361782409254E+05,      /* J = 30 */
(PID.TID 0000.0001)                 3.304838561248741E+05,      /* J = 31 */
(PID.TID 0000.0001)                 3.089214498819034E+05,      /* J = 32 */
(PID.TID 0000.0001)                 2.858540093877838E+05,      /* J = 33 */
(PID.TID 0000.0001)                 2.613939168938713E+05,      /* J = 34 */
(PID.TID 0000.0001)                 2.356603395120765E+05,      /* J = 35 */
(PID.TID 0000.0001)                 2.087786486446736E+05,      /* J = 36 */
(PID.TID 0000.0001)                 1.808798091874300E+05,      /* J = 37 */
(PID.TID 0000.0001)                 1.520997414818001E+05,      /* J = 38 */
(PID.TID 0000.0001)                 1.225786591246834E+05,      /* J = 39 */
(PID.TID 0000.0001)                 9.246038586187513E+04       /* J = 40 */
(PID.TID 0000.0001)     ;
(PID.TID 0000.0001) dyC =  /* dyC(:,1,:,1) ( units: m ) */
(PID.TID 0000.0001)    90 @  4.447098934081552E+05              /* I =  1: 90 */
(PID.TID 0000.0001)     ;
(PID.TID 0000.0001) dyC =  /* dyC(1,:,1,:) ( units: m ) */
(PID.TID 0000.0001)    40 @  4.447098934081552E+05              /* J =  1: 40 */
(PID.TID 0000.0001)     ;
(PID.TID 0000.0001) dxV =  /* dxV(:,1,:,1) ( units: m ) */
(PID.TID 0000.0001)    90 @  7.722306258078101E+04              /* I =  1: 90 */
(PID.TID 0000.0001)     ;
(PID.TID 0000.0001) dxV =  /* dxV(1,:,1,:) ( units: m ) */
(PID.TID 0000.0001)                 7.722306258078101E+04,      /* J =  1 */
(PID.TID 0000.0001)                 1.075850604052271E+05,      /* J =  2 */
(PID.TID 0000.0001)                 1.374229146297914E+05,      /* J =  3 */
(PID.TID 0000.0001)                 1.665912582279823E+05,      /* J =  4 */
(PID.TID 0000.0001)                 1.949479859617814E+05,      /* J =  5 */
(PID.TID 0000.0001)                 2.223549467040777E+05,      /* J =  6 */
(PID.TID 0000.0001)                 2.486786164970726E+05,      /* J =  7 */
(PID.TID 0000.0001)                 2.737907490675810E+05,      /* J =  8 */
(PID.TID 0000.0001)                 2.975690006299821E+05,      /* J =  9 */
(PID.TID 0000.0001)                 3.198975259328452E+05,      /* J = 10 */
(PID.TID 0000.0001)                 3.406675426453503E+05,      /* J = 11 */
(PID.TID 0000.0001)                 3.597778613338690E+05,      /* J = 12 */
(PID.TID 0000.0001)                 3.771353784467131E+05,      /* J = 13 */
(PID.TID 0000.0001)                 3.926555299052806E+05,      /* J = 14 */
(PID.TID 0000.0001)                 4.062627030917454E+05,      /* J = 15 */
(PID.TID 0000.0001)                 4.178906052261313E+05,      /* J = 16 */
(PID.TID 0000.0001)                 4.274825863380723E+05,      /* J = 17 */
(PID.TID 0000.0001)                 4.349919152597734E+05,      /* J = 18 */
(PID.TID 0000.0001)                 4.403820072955634E+05,      /* J = 19 */
(PID.TID 0000.0001)                 4.436266024588540E+05,      /* J = 20 */
(PID.TID 0000.0001)                 4.447098934081552E+05,      /* J = 21 */
(PID.TID 0000.0001)                 4.436266024588540E+05,      /* J = 22 */
(PID.TID 0000.0001)                 4.403820072955634E+05,      /* J = 23 */
(PID.TID 0000.0001)                 4.349919152597734E+05,      /* J = 24 */
(PID.TID 0000.0001)                 4.274825863380723E+05,      /* J = 25 */
(PID.TID 0000.0001)                 4.178906052261313E+05,      /* J = 26 */
(PID.TID 0000.0001)                 4.062627030917454E+05,      /* J = 27 */
(PID.TID 0000.0001)                 3.926555299052806E+05,      /* J = 28 */
(PID.TID 0000.0001)                 3.771353784467131E+05,      /* J = 29 */
(PID.TID 0000.0001)                 3.597778613338690E+05,      /* J = 30 */
(PID.TID 0000.0001)                 3.406675426453503E+05,      /* J = 31 */
(PID.TID 0000.0001)                 3.198975259328452E+05,      /* J = 32 */
(PID.TID 0000.0001)                 2.975690006299821E+05,      /* J = 33 */
(PID.TID 0000.0001)                 2.737907490675810E+05,      /* J = 34 */
(PID.TID 0000.0001)                 2.486786164970726E+05,      /* J = 35 */
(PID.TID 0000.0001)                 2.223549467040777E+05,      /* J = 36 */
(PID.TID 0000.0001)                 1.949479859617814E+05,      /* J = 37 */
(PID.TID 0000.0001)                 1.665912582279823E+05,      /* J = 38 */
(PID.TID 0000.0001)                 1.374229146297914E+05,      /* J = 39 */
(PID.TID 0000.0001)                 1.075850604052271E+05       /* J = 40 */
(PID.TID 0000.0001)     ;
(PID.TID 0000.0001) dyU =  /* dyU(:,1,:,1) ( units: m ) */
(PID.TID 0000.0001)    90 @  4.447098934081552E+05              /* I =  1: 90 */
(PID.TID 0000.0001)     ;
(PID.TID 0000.0001) dyU =  /* dyU(1,:,1,:) ( units: m ) */
(PID.TID 0000.0001)    40 @  4.447098934081552E+05              /* J =  1: 40 */
(PID.TID 0000.0001)     ;
(PID.TID 0000.0001) rA  =  /* rA (:,1,:,1) ( units: m^2 ) */
(PID.TID 0000.0001)    90 @  4.110969866729047E+10              /* I =  1: 90 */
(PID.TID 0000.0001)     ;
(PID.TID 0000.0001) rA  =  /* rA (1,:,1,:) ( units: m^2 ) */
(PID.TID 0000.0001)                 4.110969866729047E+10,      /* J =  1 */
(PID.TID 0000.0001)                 5.450087291636665E+10,      /* J =  2 */
(PID.TID 0000.0001)                 6.762652439100235E+10,      /* J =  3 */
(PID.TID 0000.0001)                 8.042270623659998E+10,      /* J =  4 */
(PID.TID 0000.0001)                 9.282707674147523E+10,      /* J =  5 */
(PID.TID 0000.0001)                 1.047792030594103E+11,      /* J =  6 */
(PID.TID 0000.0001)                 1.162208556324093E+11,      /* J =  7 */
(PID.TID 0000.0001)                 1.270962918792468E+11,      /* J =  8 */
(PID.TID 0000.0001)                 1.373525277677229E+11,      /* J =  9 */
(PID.TID 0000.0001)                 1.469395959475426E+11,      /* J = 10 */
(PID.TID 0000.0001)                 1.558107891862220E+11,      /* J = 11 */
(PID.TID 0000.0001)                 1.639228879220326E+11,      /* J = 12 */
(PID.TID 0000.0001)                 1.712363708253573E+11,      /* J = 13 */
(PID.TID 0000.0001)                 1.777156073426415E+11,      /* J = 14 */
(PID.TID 0000.0001)                 1.833290312848623E+11,      /* J = 15 */
(PID.TID 0000.0001)                 1.880492946148330E+11,      /* J = 16 */
(PID.TID 0000.0001)                 1.918534006840893E+11,      /* J = 17 */
(PID.TID 0000.0001)                 1.947228162702492E+11,      /* J = 18 */
(PID.TID 0000.0001)                 1.966435618690094E+11,      /* J = 19 */
(PID.TID 0000.0001)     2 @  1.976062798008856E+11,             /* J = 20: 21 */
(PID.TID 0000.0001)                 1.966435618690094E+11,      /* J = 22 */
(PID.TID 0000.0001)                 1.947228162702492E+11,      /* J = 23 */
(PID.TID 0000.0001)                 1.918534006840893E+11,      /* J = 24 */
(PID.TID 0000.0001)                 1.880492946148330E+11,      /* J = 25 */
(PID.TID 0000.0001)                 1.833290312848623E+11,      /* J = 26 */
(PID.TID 0000.0001)                 1.777156073426415E+11,      /* J = 27 */
(PID.TID 0000.0001)                 1.712363708253573E+11,      /* J = 28 */
(PID.TID 0000.0001)                 1.639228879220326E+11,      /* J = 29 */
(PID.TID 0000.0001)                 1.558107891862220E+11,      /* J = 30 */
(PID.TID 0000.0001)                 1.469395959475426E+11,      /* J = 31 */
(PID.TID 0000.0001)                 1.373525277677229E+11,      /* J = 32 */
(PID.TID 0000.0001)                 1.270962918792468E+11,      /* J = 33 */
(PID.TID 0000.0001)                 1.162208556324093E+11,      /* J = 34 */
(PID.TID 0000.0001)                 1.047792030594103E+11,      /* J = 35 */
(PID.TID 0000.0001)                 9.282707674147523E+10,      /* J = 36 */
(PID.TID 0000.0001)                 8.042270623659998E+10,      /* J = 37 */
(PID.TID 0000.0001)                 6.762652439100235E+10,      /* J = 38 */
(PID.TID 0000.0001)                 5.450087291636665E+10,      /* J = 39 */
(PID.TID 0000.0001)                 4.110969866729047E+10       /* J = 40 */
(PID.TID 0000.0001)     ;
(PID.TID 0000.0001) rAw =  /* rAw(:,1,:,1) ( units: m^2 ) */
(PID.TID 0000.0001)    90 @  4.110969866729047E+10              /* I =  1: 90 */
(PID.TID 0000.0001)     ;
(PID.TID 0000.0001) rAw =  /* rAw(1,:,1,:) ( units: m^2 ) */
(PID.TID 0000.0001)                 4.110969866729047E+10,      /* J =  1 */
(PID.TID 0000.0001)                 5.450087291636665E+10,      /* J =  2 */
(PID.TID 0000.0001)                 6.762652439100235E+10,      /* J =  3 */
(PID.TID 0000.0001)                 8.042270623659998E+10,      /* J =  4 */
(PID.TID 0000.0001)                 9.282707674147523E+10,      /* J =  5 */
(PID.TID 0000.0001)                 1.047792030594103E+11,      /* J =  6 */
(PID.TID 0000.0001)                 1.162208556324093E+11,      /* J =  7 */
(PID.TID 0000.0001)                 1.270962918792468E+11,      /* J =  8 */
(PID.TID 0000.0001)                 1.373525277677229E+11,      /* J =  9 */
(PID.TID 0000.0001)                 1.469395959475426E+11,      /* J = 10 */
(PID.TID 0000.0001)                 1.558107891862220E+11,      /* J = 11 */
(PID.TID 0000.0001)                 1.639228879220326E+11,      /* J = 12 */
(PID.TID 0000.0001)                 1.712363708253573E+11,      /* J = 13 */
(PID.TID 0000.0001)                 1.777156073426415E+11,      /* J = 14 */
(PID.TID 0000.0001)                 1.833290312848623E+11,      /* J = 15 */
(PID.TID 0000.0001)                 1.880492946148330E+11,      /* J = 16 */
(PID.TID 0000.0001)                 1.918534006840893E+11,      /* J = 17 */
(PID.TID 0000.0001)                 1.947228162702492E+11,      /* J = 18 */
(PID.TID 0000.0001)                 1.966435618690094E+11,      /* J = 19 */
(PID.TID 0000.0001)     2 @  1.976062798008856E+11,             /* J = 20: 21 */
(PID.TID 0000.0001)                 1.966435618690094E+11,      /* J = 22 */
(PID.TID 0000.0001)                 1.947228162702492E+11,      /* J = 23 */
(PID.TID 0000.0001)                 1.918534006840893E+11,      /* J = 24 */
(PID.TID 0000.0001)                 1.880492946148330E+11,      /* J = 25 */
(PID.TID 0000.0001)                 1.833290312848623E+11,      /* J = 26 */
(PID.TID 0000.0001)                 1.777156073426415E+11,      /* J = 27 */
(PID.TID 0000.0001)                 1.712363708253573E+11,      /* J = 28 */
(PID.TID 0000.0001)                 1.639228879220326E+11,      /* J = 29 */
(PID.TID 0000.0001)                 1.558107891862220E+11,      /* J = 30 */
(PID.TID 0000.0001)                 1.469395959475426E+11,      /* J = 31 */
(PID.TID 0000.0001)                 1.373525277677229E+11,      /* J = 32 */
(PID.TID 0000.0001)                 1.270962918792468E+11,      /* J = 33 */
(PID.TID 0000.0001)                 1.162208556324093E+11,      /* J = 34 */
(PID.TID 0000.0001)                 1.047792030594103E+11,      /* J = 35 */
(PID.TID 0000.0001)                 9.282707674147523E+10,      /* J = 36 */
(PID.TID 0000.0001)                 8.042270623659998E+10,      /* J = 37 */
(PID.TID 0000.0001)                 6.762652439100235E+10,      /* J = 38 */
(PID.TID 0000.0001)                 5.450087291636665E+10,      /* J = 39 */
(PID.TID 0000.0001)                 4.110969866729047E+10       /* J = 40 */
(PID.TID 0000.0001)     ;
(PID.TID 0000.0001) rAs =  /* rAs(:,1,:,1) ( units: m^2 ) */
(PID.TID 0000.0001)    90 @  3.433488626798250E+10              /* I =  1: 90 */
(PID.TID 0000.0001)     ;
(PID.TID 0000.0001) rAs =  /* rAs(1,:,1,:) ( units: m^2 ) */
(PID.TID 0000.0001)                 3.433488626798250E+10,      /* J =  1 */
(PID.TID 0000.0001)                 4.783442523123625E+10,      /* J =  2 */
(PID.TID 0000.0001)                 6.110091968306414E+10,      /* J =  3 */
(PID.TID 0000.0001)                 7.406973659603818E+10,      /* J =  4 */
(PID.TID 0000.0001)                 8.667769319778079E+10,      /* J =  5 */
(PID.TID 0000.0001)                 9.886336479107463E+10,      /* J =  6 */
(PID.TID 0000.0001)                 1.105673840088173E+11,      /* J =  7 */
(PID.TID 0000.0001)                 1.217327300458638E+11,      /* J =  8 */
(PID.TID 0000.0001)                 1.323050064586578E+11,      /* J =  9 */
(PID.TID 0000.0001)                 1.422327061792377E+11,      /* J = 10 */
(PID.TID 0000.0001)                 1.514674624524945E+11,      /* J = 11 */
(PID.TID 0000.0001)                 1.599642844741385E+11,      /* J = 12 */
(PID.TID 0000.0001)                 1.676817765813788E+11,      /* J = 13 */
(PID.TID 0000.0001)                 1.745823399284268E+11,      /* J = 14 */
(PID.TID 0000.0001)                 1.806323556642996E+11,      /* J = 15 */
(PID.TID 0000.0001)                 1.858023487204767E+11,      /* J = 16 */
(PID.TID 0000.0001)                 1.900671314104743E+11,      /* J = 17 */
(PID.TID 0000.0001)                 1.934059261417216E+11,      /* J = 18 */
(PID.TID 0000.0001)                 1.958024666419019E+11,      /* J = 19 */
(PID.TID 0000.0001)                 1.972450772065981E+11,      /* J = 20 */
(PID.TID 0000.0001)                 1.977267295821495E+11,      /* J = 21 */
(PID.TID 0000.0001)                 1.972450772065981E+11,      /* J = 22 */
(PID.TID 0000.0001)                 1.958024666419019E+11,      /* J = 23 */
(PID.TID 0000.0001)                 1.934059261417216E+11,      /* J = 24 */
(PID.TID 0000.0001)                 1.900671314104743E+11,      /* J = 25 */
(PID.TID 0000.0001)                 1.858023487204767E+11,      /* J = 26 */
(PID.TID 0000.0001)                 1.806323556642996E+11,      /* J = 27 */
(PID.TID 0000.0001)                 1.745823399284268E+11,      /* J = 28 */
(PID.TID 0000.0001)                 1.676817765813788E+11,      /* J = 29 */
(PID.TID 0000.0001)                 1.599642844741385E+11,      /* J = 30 */
(PID.TID 0000.0001)                 1.514674624524945E+11,      /* J = 31 */
(PID.TID 0000.0001)                 1.422327061792377E+11,      /* J = 32 */
(PID.TID 0000.0001)                 1.323050064586578E+11,      /* J = 33 */
(PID.TID 0000.0001)                 1.217327300458638E+11,      /* J = 34 */
(PID.TID 0000.0001)                 1.105673840088173E+11,      /* J = 35 */
(PID.TID 0000.0001)                 9.886336479107463E+10,      /* J = 36 */
(PID.TID 0000.0001)                 8.667769319778079E+10,      /* J = 37 */
(PID.TID 0000.0001)                 7.406973659603818E+10,      /* J = 38 */
(PID.TID 0000.0001)                 6.110091968306414E+10,      /* J = 39 */
(PID.TID 0000.0001)                 4.783442523123625E+10       /* J = 40 */
(PID.TID 0000.0001)     ;
(PID.TID 0000.0001) globalArea = /* Integrated horizontal Area (m^2) */
(PID.TID 0000.0001)                 3.450614146649838E+14
(PID.TID 0000.0001)     ;
(PID.TID 0000.0001) the_run_name = /* Name of this simulation */
(PID.TID 0000.0001)               'global_oce_latlon'
(PID.TID 0000.0001)     ;
(PID.TID 0000.0001) // =======================================================
(PID.TID 0000.0001) // End of Model config. summary
(PID.TID 0000.0001) // =======================================================
(PID.TID 0000.0001) 
(PID.TID 0000.0001) == Packages configuration : Check & print summary ==
(PID.TID 0000.0001) 
(PID.TID 0000.0001) GMREDI_CHECK: #define GMREDI
(PID.TID 0000.0001) GM_AdvForm =     /* if FALSE => use SkewFlux Form */
(PID.TID 0000.0001)                   F
(PID.TID 0000.0001)     ;
(PID.TID 0000.0001) GM_InMomAsStress = /* if TRUE => apply as Eddy Stress */
(PID.TID 0000.0001)                   F
(PID.TID 0000.0001)     ;
(PID.TID 0000.0001) GM_AdvSeparate = /* Calc Bolus & Euler Adv. separately */
(PID.TID 0000.0001)                   F
(PID.TID 0000.0001)     ;
(PID.TID 0000.0001) GM_ExtraDiag =   /* Tensor Extra Diag (line 1&2) non 0 */
(PID.TID 0000.0001)                   F
(PID.TID 0000.0001)     ;
(PID.TID 0000.0001) GM_isopycK =    /* Background Isopyc. Diffusivity [m^2/s] */
(PID.TID 0000.0001)                 1.000000000000000E+03
(PID.TID 0000.0001)     ;
(PID.TID 0000.0001) GM_skewflx*K =  /* Background GM_SkewFlx Diffusivity [m^2/s] */
(PID.TID 0000.0001)                 1.000000000000000E+03
(PID.TID 0000.0001)     ;
(PID.TID 0000.0001) GM_advec*K =    /* Backg. GM-Advec(=Bolus) Diffusivity [m^2/s]*/
(PID.TID 0000.0001)                 0.000000000000000E+00
(PID.TID 0000.0001)     ;
(PID.TID 0000.0001) GM_Kmin_horiz = /* Minimum Horizontal Diffusivity [m^2/s] */
(PID.TID 0000.0001)                 5.000000000000000E+01
(PID.TID 0000.0001)     ;
(PID.TID 0000.0001) GM_Visbeck_alpha = /* Visbeck alpha coeff. [-] */
(PID.TID 0000.0001)                 0.000000000000000E+00
(PID.TID 0000.0001)     ;
(PID.TID 0000.0001) GM_Small_Number =  /* epsilon used in slope calc */
(PID.TID 0000.0001)                 9.999999999999999E-21
(PID.TID 0000.0001)     ;
(PID.TID 0000.0001) GM_slopeSqCutoff = /* Slope^2 cut-off value */
(PID.TID 0000.0001)                 1.000000000000000E+48
(PID.TID 0000.0001)     ;
(PID.TID 0000.0001) GM_taper_scheme =  /* Type of Tapering/Clipping scheme */
(PID.TID 0000.0001)               'gkw91                                   '
(PID.TID 0000.0001)     ;
(PID.TID 0000.0001) GM_maxSlope =  /* Maximum Slope (Tapering/Clipping) */
(PID.TID 0000.0001)                 1.000000000000000E-02
(PID.TID 0000.0001)     ;
(PID.TID 0000.0001) GM_facTrL2dz = /* Minimum Trans.Layer Thick. (factor of dz) */
(PID.TID 0000.0001)                 1.000000000000000E+00
(PID.TID 0000.0001)     ;
(PID.TID 0000.0001) GM_facTrL2ML = /* Max.Trans.Layer Thick. (factor of MxL Depth)*/
(PID.TID 0000.0001)                 5.000000000000000E+00
(PID.TID 0000.0001)     ;
(PID.TID 0000.0001) GM_maxTransLay = /* Maximum Transition Layer Thickness [m] */
(PID.TID 0000.0001)                 5.000000000000000E+02
(PID.TID 0000.0001)     ;
(PID.TID 0000.0001) GM_UseBVP = /* if TRUE => use bvp a la Ferrari et al. (2010) */
(PID.TID 0000.0001)                   F
(PID.TID 0000.0001)     ;
(PID.TID 0000.0001) GM_BVP_ModeNumber = /* Vertical mode number for BVP wave speed */
(PID.TID 0000.0001)                       1
(PID.TID 0000.0001)     ;
(PID.TID 0000.0001) GM_BVP_cMin = /* Minimum wave speed for BVP [m/s] */
(PID.TID 0000.0001)                 1.000000000000000E-01
(PID.TID 0000.0001)     ;
(PID.TID 0000.0001) GM_useSubMeso = /* if TRUE => use Sub-Meso param. (B.Fox-Kemper) */
(PID.TID 0000.0001)                   F
(PID.TID 0000.0001)     ;
(PID.TID 0000.0001) subMeso_Ceff = /* efficiency coeff. of Mixed-Layer Eddies [-] */
(PID.TID 0000.0001)                 7.000000000000001E-02
(PID.TID 0000.0001)     ;
(PID.TID 0000.0001) subMeso_invTau = /* inverse of Sub-Meso mixing time-scale [/s] */
(PID.TID 0000.0001)                 2.000000000000000E-06
(PID.TID 0000.0001)     ;
(PID.TID 0000.0001) subMeso_LfMin = /* minimum length-scale "Lf" [m] */
(PID.TID 0000.0001)                 1.000000000000000E+03
(PID.TID 0000.0001)     ;
(PID.TID 0000.0001) subMeso_Lmax = /* maximum grid-scale length [m] */
(PID.TID 0000.0001)                 1.100000000000000E+05
(PID.TID 0000.0001)     ;
(PID.TID 0000.0001) GM_useLeithQG = /* if TRUE => add QG Leith viscosity to GMRedi tensor */
(PID.TID 0000.0001)                   F
(PID.TID 0000.0001)     ;
(PID.TID 0000.0001) GAD_CHECK: #define ALLOW_GENERIC_ADVDIFF
(PID.TID 0000.0001) // =======================================================
(PID.TID 0000.0001) // Check Model config. (CONFIG_CHECK):
(PID.TID 0000.0001) // CONFIG_CHECK : Normal End
(PID.TID 0000.0001) // =======================================================
(PID.TID 0000.0001) 
(PID.TID 0000.0001)  MDS_WRITE_FIELD: it,rec,kS,kL,kH=      -1     1   1   1   1 file=XC
(PID.TID 0000.0001)  MDS_WRITE_FIELD: it,rec,kS,kL,kH=      -1     1   1   1   1 file=YC
(PID.TID 0000.0001)  MDS_WRITE_FIELD: it,rec,kS,kL,kH=      -1     1   1   1   1 file=XG
(PID.TID 0000.0001)  MDS_WRITE_FIELD: it,rec,kS,kL,kH=      -1     1   1   1   1 file=YG
(PID.TID 0000.0001)  MDS_WRITE_FIELD: it,rec,kS,kL,kH=      -1     1   1   1   1 file=RAC
(PID.TID 0000.0001)  MDS_WRITE_FIELD: it,rec,kS,kL,kH=      -1     1   1   1   1 file=RAW
(PID.TID 0000.0001)  MDS_WRITE_FIELD: it,rec,kS,kL,kH=      -1     1   1   1   1 file=RAS
(PID.TID 0000.0001)  MDS_WRITE_FIELD: it,rec,kS,kL,kH=      -1     1   1   1   1 file=RAZ
(PID.TID 0000.0001)  MDS_WRITE_FIELD: it,rec,kS,kL,kH=      -1     1   1   1   1 file=DXG
(PID.TID 0000.0001)  MDS_WRITE_FIELD: it,rec,kS,kL,kH=      -1     1   1   1   1 file=DYG
(PID.TID 0000.0001)  MDS_WRITE_FIELD: it,rec,kS,kL,kH=      -1     1   1   1   1 file=DXC
(PID.TID 0000.0001)  MDS_WRITE_FIELD: it,rec,kS,kL,kH=      -1     1   1   1   1 file=DYC
(PID.TID 0000.0001)  MDS_WRITE_FIELD: it,rec,kS,kL,kH=      -1     1   1   1   1 file=DXF
(PID.TID 0000.0001)  MDS_WRITE_FIELD: it,rec,kS,kL,kH=      -1     1   1   1   1 file=DYF
(PID.TID 0000.0001)  MDS_WRITE_FIELD: it,rec,kS,kL,kH=      -1     1   1   1   1 file=DXV
(PID.TID 0000.0001)  MDS_WRITE_FIELD: it,rec,kS,kL,kH=      -1     1   1   1   1 file=DYU
(PID.TID 0000.0001)  MDS_WRITE_FIELD: it,rec,kS,kL,kH=      -1     1   1   1   1 file=Depth
(PID.TID 0000.0001)  MDS_WRITE_FIELD: it,rec,kS,kL,kH=      -1     1   1   1   1 file=rLowC
(PID.TID 0000.0001)  MDS_WRITE_FIELD: it,rec,kS,kL,kH=      -1     1   1   1   1 file=rLowW
(PID.TID 0000.0001)  MDS_WRITE_FIELD: it,rec,kS,kL,kH=      -1     1   1   1   1 file=rLowS
(PID.TID 0000.0001)  MDS_WRITE_FIELD: it,rec,kS,kL,kH=      -1     1   1   1   1 file=rSurfC
(PID.TID 0000.0001)  MDS_WRITE_FIELD: it,rec,kS,kL,kH=      -1     1   1   1   1 file=rSurfW
(PID.TID 0000.0001)  MDS_WRITE_FIELD: it,rec,kS,kL,kH=      -1     1   1   1   1 file=rSurfS
(PID.TID 0000.0001)  MDS_WRITE_FIELD: it,rec,kS,kL,kH=       0     1  15   1  15 file=hFacC
(PID.TID 0000.0001)  MDS_WRITE_FIELD: it,rec,kS,kL,kH=       0     1  15   1  15 file=hFacW
(PID.TID 0000.0001)  MDS_WRITE_FIELD: it,rec,kS,kL,kH=       0     1  15   1  15 file=hFacS
(PID.TID 0000.0001)  MDS_WRITEVEC_LOC: open file: RC.data
(PID.TID 0000.0001)  MDS_WR_REC_RS: iRec,Dim =         1         15
(PID.TID 0000.0001)  MDS_WRITEVEC_LOC: open file: RF.data
(PID.TID 0000.0001)  MDS_WR_REC_RS: iRec,Dim =         1         16
(PID.TID 0000.0001)  MDS_WRITEVEC_LOC: open file: DRC.data
(PID.TID 0000.0001)  MDS_WR_REC_RS: iRec,Dim =         1         16
(PID.TID 0000.0001)  MDS_WRITEVEC_LOC: open file: DRF.data
(PID.TID 0000.0001)  MDS_WR_REC_RS: iRec,Dim =         1         15
(PID.TID 0000.0001)  MDS_WRITEVEC_LOC: open file: PHrefF.data
(PID.TID 0000.0001)  MDS_WR_REC_RS: iRec,Dim =         1         16
(PID.TID 0000.0001)  MDS_WRITEVEC_LOC: open file: PHrefC.data
(PID.TID 0000.0001)  MDS_WR_REC_RS: iRec,Dim =         1         15
(PID.TID 0000.0001)  MDS_READ_FIELD: opening global file: lev_t.bin
(PID.TID 0000.0001) // =======================================================
(PID.TID 0000.0001) // Field Initial Temperature at iteration          1
(PID.TID 0000.0001) // CMIN =         -1.900000000000000E+00
(PID.TID 0000.0001) // CMAX =          2.973338890075684E+01
(PID.TID 0000.0001) // CINT =          1.171606996324327E+00
(PID.TID 0000.0001) // SYMBOLS (CMIN->CMAX): -abcdefghijklmnopqrstuvwxyz+
(PID.TID 0000.0001) //                  0.0: .
(PID.TID 0000.0001) // RANGE I (Lo:Hi:Step):(     1:    90:     1)
(PID.TID 0000.0001) // RANGE J (Lo:Hi:Step):(    40:     1:    -1)
(PID.TID 0000.0001) // RANGE K (Lo:Hi:Step):(   1:   1:   1)
(PID.TID 0000.0001) // =======================================================
(PID.TID 0000.0001) K =   1
(PID.TID 0000.0001)                I=10      I=20      I=30      I=40      I=50      I=60      I=70      I=80      I=90
(PID.TID 0000.0001) |--J--|123456789|123456789|123456789|123456789|123456789|123456789|123456789|123456789|123456789|
(PID.TID 0000.0001)     40 bccdd.baa----abdedd..................................................................bbbbb
(PID.TID 0000.0001)     39 ccdddddccbbbaa...ed.....................................................----........bbbbbb
(PID.TID 0000.0001)     38 fffgfedeedddc...........................................................-----......cbbbcde
(PID.TID 0000.0001)     37 ghh..................................................................bc...bbc...edeed.defg
(PID.TID 0000.0001)     36 hh.........................................ddcb....................dcccbabccdd.eefghhihhih
(PID.TID 0000.0001)     35 hh.................................aaab..dddeddd...ffggg...........ccc....ddeeeffghijjjjih
(PID.TID 0000.0001)     34 ...................................babb.deeeeeee.ffffgghh..................ccdffghijkkkj..
(PID.TID 0000.0001)     33 ....................................accdddeeeeefffffgghhiii.................bcfijkkllllkk.
(PID.TID 0000.0001)     32 ....................................bdddeffgffgghhhhhiiijjj................dccglmnmmmmlll.
(PID.TID 0000.0001)     31 ....................................fghiiiijjjjjjkkkkklllkk..............ikkjjmooooonnmm..
(PID.TID 0000.0001)     30 ...................................mmmnmmmmmmmmmmmmmnnnnnmm............moqrrrqrqqqpppooo..
(PID.TID 0000.0001)     29 .................................pqqqqqpppppppppoppoppppponm...........ssssssrrrrrqqqqpp..
(PID.TID 0000.0001)     28 ...............................prssssrrrsssrrrrrrrrrrrrrqqpoo.........uttssstssrssrrrqqq..
(PID.TID 0000.0001)     27 ..............vv..............stuttuuuuutuuuuuuuuuuttttssrrqqq...stuu.vvvuuuuutttttsss....
(PID.TID 0000.0001)     26 ..............vvv...........uuvvvvvwwwwwwwwvvvvvvvvvuuutttsssttv.uuvxxwwwwwwvvvvuuttsr....
(PID.TID 0000.0001)     25 ..............wwwx...xxx...vvvxxxxxyyxxxxxxxxxwwwwwvvvvvuuuuuvwwx...xxxxxxwwwwwwvvutsr....
(PID.TID 0000.0001)     24 ............wwwwxyy.xxyy...wxx.yyyyyyyyyyyxxxxxxxxwwwwwwwvvwwxxyywww.xxxxxxxxxxwwwvvur....
(PID.TID 0000.0001)     23 ............xxxyyyz.xyyy...xxx..yyyyzzyyyyyyyyxxxxxxxxxwwwwwxxxwwwwwx....vwxxxxwwwwwvu....
(PID.TID 0000.0001)     22 w...........xxyyyzyyyyyz...xx.yyzzzzzzzzzzzzzyyzyyyyyyxxwwxxxxwvvvwwxw......yyyyxxxxxxwxxw
(PID.TID 0000.0001)     21 xxx........xxxxyyzzzzzzz+.....zyzzzzzzz++zzzzyyyyyyyyxxwvvwwwwvvvvvvvu........yyyyyyyyyxxx
(PID.TID 0000.0001)     20 xww.......xyyyyxyyzzzzzz+......z.zzzzz+++zzzzzzyyyyyxxxxwvwxwvuuuuuuut.........yyyyxxxxwww
(PID.TID 0000.0001)     19 vvv.......yyyyxwwxyzyyzzzzz...zzz.....++++++z++z+zzzyyyyxxxxwwvvvvvvvu...........yyxxxwwww
(PID.TID 0000.0001)     18 uut.......zzyyywwxyzyyyyzzyzzzzzz...z+z++++zz+++++++zzzyyyyxxwwwvvvvvtt..........yyxxwvvwv
(PID.TID 0000.0001)     17 uus.......z.yyyyyyxyzzyyyyyyyzz.....yzzzzzzzzzzzzzzzzzzyyyyxxwwvuuvvuut.........yyyxxwttvu
(PID.TID 0000.0001)     16 utr......yy.zyyyyxxxxxxxwxxxxy.......yyyyyyyyyyyyyyyyyyyyyyyxxwvvvuuutts........xyyyxwvuuu
(PID.TID 0000.0001)     15 ttrr....xxx.xxxwxwwwwvwwvvvww.........xwxxxxxxxxxxxxxxxxxyyyxwwwvvuttssrr......wxxxxxwwvuu
(PID.TID 0000.0001)     14 ttsq....xyxwwxwvwwwvutuuuuuuu.........wwvwwwwvwvvwwwvwvvwwwwwwvvvuuutssrr.....vwwwwwwwvvvu
(PID.TID 0000.0001)     13 tttr....wwwvvvtttuuuutttssttt.........vvvuuuuuuutttttuuuuuvwwwuuuttttssrr....uvvvvvvvvvvut
(PID.TID 0000.0001)     12 sssssstttutssssrrrrrstrqqrrssqqrrq....uuttssssrrrrrrrrrrrstttssssrssrrqp.....uuuttssttssss
(PID.TID 0000.0001)     11 poprsssrqqqqqrqppooopqpoppppppppppp..sssrrr.rqpppqqqqppppqqqoppqqqqrqqpp....prsrqqqqqppppq
(PID.TID 0000.0001)     10 lllmoooonmnnmnnnnmmmmmmlmmlllmnnnnon.qqqppp.ppppppooooooooonmnnnonnooooo..nmoponnmnnnnnmll
(PID.TID 0000.0001)      9 ihhiiiihhhhhhiiihiiiiihhhiiiijjkkmnllnnnnn.mmmmnnnnmmmmnnmmlklllllklllll.mllmmllkjiijjihhi
(PID.TID 0000.0001)      8 eeeeeeeedefgggffeeffggffffggghiiiijjijklklkkkkkkkklllkkkkjjiiijkjjjjjjkj.kkjjiihggffffedde
(PID.TID 0000.0001)      7 cccccddeedddefeddddddddddefeefffffgggghiiiiiijjjihhgggghhhhhghhhhhhhiiiihiihhgfeddddddcccc
(PID.TID 0000.0001)      6 abbcccddcccccdddddccdddddddccddddddeeeeffggggghhgeddddddeeeeeeefggggghggggffeedccbbbbbbbba
(PID.TID 0000.0001)      5 bbbcccccccccccccccccccccbbccccdddddddcccddeeddeedcbbbbbbccccccdddeeeeeddddddccbbbbaaaaaaab
(PID.TID 0000.0001)      4 bbbbbbbaaabbbbbbbbbbbbaabbabbbbcbbbbbbbbbbbbbbbbbbbabbaaabbbbbbbbbbbbbbbbb..a--aaabbbaaabb
(PID.TID 0000.0001)      3 bbbbaaa-a-............................bbaaaaaaaaaaaaaaaaaaaaaaaaaaaaaaaab..aaaaaaaabbbaaaa
(PID.TID 0000.0001)      2 ..........................................baaaaaaaaaaaa-------aa..aaaa.....aaaaaaaaaaaa...
(PID.TID 0000.0001)      1 ..........................................................................................
(PID.TID 0000.0001) // =======================================================
(PID.TID 0000.0001) // END OF FIELD                                          =
(PID.TID 0000.0001) // =======================================================
(PID.TID 0000.0001) 
(PID.TID 0000.0001)  MDS_READ_FIELD: opening global file: lev_s.bin
(PID.TID 0000.0001) // =======================================================
(PID.TID 0000.0001) // Field Initial Salinity at iteration          1
(PID.TID 0000.0001) // CMIN =          2.975276947021484E+01
(PID.TID 0000.0001) // CMAX =          3.747562789916992E+01
(PID.TID 0000.0001) // CINT =          2.860317936650029E-01
(PID.TID 0000.0001) // SYMBOLS (CMIN->CMAX): -abcdefghijklmnopqrstuvwxyz+
(PID.TID 0000.0001) //                  0.0: .
(PID.TID 0000.0001) // RANGE I (Lo:Hi:Step):(     1:    90:     1)
(PID.TID 0000.0001) // RANGE J (Lo:Hi:Step):(    40:     1:    -1)
(PID.TID 0000.0001) // RANGE K (Lo:Hi:Step):(   1:   1:   1)
(PID.TID 0000.0001) // =======================================================
(PID.TID 0000.0001) K =   1
(PID.TID 0000.0001)                I=10      I=20      I=30      I=40      I=50      I=60      I=70      I=80      I=90
(PID.TID 0000.0001) |--J--|123456789|123456789|123456789|123456789|123456789|123456789|123456789|123456789|123456789|
(PID.TID 0000.0001)     40 qrrrr.oonnooopqtutt..................................................................mnnop
(PID.TID 0000.0001)     39 rssrrrrrrrqqpn...ut.....................................................mmmm........opqqqr
(PID.TID 0000.0001)     38 ssrrqqqqrrqpo...........................................................lkkll......onoqrrs
(PID.TID 0000.0001)     37 ssr..................................................................hg...lln...qppqr.rrrs
(PID.TID 0000.0001)     36 rr.........................................lkji....................feeegikmoop.pqrssssssss
(PID.TID 0000.0001)     35 rr.................................kkkk..lllllki...jijjj...........aa-....opqrrrrrrrssttss
(PID.TID 0000.0001)     34 ...................................jlll.kklllllk.ijkkkjih..................hlpqrqrrsstts..
(PID.TID 0000.0001)     33 ....................................iklkkkkkkkkkjkkjjjjjjii.................jmprrsstttttt.
(PID.TID 0000.0001)     32 ....................................iklllkllllllllkkkkkkkji................gilpstuuttuuut.
(PID.TID 0000.0001)     31 ....................................lmnonnnnoooonnmmmmllkjj..............loopqtvvvuuuuuu..
(PID.TID 0000.0001)     30 ...................................pppppppqqqqpppoooonnmlkk............ptvxwwvvwvvvvvvvu..
(PID.TID 0000.0001)     29 .................................pqqrqqqqqqrrrqqppqqqpponmll...........vxxxxxxwwwwwxwwxw..
(PID.TID 0000.0001)     28 ...............................prrrrrqqrrrrrsrrsrssssssrqonmm.........wxxxxxxxyyyyyyyyxx..
(PID.TID 0000.0001)     27 ..............xx..............prrrrrrrrrssssssstttssssssrqpoop...uwww.wwxxxyyy++zzzzyy....
(PID.TID 0000.0001)     26 ..............wxx...........ppqrrrrrrsssrrstsstttssrrrrrrrqppqqp.wwwvvwwwwwxyy+++zzyxw....
(PID.TID 0000.0001)     25 ..............wxxv...kkk...ooopqrrrrrssrrrrrrrssssqqpppppppppppoo...vvutuuvvwxyyyxxvvu....
(PID.TID 0000.0001)     24 ............uvvwwur.lmlk...nmm.pqqqqrrrrrqqqqrrqqrpppppooooonmmmnooo.uuuuuuttuvvvuvuut....
(PID.TID 0000.0001)     23 ............vvuvtqp.lmml...mln..ppppqpqppppppqpppppppppqppponnnnnoopm....xvuuuvvvvuuut....
(PID.TID 0000.0001)     22 r...........vuttsqqpnppn...mm.oppqqrrqqqqqqppppqqrrrqqqrrppppoopooomjj......uuvvvvvuttssrr
(PID.TID 0000.0001)     21 qmm........ttsssssssrsqon.....opqqqqqqqrrrrqqqssssssrrrrrrrrpqqqppomll........tvvvvuttssrr
(PID.TID 0000.0001)     20 sqq.......sttssrrsrrrrpol......p.qrqpqrrrrrrrstttttsssrrsssrqrrrrqqqpo.........wwwvvvuuutt
(PID.TID 0000.0001)     19 tsr.......ssssrrrrpppppnmmm...oqq.....qrqqsrrstttuuuttssttssrrssrrrrqq...........wwwvuvvvv
(PID.TID 0000.0001)     18 wut.......ssrrrrrqppppppppoooorrr...poqqqprrrttttuuutuuuuuutttttttutsss..........yyxwwxwxx
(PID.TID 0000.0001)     17 wwu.......s.rrrrrrqppppqqqqqqqr.....rrsrqrsssuusrtuuuvvvwwvvvuuuuutttss.........xyzyyyyxxx
(PID.TID 0000.0001)     16 vvt......ss.qrrssrqrqpqrrrrrrr.......ssrrstsstusrsuuuvwwwwxxwwvvvuttttsr........yz+zzzxwww
(PID.TID 0000.0001)     15 utss....stt.rrssstttsrrsrstsr.........ssstttssttsuuttuvvvvwxwwwwwuttsssrr......xyyyyxyyxwv
(PID.TID 0000.0001)     14 utts....sstrrssstuuuuuuuuuutt.........stttuutttttttuttttttuvvvvvvutsrqrrr.....vxxwwwwxwvwv
(PID.TID 0000.0001)     13 uuut....ttttttttuuuuuvtuuuuuu.........ttttuutttttttuutsssstttttstsqrqqppp....uwwwvuvvvutvv
(PID.TID 0000.0001)     12 ttttttttttttttttttttttssuuuuutuuut....tttttttttttsssssrrrrrrrqqqqqppppoo.....rvvuuttttttuu
(PID.TID 0000.0001)     11 rqsttttttttuuttttsssssrrstttttttsss..ttttts.tsssrrrrqqqqqppppoonnooooooo....oruttttsssrqrs
(PID.TID 0000.0001)     10 pppqrssrqqrqpqrssrrqqqqqqrrrrrrrrrrs.sssssr.rssrrqqpppppppooooonnnoooonn..moqrrrqqqqqqqqqq
(PID.TID 0000.0001)      9 oonooooooooonnnooooooooooppppppqqqqqrrrqrq.pppqqqqqppppppppppoooooooooll.lmoqqqqppooooopoo
(PID.TID 0000.0001)      8 nnnoonooooooonnnnnnnoooonoonoooppopqqqqqqqppopppqqqpppppppppppppppooopon.lnopppoooonnnnooo
(PID.TID 0000.0001)      7 ooooooooooopponnnooooooonnnnnonnooooooooopppppppoooooooooopppppppppoopqnnmnoooonnnonnnnnno
(PID.TID 0000.0001)      6 oooonnoonnnnooooooooooooonnnnnnnnnnnnnnnnoooopppooooooooooooooppppppppppoooooooonnnnnmnnnn
(PID.TID 0000.0001)      5 oooonnnnnnnnnnnnnnnnnoooooonnnnnnonnnnnnnnnoooooooooooonnnnnnooooooopoooonoooonnnnnnnooooo
(PID.TID 0000.0001)      4 oooonnnooonnnnnnnnnnnnnnoooooonnnooooonnnooooooooppponnnnmmmnnnnmnnoonnnnn..nnnooooooooooo
(PID.TID 0000.0001)      3 ooonnnnnnn............................nnoooooonnooooonnnnnnnoonnnnnnnnmmm..ooopooooooooooo
(PID.TID 0000.0001)      2 ..........................................pppooooonnnnnnoooppppo..nnnn.....qqqpppoooooo...
(PID.TID 0000.0001)      1 ..........................................................................................
(PID.TID 0000.0001) // =======================================================
(PID.TID 0000.0001) // END OF FIELD                                          =
(PID.TID 0000.0001) // =======================================================
(PID.TID 0000.0001) 
(PID.TID 0000.0001) Start initial hydrostatic pressure computation
(PID.TID 0000.0001) Pressure is predetermined for buoyancyRelation OCEANIC
(PID.TID 0000.0001) 
(PID.TID 0000.0001)  MDS_READ_FIELD: opening global file: trenberth_taux.bin
(PID.TID 0000.0001)  MDS_READ_FIELD: opening global file: trenberth_tauy.bin
(PID.TID 0000.0001)  MDS_READ_FIELD: opening global file: ncep_qnet.bin
(PID.TID 0000.0001)  MDS_READ_FIELD: opening global file: ncep_emp.bin
(PID.TID 0000.0001)  MDS_READ_FIELD: opening global file: lev_sst.bin
(PID.TID 0000.0001)  MDS_READ_FIELD: opening global file: lev_sss.bin
(PID.TID 0000.0001) // =======================================================
(PID.TID 0000.0001) // Model current state
(PID.TID 0000.0001) // =======================================================
(PID.TID 0000.0001) 
(PID.TID 0000.0001) // =======================================================
(PID.TID 0000.0001) // Begin MONITOR dynamic field statistics
(PID.TID 0000.0001) // =======================================================
(PID.TID 0000.0001) %MON time_tsnumber                =                     0
(PID.TID 0000.0001) %MON time_secondsf                =   0.0000000000000E+00
(PID.TID 0000.0001) %MON dynstat_eta_max              =   0.0000000000000E+00
(PID.TID 0000.0001) %MON dynstat_eta_min              =   0.0000000000000E+00
(PID.TID 0000.0001) %MON dynstat_eta_mean             =   0.0000000000000E+00
(PID.TID 0000.0001) %MON dynstat_eta_sd               =   0.0000000000000E+00
(PID.TID 0000.0001) %MON dynstat_eta_del2             =   0.0000000000000E+00
(PID.TID 0000.0001) %MON dynstat_uvel_max             =   0.0000000000000E+00
(PID.TID 0000.0001) %MON dynstat_uvel_min             =   0.0000000000000E+00
(PID.TID 0000.0001) %MON dynstat_uvel_mean            =   0.0000000000000E+00
(PID.TID 0000.0001) %MON dynstat_uvel_sd              =   0.0000000000000E+00
(PID.TID 0000.0001) %MON dynstat_uvel_del2            =   0.0000000000000E+00
(PID.TID 0000.0001) %MON dynstat_vvel_max             =   0.0000000000000E+00
(PID.TID 0000.0001) %MON dynstat_vvel_min             =   0.0000000000000E+00
(PID.TID 0000.0001) %MON dynstat_vvel_mean            =   0.0000000000000E+00
(PID.TID 0000.0001) %MON dynstat_vvel_sd              =   0.0000000000000E+00
(PID.TID 0000.0001) %MON dynstat_vvel_del2            =   0.0000000000000E+00
(PID.TID 0000.0001) %MON dynstat_wvel_max             =   0.0000000000000E+00
(PID.TID 0000.0001) %MON dynstat_wvel_min             =   0.0000000000000E+00
(PID.TID 0000.0001) %MON dynstat_wvel_mean            =   0.0000000000000E+00
(PID.TID 0000.0001) %MON dynstat_wvel_sd              =   0.0000000000000E+00
(PID.TID 0000.0001) %MON dynstat_wvel_del2            =   0.0000000000000E+00
(PID.TID 0000.0001) %MON dynstat_theta_max            =   2.9733388900757E+01
(PID.TID 0000.0001) %MON dynstat_theta_min            =  -1.9000000000000E+00
(PID.TID 0000.0001) %MON dynstat_theta_mean           =   3.6197074666129E+00
(PID.TID 0000.0001) %MON dynstat_theta_sd             =   4.4174614518568E+00
(PID.TID 0000.0001) %MON dynstat_theta_del2           =   5.6229722638211E-03
(PID.TID 0000.0001) %MON dynstat_salt_max             =   3.7475627899170E+01
(PID.TID 0000.0001) %MON dynstat_salt_min             =   2.9752769470215E+01
(PID.TID 0000.0001) %MON dynstat_salt_mean            =   3.4718006161475E+01
(PID.TID 0000.0001) %MON dynstat_salt_sd              =   2.9628819587990E-01
(PID.TID 0000.0001) %MON dynstat_salt_del2            =   1.0127003139695E-03
(PID.TID 0000.0001) %MON dynstat_sst_max              =   2.9733388900757E+01
(PID.TID 0000.0001) %MON dynstat_sst_min              =  -1.9000000000000E+00
(PID.TID 0000.0001) %MON dynstat_sst_mean             =   1.8484768169451E+01
(PID.TID 0000.0001) %MON dynstat_sst_sd               =   9.1795873467430E+00
(PID.TID 0000.0001) %MON dynstat_sst_del2             =   2.7217991810411E-02
(PID.TID 0000.0001) %MON dynstat_sss_max              =   3.7475627899170E+01
(PID.TID 0000.0001) %MON dynstat_sss_min              =   2.9752769470215E+01
(PID.TID 0000.0001) %MON dynstat_sss_mean             =   3.4849925275207E+01
(PID.TID 0000.0001) %MON dynstat_sss_sd               =   9.6344930396289E-01
(PID.TID 0000.0001) %MON dynstat_sss_del2             =   8.0490524880020E-03
(PID.TID 0000.0001) %MON forcing_qnet_max             =   4.4161361694336E+02
(PID.TID 0000.0001) %MON forcing_qnet_min             =  -1.8132531738281E+02
(PID.TID 0000.0001) %MON forcing_qnet_mean            =  -1.6512526001044E+01
(PID.TID 0000.0001) %MON forcing_qnet_sd              =   1.0987288293460E+02
(PID.TID 0000.0001) %MON forcing_qnet_del2            =   1.0245701543512E+00
(PID.TID 0000.0001) %MON forcing_qsw_max              =   0.0000000000000E+00
(PID.TID 0000.0001) %MON forcing_qsw_min              =   0.0000000000000E+00
(PID.TID 0000.0001) %MON forcing_qsw_mean             =   0.0000000000000E+00
(PID.TID 0000.0001) %MON forcing_qsw_sd               =   0.0000000000000E+00
(PID.TID 0000.0001) %MON forcing_qsw_del2             =   0.0000000000000E+00
(PID.TID 0000.0001) %MON forcing_empmr_max            =   8.2174238968946E-05
(PID.TID 0000.0001) %MON forcing_empmr_min            =  -7.6155956207913E-05
(PID.TID 0000.0001) %MON forcing_empmr_mean           =   9.2293706211063E-07
(PID.TID 0000.0001) %MON forcing_empmr_sd             =   2.8800050217957E-05
(PID.TID 0000.0001) %MON forcing_empmr_del2           =   3.6757632549621E-07
(PID.TID 0000.0001) %MON forcing_fu_max               =   2.7877888083458E-01
(PID.TID 0000.0001) %MON forcing_fu_min               =  -1.7088057100773E-01
(PID.TID 0000.0001) %MON forcing_fu_mean              =   1.6001735152566E-02
(PID.TID 0000.0001) %MON forcing_fu_sd                =   9.1062350670783E-02
(PID.TID 0000.0001) %MON forcing_fu_del2              =   7.2483493833855E-04
(PID.TID 0000.0001) %MON forcing_fv_max               =   2.3312132060528E-01
(PID.TID 0000.0001) %MON forcing_fv_min               =  -1.7813690006733E-01
(PID.TID 0000.0001) %MON forcing_fv_mean              =  -5.2588977395051E-03
(PID.TID 0000.0001) %MON forcing_fv_sd                =   4.8248606070107E-02
(PID.TID 0000.0001) %MON forcing_fv_del2              =   4.9948324922575E-04
(PID.TID 0000.0001) %MON trAdv_CFL_u_max              =   0.0000000000000E+00
(PID.TID 0000.0001) %MON trAdv_CFL_v_max              =   0.0000000000000E+00
(PID.TID 0000.0001) %MON trAdv_CFL_w_max              =   0.0000000000000E+00
(PID.TID 0000.0001) %MON advcfl_uvel_max              =   0.0000000000000E+00
(PID.TID 0000.0001) %MON advcfl_vvel_max              =   0.0000000000000E+00
(PID.TID 0000.0001) %MON advcfl_wvel_max              =   0.0000000000000E+00
(PID.TID 0000.0001) %MON advcfl_W_hf_max              =   0.0000000000000E+00
(PID.TID 0000.0001) %MON pe_b_mean                    =   0.0000000000000E+00
(PID.TID 0000.0001) %MON ke_max                       =   0.0000000000000E+00
(PID.TID 0000.0001) %MON ke_mean                      =   0.0000000000000E+00
(PID.TID 0000.0001) %MON ke_vol                       =   1.3226782436723E+18
(PID.TID 0000.0001) %MON vort_r_min                   =   0.0000000000000E+00
(PID.TID 0000.0001) %MON vort_r_max                   =   0.0000000000000E+00
(PID.TID 0000.0001) %MON vort_a_mean                  =  -2.5274807396949E-05
(PID.TID 0000.0001) %MON vort_a_sd                    =   7.3604350271441E-05
(PID.TID 0000.0001) %MON vort_p_mean                  =  -3.1845655798840E-05
(PID.TID 0000.0001) %MON vort_p_sd                    =   1.3162570071703E-04
(PID.TID 0000.0001) %MON surfExpan_theta_mean         =   0.0000000000000E+00
(PID.TID 0000.0001) %MON surfExpan_salt_mean          =   0.0000000000000E+00
(PID.TID 0000.0001) // =======================================================
(PID.TID 0000.0001) // End MONITOR dynamic field statistics
(PID.TID 0000.0001) // =======================================================
(PID.TID 0000.0001) // =======================================================
(PID.TID 0000.0001) // Field Current uVel   at iteration          0
(PID.TID 0000.0001) // CMIN =          1.000000000000000E+32
(PID.TID 0000.0001) // CMAX =         -1.000000000000000E+32
(PID.TID 0000.0001) // CINT =          0.000000000000000E+00
(PID.TID 0000.0001) // SYMBOLS (CMIN->CMAX): -abcdefghijklmnopqrstuvwxyz+
(PID.TID 0000.0001) //                  0.0: .
(PID.TID 0000.0001) // RANGE I (Lo:Hi:Step):(     1:    90:     1)
(PID.TID 0000.0001) // RANGE J (Lo:Hi:Step):(    40:     1:    -1)
(PID.TID 0000.0001) // RANGE K (Lo:Hi:Step):(   1:   1:   1)
(PID.TID 0000.0001) // =======================================================
(PID.TID 0000.0001) // =======================================================
(PID.TID 0000.0001) // END OF FIELD                                          =
(PID.TID 0000.0001) // =======================================================
(PID.TID 0000.0001) 
(PID.TID 0000.0001) // =======================================================
(PID.TID 0000.0001) // Field Current vVel   at iteration          0
(PID.TID 0000.0001) // CMIN =          1.000000000000000E+32
(PID.TID 0000.0001) // CMAX =         -1.000000000000000E+32
(PID.TID 0000.0001) // CINT =          0.000000000000000E+00
(PID.TID 0000.0001) // SYMBOLS (CMIN->CMAX): -abcdefghijklmnopqrstuvwxyz+
(PID.TID 0000.0001) //                  0.0: .
(PID.TID 0000.0001) // RANGE I (Lo:Hi:Step):(     1:    90:     1)
(PID.TID 0000.0001) // RANGE J (Lo:Hi:Step):(    40:     1:    -1)
(PID.TID 0000.0001) // RANGE K (Lo:Hi:Step):(   1:   1:   1)
(PID.TID 0000.0001) // =======================================================
(PID.TID 0000.0001) // =======================================================
(PID.TID 0000.0001) // END OF FIELD                                          =
(PID.TID 0000.0001) // =======================================================
(PID.TID 0000.0001) 
(PID.TID 0000.0001) // =======================================================
(PID.TID 0000.0001) // Field Current theta  at iteration          0
(PID.TID 0000.0001) // CMIN =         -1.900000000000000E+00
(PID.TID 0000.0001) // CMAX =          2.973338890075684E+01
(PID.TID 0000.0001) // CINT =          1.171606996324327E+00
(PID.TID 0000.0001) // SYMBOLS (CMIN->CMAX): -abcdefghijklmnopqrstuvwxyz+
(PID.TID 0000.0001) //                  0.0: .
(PID.TID 0000.0001) // RANGE I (Lo:Hi:Step):(     1:    90:     1)
(PID.TID 0000.0001) // RANGE J (Lo:Hi:Step):(    40:     1:    -1)
(PID.TID 0000.0001) // RANGE K (Lo:Hi:Step):(   1:   1:   1)
(PID.TID 0000.0001) // =======================================================
(PID.TID 0000.0001) K =   1
(PID.TID 0000.0001)                I=10      I=20      I=30      I=40      I=50      I=60      I=70      I=80      I=90
(PID.TID 0000.0001) |--J--|123456789|123456789|123456789|123456789|123456789|123456789|123456789|123456789|123456789|
(PID.TID 0000.0001)     40 bccdd.baa----abdedd..................................................................bbbbb
(PID.TID 0000.0001)     39 ccdddddccbbbaa...ed.....................................................----........bbbbbb
(PID.TID 0000.0001)     38 fffgfedeedddc...........................................................-----......cbbbcde
(PID.TID 0000.0001)     37 ghh..................................................................bc...bbc...edeed.defg
(PID.TID 0000.0001)     36 hh.........................................ddcb....................dcccbabccdd.eefghhihhih
(PID.TID 0000.0001)     35 hh.................................aaab..dddeddd...ffggg...........ccc....ddeeeffghijjjjih
(PID.TID 0000.0001)     34 ...................................babb.deeeeeee.ffffgghh..................ccdffghijkkkj..
(PID.TID 0000.0001)     33 ....................................accdddeeeeefffffgghhiii.................bcfijkkllllkk.
(PID.TID 0000.0001)     32 ....................................bdddeffgffgghhhhhiiijjj................dccglmnmmmmlll.
(PID.TID 0000.0001)     31 ....................................fghiiiijjjjjjkkkkklllkk..............ikkjjmooooonnmm..
(PID.TID 0000.0001)     30 ...................................mmmnmmmmmmmmmmmmmnnnnnmm............moqrrrqrqqqpppooo..
(PID.TID 0000.0001)     29 .................................pqqqqqpppppppppoppoppppponm...........ssssssrrrrrqqqqpp..
(PID.TID 0000.0001)     28 ...............................prssssrrrsssrrrrrrrrrrrrrqqpoo.........uttssstssrssrrrqqq..
(PID.TID 0000.0001)     27 ..............vv..............stuttuuuuutuuuuuuuuuuttttssrrqqq...stuu.vvvuuuuutttttsss....
(PID.TID 0000.0001)     26 ..............vvv...........uuvvvvvwwwwwwwwvvvvvvvvvuuutttsssttv.uuvxxwwwwwwvvvvuuttsr....
(PID.TID 0000.0001)     25 ..............wwwx...xxx...vvvxxxxxyyxxxxxxxxxwwwwwvvvvvuuuuuvwwx...xxxxxxwwwwwwvvutsr....
(PID.TID 0000.0001)     24 ............wwwwxyy.xxyy...wxx.yyyyyyyyyyyxxxxxxxxwwwwwwwvvwwxxyywww.xxxxxxxxxxwwwvvur....
(PID.TID 0000.0001)     23 ............xxxyyyz.xyyy...xxx..yyyyzzyyyyyyyyxxxxxxxxxwwwwwxxxwwwwwx....vwxxxxwwwwwvu....
(PID.TID 0000.0001)     22 w...........xxyyyzyyyyyz...xx.yyzzzzzzzzzzzzzyyzyyyyyyxxwwxxxxwvvvwwxw......yyyyxxxxxxwxxw
(PID.TID 0000.0001)     21 xxx........xxxxyyzzzzzzz+.....zyzzzzzzz++zzzzyyyyyyyyxxwvvwwwwvvvvvvvu........yyyyyyyyyxxx
(PID.TID 0000.0001)     20 xww.......xyyyyxyyzzzzzz+......z.zzzzz+++zzzzzzyyyyyxxxxwvwxwvuuuuuuut.........yyyyxxxxwww
(PID.TID 0000.0001)     19 vvv.......yyyyxwwxyzyyzzzzz...zzz.....++++++z++z+zzzyyyyxxxxwwvvvvvvvu...........yyxxxwwww
(PID.TID 0000.0001)     18 uut.......zzyyywwxyzyyyyzzyzzzzzz...z+z++++zz+++++++zzzyyyyxxwwwvvvvvtt..........yyxxwvvwv
(PID.TID 0000.0001)     17 uus.......z.yyyyyyxyzzyyyyyyyzz.....yzzzzzzzzzzzzzzzzzzyyyyxxwwvuuvvuut.........yyyxxwttvu
(PID.TID 0000.0001)     16 utr......yy.zyyyyxxxxxxxwxxxxy.......yyyyyyyyyyyyyyyyyyyyyyyxxwvvvuuutts........xyyyxwvuuu
(PID.TID 0000.0001)     15 ttrr....xxx.xxxwxwwwwvwwvvvww.........xwxxxxxxxxxxxxxxxxxyyyxwwwvvuttssrr......wxxxxxwwvuu
(PID.TID 0000.0001)     14 ttsq....xyxwwxwvwwwvutuuuuuuu.........wwvwwwwvwvvwwwvwvvwwwwwwvvvuuutssrr.....vwwwwwwwvvvu
(PID.TID 0000.0001)     13 tttr....wwwvvvtttuuuutttssttt.........vvvuuuuuuutttttuuuuuvwwwuuuttttssrr....uvvvvvvvvvvut
(PID.TID 0000.0001)     12 sssssstttutssssrrrrrstrqqrrssqqrrq....uuttssssrrrrrrrrrrrstttssssrssrrqp.....uuuttssttssss
(PID.TID 0000.0001)     11 poprsssrqqqqqrqppooopqpoppppppppppp..sssrrr.rqpppqqqqppppqqqoppqqqqrqqpp....prsrqqqqqppppq
(PID.TID 0000.0001)     10 lllmoooonmnnmnnnnmmmmmmlmmlllmnnnnon.qqqppp.ppppppooooooooonmnnnonnooooo..nmoponnmnnnnnmll
(PID.TID 0000.0001)      9 ihhiiiihhhhhhiiihiiiiihhhiiiijjkkmnllnnnnn.mmmmnnnnmmmmnnmmlklllllklllll.mllmmllkjiijjihhi
(PID.TID 0000.0001)      8 eeeeeeeedefgggffeeffggffffggghiiiijjijklklkkkkkkkklllkkkkjjiiijkjjjjjjkj.kkjjiihggffffedde
(PID.TID 0000.0001)      7 cccccddeedddefeddddddddddefeefffffgggghiiiiiijjjihhgggghhhhhghhhhhhhiiiihiihhgfeddddddcccc
(PID.TID 0000.0001)      6 abbcccddcccccdddddccdddddddccddddddeeeeffggggghhgeddddddeeeeeeefggggghggggffeedccbbbbbbbba
(PID.TID 0000.0001)      5 bbbcccccccccccccccccccccbbccccdddddddcccddeeddeedcbbbbbbccccccdddeeeeeddddddccbbbbaaaaaaab
(PID.TID 0000.0001)      4 bbbbbbbaaabbbbbbbbbbbbaabbabbbbcbbbbbbbbbbbbbbbbbbbabbaaabbbbbbbbbbbbbbbbb..a--aaabbbaaabb
(PID.TID 0000.0001)      3 bbbbaaa-a-............................bbaaaaaaaaaaaaaaaaaaaaaaaaaaaaaaaab..aaaaaaaabbbaaaa
(PID.TID 0000.0001)      2 ..........................................baaaaaaaaaaaa-------aa..aaaa.....aaaaaaaaaaaa...
(PID.TID 0000.0001)      1 ..........................................................................................
(PID.TID 0000.0001) // =======================================================
(PID.TID 0000.0001) // END OF FIELD                                          =
(PID.TID 0000.0001) // =======================================================
(PID.TID 0000.0001) 
(PID.TID 0000.0001) // =======================================================
(PID.TID 0000.0001) // Field Current etaN   at iteration          0
(PID.TID 0000.0001) // CMIN =          1.000000000000000E+32
(PID.TID 0000.0001) // CMAX =         -1.000000000000000E+32
(PID.TID 0000.0001) // CINT =          0.000000000000000E+00
(PID.TID 0000.0001) // SYMBOLS (CMIN->CMAX): -abcdefghijklmnopqrstuvwxyz+
(PID.TID 0000.0001) //                  0.0: .
(PID.TID 0000.0001) // RANGE I (Lo:Hi:Step):(    -1:    92:     1)
(PID.TID 0000.0001) // RANGE J (Lo:Hi:Step):(    42:    -1:    -1)
(PID.TID 0000.0001) // RANGE K (Lo:Hi:Step):(   1:   1:   1)
(PID.TID 0000.0001) // =======================================================
(PID.TID 0000.0001) // =======================================================
(PID.TID 0000.0001) // END OF FIELD                                          =
(PID.TID 0000.0001) // =======================================================
(PID.TID 0000.0001) 
(PID.TID 0000.0001)  MDS_WRITE_FIELD: it,rec,kS,kL,kH=       0     1  15   1  15 file=U.0000000000
(PID.TID 0000.0001)  MDS_WRITE_FIELD: it,rec,kS,kL,kH=       0     1  15   1  15 file=V.0000000000
(PID.TID 0000.0001)  MDS_WRITE_FIELD: it,rec,kS,kL,kH=       0     1  15   1  15 file=T.0000000000
(PID.TID 0000.0001)  MDS_WRITE_FIELD: it,rec,kS,kL,kH=       0     1  15   1  15 file=S.0000000000
(PID.TID 0000.0001)  MDS_WRITE_FIELD: it,rec,kS,kL,kH=       0     1   1   1   1 file=Eta.0000000000
(PID.TID 0000.0001)  MDS_WRITE_FIELD: it,rec,kS,kL,kH=       0     1  15   1  15 file=W.0000000000
(PID.TID 0000.0001)  MDS_WRITE_FIELD: it,rec,kS,kL,kH=       0     1   1   1   1 file=ETAN_initial.0000000000
(PID.TID 0000.0001)  MDS_WRITE_FIELD: it,rec,kS,kL,kH=       0     1  15   1  15 file=THETA_initial.0000000000
(PID.TID 0000.0001)  MDS_WRITE_FIELD: it,rec,kS,kL,kH=       0     1  15   1  15 file=SALT_initial.0000000000
(PID.TID 0000.0001)  MDS_WRITE_FIELD: it,rec,kS,kL,kH=       0     1  15   1  15 file=UVEL_initial.0000000000
(PID.TID 0000.0001)  MDS_WRITE_FIELD: it,rec,kS,kL,kH=       0     1  15   1  15 file=VVEL_initial.0000000000
(PID.TID 0000.0001)  MDS_WRITE_FIELD: it,rec,kS,kL,kH=       0     1   1   1   1 file=ETAN_001_initial.0000000000
(PID.TID 0000.0001)  MDS_WRITE_FIELD: it,rec,kS,kL,kH=       0     1  15   1  15 file=THETA_001_initial.0000000000
(PID.TID 0000.0001)  MDS_WRITE_FIELD: it,rec,kS,kL,kH=       0     1  15   1  15 file=SALT_001_initial.0000000000
(PID.TID 0000.0001)  MDS_WRITE_FIELD: it,rec,kS,kL,kH=       0     1  15   1  15 file=UVEL_001_initial.0000000000
(PID.TID 0000.0001)  MDS_WRITE_FIELD: it,rec,kS,kL,kH=       0     1  15   1  15 file=VVEL_001_initial.0000000000
(PID.TID 0000.0001)  MDS_WRITE_FIELD: it,rec,kS,kL,kH=       0     1   1   1   1 file=ETAN_002_initial.0000000000
(PID.TID 0000.0001)  MDS_WRITE_FIELD: it,rec,kS,kL,kH=       0     1  15   1  15 file=THETA_002_initial.0000000000
(PID.TID 0000.0001)  MDS_WRITE_FIELD: it,rec,kS,kL,kH=       0     1  15   1  15 file=SALT_002_initial.0000000000
(PID.TID 0000.0001)  MDS_WRITE_FIELD: it,rec,kS,kL,kH=       0     1  15   1  15 file=UVEL_002_initial.0000000000
(PID.TID 0000.0001)  MDS_WRITE_FIELD: it,rec,kS,kL,kH=       0     1  15   1  15 file=VVEL_002_initial.0000000000
(PID.TID 0000.0001)  MDS_WRITE_FIELD: it,rec,kS,kL,kH=       0     1   1   1   1 file=ETAN_003_initial.0000000000
(PID.TID 0000.0001)  MDS_WRITE_FIELD: it,rec,kS,kL,kH=       0     1  15   1  15 file=THETA_003_initial.0000000000
(PID.TID 0000.0001)  MDS_WRITE_FIELD: it,rec,kS,kL,kH=       0     1  15   1  15 file=SALT_003_initial.0000000000
(PID.TID 0000.0001)  MDS_WRITE_FIELD: it,rec,kS,kL,kH=       0     1  15   1  15 file=UVEL_003_initial.0000000000
(PID.TID 0000.0001)  MDS_WRITE_FIELD: it,rec,kS,kL,kH=       0     1  15   1  15 file=VVEL_003_initial.0000000000
(PID.TID 0000.0001)  MDS_WRITE_FIELD: it,rec,kS,kL,kH=       0     1   1   1   1 file=ETAN_004_initial.0000000000
(PID.TID 0000.0001)  MDS_WRITE_FIELD: it,rec,kS,kL,kH=       0     1  15   1  15 file=THETA_004_initial.0000000000
(PID.TID 0000.0001)  MDS_WRITE_FIELD: it,rec,kS,kL,kH=       0     1  15   1  15 file=SALT_004_initial.0000000000
(PID.TID 0000.0001)  MDS_WRITE_FIELD: it,rec,kS,kL,kH=       0     1  15   1  15 file=UVEL_004_initial.0000000000
(PID.TID 0000.0001)  MDS_WRITE_FIELD: it,rec,kS,kL,kH=       0     1  15   1  15 file=VVEL_004_initial.0000000000
 EXTERNAL_FIELDS_LOAD,         0 : iP,iLd,i0,i1=   12    0   12    1 ; Wght=  0.5000000000  0.5000000000
 EXTERNAL_FIELDS_LOAD, it=         0 : Reading new data, i0,i1=   12    1 (prev=   12    0 )
(PID.TID 0000.0001)  MDS_READ_FIELD: opening global file: trenberth_taux.bin
(PID.TID 0000.0001)  MDS_READ_FIELD: opening global file: trenberth_taux.bin
(PID.TID 0000.0001)  MDS_READ_FIELD: opening global file: trenberth_tauy.bin
(PID.TID 0000.0001)  MDS_READ_FIELD: opening global file: trenberth_tauy.bin
(PID.TID 0000.0001)  MDS_READ_FIELD: opening global file: ncep_qnet.bin
(PID.TID 0000.0001)  MDS_READ_FIELD: opening global file: ncep_qnet.bin
(PID.TID 0000.0001)  MDS_READ_FIELD: opening global file: ncep_emp.bin
(PID.TID 0000.0001)  MDS_READ_FIELD: opening global file: ncep_emp.bin
(PID.TID 0000.0001)  MDS_READ_FIELD: opening global file: lev_sst.bin
(PID.TID 0000.0001)  MDS_READ_FIELD: opening global file: lev_sst.bin
(PID.TID 0000.0001)  MDS_READ_FIELD: opening global file: lev_sss.bin
(PID.TID 0000.0001)  MDS_READ_FIELD: opening global file: lev_sss.bin
 EXTERNAL_FIELDS_LOAD: (fu0,1),fu,fv= -4.5368E-02 -3.5633E-02 -4.0500E-02 -6.3753E-02
 EXTERNAL_FIELDS_LOAD: SST,SSS,Q,E-P=  5.3151E-02  3.4364E+01  2.6510E+02  1.0843E-05
DEBUG_STATS_RL:          Uvel (THERMODYNAMICS)  min=  0.00000000000000E+00
DEBUG_STATS_RL:          Uvel (THERMODYNAMICS)  max=  0.00000000000000E+00
DEBUG_STATS_RL:          Uvel (THERMODYNAMICS) mean=  0.00000000000000E+00
DEBUG_STATS_RL:          Uvel (THERMODYNAMICS) S.D.=  0.00000000000000E+00
DEBUG_STATS_RL:          Vvel (THERMODYNAMICS)  min=  0.00000000000000E+00
DEBUG_STATS_RL:          Vvel (THERMODYNAMICS)  max=  0.00000000000000E+00
DEBUG_STATS_RL:          Vvel (THERMODYNAMICS) mean=  0.00000000000000E+00
DEBUG_STATS_RL:          Vvel (THERMODYNAMICS) S.D.=  0.00000000000000E+00
DEBUG_STATS_RL:          Wvel (THERMODYNAMICS)  min=  0.00000000000000E+00
DEBUG_STATS_RL:          Wvel (THERMODYNAMICS)  max=  0.00000000000000E+00
DEBUG_STATS_RL:          Wvel (THERMODYNAMICS) mean=  0.00000000000000E+00
DEBUG_STATS_RL:          Wvel (THERMODYNAMICS) S.D.=  0.00000000000000E+00
DEBUG_STATS_RL:         Theta (THERMODYNAMICS)  min= -1.90008403747784E+00
DEBUG_STATS_RL:         Theta (THERMODYNAMICS)  max=  2.97271946952595E+01
DEBUG_STATS_RL:         Theta (THERMODYNAMICS) mean=  5.88768839286622E+00
DEBUG_STATS_RL:         Theta (THERMODYNAMICS) S.D.=  6.86642666817014E+00
DEBUG_STATS_RL:          Salt (THERMODYNAMICS)  min=  2.97553447570496E+01
DEBUG_STATS_RL:          Salt (THERMODYNAMICS)  max=  3.74679443483595E+01
DEBUG_STATS_RL:          Salt (THERMODYNAMICS) mean=  3.47210286338743E+01
DEBUG_STATS_RL:          Salt (THERMODYNAMICS) S.D.=  4.86087499023178E-01
DEBUG_STATS_RL:         GtNm1 (THERMODYNAMICS)  min= -1.86439527700561E-06
DEBUG_STATS_RL:         GtNm1 (THERMODYNAMICS)  max=  1.36721340415948E-06
DEBUG_STATS_RL:         GtNm1 (THERMODYNAMICS) mean=  7.74813807483499E-09
DEBUG_STATS_RL:         GtNm1 (THERMODYNAMICS) S.D.=  1.45681473038214E-07
DEBUG_STATS_RL:         GsNm1 (THERMODYNAMICS)  min= -4.05818616820910E-07
DEBUG_STATS_RL:         GsNm1 (THERMODYNAMICS)  max=  2.29531573928472E-07
DEBUG_STATS_RL:         GsNm1 (THERMODYNAMICS) mean= -1.12291606035185E-10
DEBUG_STATS_RL:         GsNm1 (THERMODYNAMICS) S.D.=  8.01596479778351E-09
DEBUG_STATS_RL:                EtaN (DYNAMICS)  min=  0.00000000000000E+00
DEBUG_STATS_RL:                EtaN (DYNAMICS)  max=  0.00000000000000E+00
DEBUG_STATS_RL:                EtaN (DYNAMICS) mean=  0.00000000000000E+00
DEBUG_STATS_RL:                EtaN (DYNAMICS) S.D.=  0.00000000000000E+00
DEBUG_STATS_RL:                Uvel (DYNAMICS)  min=  0.00000000000000E+00
DEBUG_STATS_RL:                Uvel (DYNAMICS)  max=  0.00000000000000E+00
DEBUG_STATS_RL:                Uvel (DYNAMICS) mean=  0.00000000000000E+00
DEBUG_STATS_RL:                Uvel (DYNAMICS) S.D.=  0.00000000000000E+00
DEBUG_STATS_RL:                Vvel (DYNAMICS)  min=  0.00000000000000E+00
DEBUG_STATS_RL:                Vvel (DYNAMICS)  max=  0.00000000000000E+00
DEBUG_STATS_RL:                Vvel (DYNAMICS) mean=  0.00000000000000E+00
DEBUG_STATS_RL:                Vvel (DYNAMICS) S.D.=  0.00000000000000E+00
DEBUG_STATS_RL:                Wvel (DYNAMICS)  min=  0.00000000000000E+00
DEBUG_STATS_RL:                Wvel (DYNAMICS)  max=  0.00000000000000E+00
DEBUG_STATS_RL:                Wvel (DYNAMICS) mean=  0.00000000000000E+00
DEBUG_STATS_RL:                Wvel (DYNAMICS) S.D.=  0.00000000000000E+00
DEBUG_STATS_RL:               Theta (DYNAMICS)  min= -1.90008403747784E+00
DEBUG_STATS_RL:               Theta (DYNAMICS)  max=  2.97271946952595E+01
DEBUG_STATS_RL:               Theta (DYNAMICS) mean=  5.88768839286622E+00
DEBUG_STATS_RL:               Theta (DYNAMICS) S.D.=  6.86642666817014E+00
DEBUG_STATS_RL:                Salt (DYNAMICS)  min=  2.97553447570496E+01
DEBUG_STATS_RL:                Salt (DYNAMICS)  max=  3.74679443483595E+01
DEBUG_STATS_RL:                Salt (DYNAMICS) mean=  3.47210286338743E+01
DEBUG_STATS_RL:                Salt (DYNAMICS) S.D.=  4.86087499023178E-01
DEBUG_STATS_RL:                  Gu (DYNAMICS)  min= -1.88463941327122E-02
DEBUG_STATS_RL:                  Gu (DYNAMICS)  max=  1.79558089566906E-02
DEBUG_STATS_RL:                  Gu (DYNAMICS) mean= -4.92170263091562E-04
DEBUG_STATS_RL:                  Gu (DYNAMICS) S.D.=  2.60942615783521E-03
DEBUG_STATS_RL:                  Gv (DYNAMICS)  min= -2.24604397806284E-02
DEBUG_STATS_RL:                  Gv (DYNAMICS)  max=  3.16924647698746E-02
DEBUG_STATS_RL:                  Gv (DYNAMICS) mean=  1.42637173423644E-03
DEBUG_STATS_RL:                  Gv (DYNAMICS) S.D.=  5.24528348826057E-03
DEBUG_STATS_RL:               GuNm1 (DYNAMICS)  min= -1.03714184811086E-05
DEBUG_STATS_RL:               GuNm1 (DYNAMICS)  max=  1.05704223291197E-05
DEBUG_STATS_RL:               GuNm1 (DYNAMICS) mean= -3.73179039296287E-08
DEBUG_STATS_RL:               GuNm1 (DYNAMICS) S.D.=  1.41970631831902E-06
DEBUG_STATS_RL:               GvNm1 (DYNAMICS)  min= -1.23968624569376E-05
DEBUG_STATS_RL:               GvNm1 (DYNAMICS)  max=  1.76875466256686E-05
DEBUG_STATS_RL:               GvNm1 (DYNAMICS) mean=  7.84919304799918E-07
DEBUG_STATS_RL:               GvNm1 (DYNAMICS) S.D.=  2.90104504215427E-06
DEBUG_STATS_RL:               GtNm1 (DYNAMICS)  min= -1.86439527700561E-06
DEBUG_STATS_RL:               GtNm1 (DYNAMICS)  max=  1.36721340415948E-06
DEBUG_STATS_RL:               GtNm1 (DYNAMICS) mean=  7.74813807483499E-09
DEBUG_STATS_RL:               GtNm1 (DYNAMICS) S.D.=  1.45681473038214E-07
DEBUG_STATS_RL:               GsNm1 (DYNAMICS)  min= -4.05818616820910E-07
DEBUG_STATS_RL:               GsNm1 (DYNAMICS)  max=  2.29531573928472E-07
DEBUG_STATS_RL:               GsNm1 (DYNAMICS) mean= -1.12291606035185E-10
DEBUG_STATS_RL:               GsNm1 (DYNAMICS) S.D.=  8.01596479778351E-09
(PID.TID 0000.0001) SOLVE_FOR_PRESSURE: putPmEinXvector =    F
DEBUG_STATS_RL:    cg2d_b (SOLVE_FOR_PRESSURE)  min= -3.88119248468625E+04
DEBUG_STATS_RL:    cg2d_b (SOLVE_FOR_PRESSURE)  max=  2.08342846878179E+04
DEBUG_STATS_RL:    cg2d_b (SOLVE_FOR_PRESSURE) mean=  6.21173429299606E-02
DEBUG_STATS_RL:    cg2d_b (SOLVE_FOR_PRESSURE) S.D.=  4.96776128533401E+03
 cg2d: Sum(rhs),rhsMax =   3.70508933663496E-03  2.54927113998744E+00
(PID.TID 0000.0001)  cg2d: iter=     1 ; resid.=  2.38343646543680E+00
(PID.TID 0000.0001)  cg2d: iter=     2 ; resid.=  1.64553289021546E+00
(PID.TID 0000.0001)  cg2d: iter=     3 ; resid.=  1.31731085764948E+00
(PID.TID 0000.0001)  cg2d: iter=     4 ; resid.=  1.04564492694376E+00
(PID.TID 0000.0001)  cg2d: iter=     5 ; resid.=  8.61432541864343E-01
(PID.TID 0000.0001)  cg2d: iter=     6 ; resid.=  7.08936816956864E-01
(PID.TID 0000.0001)  cg2d: iter=     7 ; resid.=  5.99672902970714E-01
(PID.TID 0000.0001)  cg2d: iter=     8 ; resid.=  5.18494552419156E-01
(PID.TID 0000.0001)  cg2d: iter=     9 ; resid.=  4.03759345215046E-01
(PID.TID 0000.0001)  cg2d: iter=    10 ; resid.=  3.29907647451916E-01
(PID.TID 0000.0001)  cg2d: iter=    11 ; resid.=  2.98713762957456E-01
(PID.TID 0000.0001)  cg2d: iter=    12 ; resid.=  2.73922661251815E-01
(PID.TID 0000.0001)  cg2d: iter=    13 ; resid.=  2.39857216163276E-01
(PID.TID 0000.0001)  cg2d: iter=    14 ; resid.=  2.02096160535591E-01
(PID.TID 0000.0001)  cg2d: iter=    15 ; resid.=  1.78566822056842E-01
(PID.TID 0000.0001)  cg2d: iter=    16 ; resid.=  1.57281837185055E-01
(PID.TID 0000.0001)  cg2d: iter=    17 ; resid.=  1.49332553444199E-01
(PID.TID 0000.0001)  cg2d: iter=    18 ; resid.=  1.39177736578575E-01
(PID.TID 0000.0001)  cg2d: iter=    19 ; resid.=  1.16021019428996E-01
(PID.TID 0000.0001)  cg2d: iter=    20 ; resid.=  8.52415272444822E-02
(PID.TID 0000.0001)  cg2d: iter=    21 ; resid.=  6.58915350591917E-02
(PID.TID 0000.0001)  cg2d: iter=    22 ; resid.=  4.96836083734921E-02
(PID.TID 0000.0001)  cg2d: iter=    23 ; resid.=  3.38967508769628E-02
(PID.TID 0000.0001)  cg2d: iter=    24 ; resid.=  2.62127212994744E-02
(PID.TID 0000.0001)  cg2d: iter=    25 ; resid.=  2.01948312048181E-02
(PID.TID 0000.0001)  cg2d: iter=    26 ; resid.=  1.68439708673889E-02
(PID.TID 0000.0001)  cg2d: iter=    27 ; resid.=  1.36226244838434E-02
(PID.TID 0000.0001)  cg2d: iter=    28 ; resid.=  1.13377800634423E-02
(PID.TID 0000.0001)  cg2d: iter=    29 ; resid.=  9.76418528452080E-03
(PID.TID 0000.0001)  cg2d: iter=    30 ; resid.=  8.21201600900686E-03
(PID.TID 0000.0001)  cg2d: iter=    31 ; resid.=  6.93829390625480E-03
(PID.TID 0000.0001)  cg2d: iter=    32 ; resid.=  5.64403911051307E-03
(PID.TID 0000.0001)  cg2d: iter=    33 ; resid.=  4.38877651762413E-03
(PID.TID 0000.0001)  cg2d: iter=    34 ; resid.=  3.42026974924583E-03
(PID.TID 0000.0001)  cg2d: iter=    35 ; resid.=  2.76530041039289E-03
(PID.TID 0000.0001)  cg2d: iter=    36 ; resid.=  2.19930274519261E-03
(PID.TID 0000.0001)  cg2d: iter=    37 ; resid.=  1.71937907941594E-03
(PID.TID 0000.0001)  cg2d: iter=    38 ; resid.=  1.45994388242206E-03
(PID.TID 0000.0001)  cg2d: iter=    39 ; resid.=  1.30469979106551E-03
(PID.TID 0000.0001)  cg2d: iter=    40 ; resid.=  1.12807812962027E-03
(PID.TID 0000.0001)  cg2d: iter=    41 ; resid.=  9.12125648339374E-04
(PID.TID 0000.0001)  cg2d: iter=    42 ; resid.=  7.31322667016682E-04
(PID.TID 0000.0001)  cg2d: iter=    43 ; resid.=  6.12211567243358E-04
(PID.TID 0000.0001)  cg2d: iter=    44 ; resid.=  4.79226002894034E-04
(PID.TID 0000.0001)  cg2d: iter=    45 ; resid.=  4.02760879211508E-04
(PID.TID 0000.0001)  cg2d: iter=    46 ; resid.=  3.32542608984947E-04
(PID.TID 0000.0001)  cg2d: iter=    47 ; resid.=  2.86273682978859E-04
(PID.TID 0000.0001)  cg2d: iter=    48 ; resid.=  2.49926106748673E-04
(PID.TID 0000.0001)  cg2d: iter=    49 ; resid.=  1.95197203797897E-04
(PID.TID 0000.0001)  cg2d: iter=    50 ; resid.=  1.62945917189247E-04
(PID.TID 0000.0001)  cg2d: iter=    51 ; resid.=  1.27925449887437E-04
(PID.TID 0000.0001)  cg2d: iter=    52 ; resid.=  1.11598292067533E-04
(PID.TID 0000.0001)  cg2d: iter=    53 ; resid.=  1.08627230313853E-04
(PID.TID 0000.0001)  cg2d: iter=    54 ; resid.=  9.64518102026166E-05
(PID.TID 0000.0001)  cg2d: iter=    55 ; resid.=  7.70401731391717E-05
(PID.TID 0000.0001)  cg2d: iter=    56 ; resid.=  5.77362144332521E-05
(PID.TID 0000.0001)  cg2d: iter=    57 ; resid.=  4.37350396618924E-05
(PID.TID 0000.0001)  cg2d: iter=    58 ; resid.=  3.51600493902572E-05
(PID.TID 0000.0001)  cg2d: iter=    59 ; resid.=  2.92773452359468E-05
(PID.TID 0000.0001)  cg2d: iter=    60 ; resid.=  2.31968062772643E-05
(PID.TID 0000.0001)  cg2d: iter=    61 ; resid.=  1.98618800002699E-05
(PID.TID 0000.0001)  cg2d: iter=    62 ; resid.=  1.63897566534421E-05
(PID.TID 0000.0001)  cg2d: iter=    63 ; resid.=  1.33116395161955E-05
(PID.TID 0000.0001)  cg2d: iter=    64 ; resid.=  1.04795531105878E-05
(PID.TID 0000.0001)  cg2d: iter=    65 ; resid.=  8.64913416261349E-06
(PID.TID 0000.0001)  cg2d: iter=    66 ; resid.=  6.95075040878936E-06
(PID.TID 0000.0001)  cg2d: iter=    67 ; resid.=  6.09213700918348E-06
(PID.TID 0000.0001)  cg2d: iter=    68 ; resid.=  4.86208170084666E-06
(PID.TID 0000.0001)  cg2d: iter=    69 ; resid.=  3.56468057139187E-06
(PID.TID 0000.0001)  cg2d: iter=    70 ; resid.=  2.86217833704584E-06
(PID.TID 0000.0001)  cg2d: iter=    71 ; resid.=  2.26299924551857E-06
(PID.TID 0000.0001)  cg2d: iter=    72 ; resid.=  1.86257604386848E-06
(PID.TID 0000.0001)  cg2d: iter=    73 ; resid.=  1.52803484890998E-06
(PID.TID 0000.0001)  cg2d: iter=    74 ; resid.=  1.23129305376080E-06
(PID.TID 0000.0001)  cg2d: iter=    75 ; resid.=  9.68983604992151E-07
(PID.TID 0000.0001)  cg2d: iter=    76 ; resid.=  8.40332512689916E-07
(PID.TID 0000.0001)  cg2d: iter=    77 ; resid.=  6.82674070914141E-07
(PID.TID 0000.0001)  cg2d: iter=    78 ; resid.=  5.47873014853608E-07
(PID.TID 0000.0001)  cg2d: iter=    79 ; resid.=  4.22198676581485E-07
(PID.TID 0000.0001)  cg2d: iter=    80 ; resid.=  3.44495225404575E-07
(PID.TID 0000.0001)  cg2d: iter=    81 ; resid.=  2.84450929890679E-07
(PID.TID 0000.0001)  cg2d: iter=    82 ; resid.=  2.39856536067081E-07
(PID.TID 0000.0001)  cg2d: iter=    83 ; resid.=  1.98042892726902E-07
(PID.TID 0000.0001)  cg2d: iter=    84 ; resid.=  1.56017267032435E-07
(PID.TID 0000.0001)  cg2d: iter=    85 ; resid.=  1.31217330373480E-07
(PID.TID 0000.0001)  cg2d: iter=    86 ; resid.=  1.04869574495986E-07
(PID.TID 0000.0001)  cg2d: iter=    87 ; resid.=  8.95835939473440E-08
(PID.TID 0000.0001)  cg2d: iter=    88 ; resid.=  7.60344149308289E-08
(PID.TID 0000.0001)  cg2d: iter=    89 ; resid.=  6.47740415299042E-08
(PID.TID 0000.0001)  cg2d: iter=    90 ; resid.=  5.59580434136261E-08
(PID.TID 0000.0001)  cg2d: iter=    91 ; resid.=  5.07168325489159E-08
(PID.TID 0000.0001)  cg2d: iter=    92 ; resid.=  4.45024035488229E-08
(PID.TID 0000.0001)  cg2d: iter=    93 ; resid.=  3.46968197704002E-08
(PID.TID 0000.0001)  cg2d: iter=    94 ; resid.=  2.56407402681912E-08
(PID.TID 0000.0001)  cg2d: iter=    95 ; resid.=  1.88257101675793E-08
(PID.TID 0000.0001)  cg2d: iter=    96 ; resid.=  1.41177270415685E-08
(PID.TID 0000.0001)  cg2d: iter=    97 ; resid.=  1.03067786097999E-08
(PID.TID 0000.0001)  cg2d: iter=    98 ; resid.=  7.20624682145264E-09
(PID.TID 0000.0001)  cg2d: iter=    99 ; resid.=  5.44694268090527E-09
(PID.TID 0000.0001)  cg2d: iter=   100 ; resid.=  4.72851603134001E-09
(PID.TID 0000.0001)  cg2d: iter=   101 ; resid.=  4.16172048235345E-09
(PID.TID 0000.0001)  cg2d: iter=   102 ; resid.=  3.25418041210469E-09
(PID.TID 0000.0001)  cg2d: iter=   103 ; resid.=  2.49637892346614E-09
(PID.TID 0000.0001)  cg2d: iter=   104 ; resid.=  2.01752765626404E-09
(PID.TID 0000.0001)  cg2d: iter=   105 ; resid.=  1.59242732473843E-09
(PID.TID 0000.0001)  cg2d: iter=   106 ; resid.=  1.12317507664858E-09
(PID.TID 0000.0001)  cg2d: iter=   107 ; resid.=  8.30642349725304E-10
(PID.TID 0000.0001)  cg2d: iter=   108 ; resid.=  6.84230051541693E-10
(PID.TID 0000.0001)  cg2d: iter=   109 ; resid.=  6.02498282169179E-10
(PID.TID 0000.0001)  cg2d: iter=   110 ; resid.=  5.40994870888769E-10
(PID.TID 0000.0001)  cg2d: iter=   111 ; resid.=  4.44171677289195E-10
(PID.TID 0000.0001)  cg2d: iter=   112 ; resid.=  3.41220292244799E-10
(PID.TID 0000.0001)  cg2d: iter=   113 ; resid.=  2.99079318671011E-10
(PID.TID 0000.0001)  cg2d: iter=   114 ; resid.=  2.45546911486934E-10
(PID.TID 0000.0001)  cg2d: iter=   115 ; resid.=  1.89667078924356E-10
(PID.TID 0000.0001)  cg2d: iter=   116 ; resid.=  1.51032235463081E-10
(PID.TID 0000.0001)  cg2d: iter=   117 ; resid.=  1.23924465176108E-10
(PID.TID 0000.0001)  cg2d: iter=   118 ; resid.=  1.05664408732008E-10
(PID.TID 0000.0001)  cg2d: iter=   119 ; resid.=  9.29294481393047E-11
(PID.TID 0000.0001)  cg2d: iter=   120 ; resid.=  7.31442626992853E-11
(PID.TID 0000.0001)  cg2d: iter=   121 ; resid.=  5.36837910437474E-11
(PID.TID 0000.0001)  cg2d: iter=   122 ; resid.=  3.58522518903503E-11
(PID.TID 0000.0001)  cg2d: iter=   123 ; resid.=  2.53425863329486E-11
(PID.TID 0000.0001)  cg2d: iter=   124 ; resid.=  1.87666662846556E-11
(PID.TID 0000.0001)  cg2d: iter=   125 ; resid.=  1.45748138479283E-11
(PID.TID 0000.0001)  cg2d: iter=   126 ; resid.=  1.09150647808558E-11
(PID.TID 0000.0001)  cg2d: iter=   127 ; resid.=  8.39533505997615E-12
(PID.TID 0000.0001)  cg2d: iter=   128 ; resid.=  6.70552104832707E-12
(PID.TID 0000.0001)  cg2d: iter=   129 ; resid.=  5.29045583165565E-12
(PID.TID 0000.0001)  cg2d: iter=   130 ; resid.=  3.84590658874937E-12
(PID.TID 0000.0001)  cg2d: iter=   131 ; resid.=  2.77528562227978E-12
(PID.TID 0000.0001)  cg2d: iter=   132 ; resid.=  2.13981080106313E-12
(PID.TID 0000.0001)  cg2d: iter=   133 ; resid.=  1.66087877217137E-12
(PID.TID 0000.0001)  cg2d: iter=   134 ; resid.=  1.23847992695304E-12
(PID.TID 0000.0001)  cg2d: iter=   135 ; resid.=  1.01695378370404E-12
(PID.TID 0000.0001)  cg2d: iter=   136 ; resid.=  8.06678796758868E-13
(PID.TID 0000.0001)  cg2d: iter=   137 ; resid.=  6.42196498469817E-13
(PID.TID 0000.0001)  cg2d: iter=   138 ; resid.=  4.45158344644209E-13
(PID.TID 0000.0001)  cg2d: iter=   139 ; resid.=  3.08138437385823E-13
(PID.TID 0000.0001)  cg2d: iter=   140 ; resid.=  1.94781248557529E-13
(PID.TID 0000.0001)  cg2d: iter=   141 ; resid.=  1.37570256238345E-13
(PID.TID 0000.0001)  cg2d: iter=   142 ; resid.=  9.14095109360737E-14
DEBUG_STATS_RL:    cg2d_x (SOLVE_FOR_PRESSURE)  min= -7.92995316241037E+00
DEBUG_STATS_RL:    cg2d_x (SOLVE_FOR_PRESSURE)  max=  6.47052774142570E+00
DEBUG_STATS_RL:    cg2d_x (SOLVE_FOR_PRESSURE) mean= -6.24895611626178E-01
DEBUG_STATS_RL:    cg2d_x (SOLVE_FOR_PRESSURE) S.D.=  2.90746934239133E+00
(PID.TID 0000.0001)      cg2d_init_res =   6.15844453763648E+00
(PID.TID 0000.0001)      cg2d_iters(min,last) =      -1     142
(PID.TID 0000.0001)      cg2d_last_res =   9.14095109360737E-14
(PID.TID 0000.0001) // =======================================================
(PID.TID 0000.0001) // Begin MONITOR dynamic field statistics
(PID.TID 0000.0001) // =======================================================
(PID.TID 0000.0001) %MON time_tsnumber                =                     1
(PID.TID 0000.0001) %MON time_secondsf                =   8.6400000000000E+04
(PID.TID 0000.0001) %MON dynstat_eta_max              =   6.5958488699556E-01
(PID.TID 0000.0001) %MON dynstat_eta_min              =  -8.0835404305903E-01
(PID.TID 0000.0001) %MON dynstat_eta_mean             =  -6.4811745051338E-05
(PID.TID 0000.0001) %MON dynstat_eta_sd               =   2.5965440360324E-01
(PID.TID 0000.0001) %MON dynstat_eta_del2             =   2.5235511670410E-03
(PID.TID 0000.0001) %MON dynstat_uvel_max             =   1.5158309744614E-02
(PID.TID 0000.0001) %MON dynstat_uvel_min             =  -1.6708732943419E-02
(PID.TID 0000.0001) %MON dynstat_uvel_mean            =  -5.1383409808447E-04
(PID.TID 0000.0001) %MON dynstat_uvel_sd              =   1.2647344356106E-03
(PID.TID 0000.0001) %MON dynstat_uvel_del2            =   1.8282581448751E-05
(PID.TID 0000.0001) %MON dynstat_vvel_max             =   1.8053048862944E-02
(PID.TID 0000.0001) %MON dynstat_vvel_min             =  -2.1368040981480E-02
(PID.TID 0000.0001) %MON dynstat_vvel_mean            =   7.3100703241450E-04
(PID.TID 0000.0001) %MON dynstat_vvel_sd              =   2.4750813838834E-03
(PID.TID 0000.0001) %MON dynstat_vvel_del2            =   2.2977115073917E-05
(PID.TID 0000.0001) %MON dynstat_wvel_max             =   6.2732222545290E-05
(PID.TID 0000.0001) %MON dynstat_wvel_min             =  -5.6766294178854E-05
(PID.TID 0000.0001) %MON dynstat_wvel_mean            =   1.4218025072270E-23
(PID.TID 0000.0001) %MON dynstat_wvel_sd              =   7.1455736304658E-06
(PID.TID 0000.0001) %MON dynstat_wvel_del2            =   9.4973952358121E-08
(PID.TID 0000.0001) %MON dynstat_theta_max            =   2.9727194695260E+01
(PID.TID 0000.0001) %MON dynstat_theta_min            =  -1.9000840374778E+00
(PID.TID 0000.0001) %MON dynstat_theta_mean           =   3.6197724302513E+00
(PID.TID 0000.0001) %MON dynstat_theta_sd             =   4.4171656828419E+00
(PID.TID 0000.0001) %MON dynstat_theta_del2           =   5.6202417909033E-03
(PID.TID 0000.0001) %MON dynstat_salt_max             =   3.7467944348359E+01
(PID.TID 0000.0001) %MON dynstat_salt_min             =   2.9755344757050E+01
(PID.TID 0000.0001) %MON dynstat_salt_mean            =   3.4718006780215E+01
(PID.TID 0000.0001) %MON dynstat_salt_sd              =   2.9617241015380E-01
(PID.TID 0000.0001) %MON dynstat_salt_del2            =   1.0143399154494E-03
(PID.TID 0000.0001) %MON dynstat_sst_max              =   2.9727194695260E+01
(PID.TID 0000.0001) %MON dynstat_sst_min              =  -1.8999137783637E+00
(PID.TID 0000.0001) %MON dynstat_sst_mean             =   1.8488019611965E+01
(PID.TID 0000.0001) %MON dynstat_sst_sd               =   9.1743793974769E+00
(PID.TID 0000.0001) %MON dynstat_sst_del2             =   2.7037080023366E-02
(PID.TID 0000.0001) %MON dynstat_sss_max              =   3.7467944348359E+01
(PID.TID 0000.0001) %MON dynstat_sss_min              =   2.9755344757050E+01
(PID.TID 0000.0001) %MON dynstat_sss_mean             =   3.4849544839665E+01
(PID.TID 0000.0001) %MON dynstat_sss_sd               =   9.6353032327657E-01
(PID.TID 0000.0001) %MON dynstat_sss_del2             =   8.0177080051670E-03
(PID.TID 0000.0001) %MON forcing_qnet_max             =   4.2589080810547E+02
(PID.TID 0000.0001) %MON forcing_qnet_min             =  -1.8702698516846E+02
(PID.TID 0000.0001) %MON forcing_qnet_mean            =  -1.6700205338390E+01
(PID.TID 0000.0001) %MON forcing_qnet_sd              =   1.1285666794876E+02
(PID.TID 0000.0001) %MON forcing_qnet_del2            =   9.9079877721394E-01
(PID.TID 0000.0001) %MON forcing_qsw_max              =   0.0000000000000E+00
(PID.TID 0000.0001) %MON forcing_qsw_min              =   0.0000000000000E+00
(PID.TID 0000.0001) %MON forcing_qsw_mean             =   0.0000000000000E+00
(PID.TID 0000.0001) %MON forcing_qsw_sd               =   0.0000000000000E+00
(PID.TID 0000.0001) %MON forcing_qsw_del2             =   0.0000000000000E+00
(PID.TID 0000.0001) %MON forcing_empmr_max            =   8.3243762105667E-05
(PID.TID 0000.0001) %MON forcing_empmr_min            =  -7.4169506092403E-05
(PID.TID 0000.0001) %MON forcing_empmr_mean           =   7.7639069592805E-07
(PID.TID 0000.0001) %MON forcing_empmr_sd             =   2.7794934142646E-05
(PID.TID 0000.0001) %MON forcing_empmr_del2           =   3.6436962197033E-07
(PID.TID 0000.0001) %MON forcing_fu_max               =   2.7488999068737E-01
(PID.TID 0000.0001) %MON forcing_fu_min               =  -1.6014087945223E-01
(PID.TID 0000.0001) %MON forcing_fu_mean              =   1.6117127468124E-02
(PID.TID 0000.0001) %MON forcing_fu_sd                =   9.0153154829689E-02
(PID.TID 0000.0001) %MON forcing_fu_del2              =   6.5365667764057E-04
(PID.TID 0000.0001) %MON forcing_fv_max               =   2.0835298299789E-01
(PID.TID 0000.0001) %MON forcing_fv_min               =  -1.8690676242113E-01
(PID.TID 0000.0001) %MON forcing_fv_mean              =  -6.3653356424171E-03
(PID.TID 0000.0001) %MON forcing_fv_sd                =   4.5157892194461E-02
(PID.TID 0000.0001) %MON forcing_fv_del2              =   4.4595114894327E-04
(PID.TID 0000.0001) %MON trAdv_CFL_u_max              =   0.0000000000000E+00
(PID.TID 0000.0001) %MON trAdv_CFL_v_max              =   0.0000000000000E+00
(PID.TID 0000.0001) %MON trAdv_CFL_w_max              =   0.0000000000000E+00
(PID.TID 0000.0001) %MON advcfl_uvel_max              =   6.2569403145551E-03
(PID.TID 0000.0001) %MON advcfl_vvel_max              =   4.1514676605259E-03
(PID.TID 0000.0001) %MON advcfl_wvel_max              =   3.2395082918055E-02
(PID.TID 0000.0001) %MON advcfl_W_hf_max              =   2.5775062655917E-02
(PID.TID 0000.0001) %MON pe_b_mean                    =   8.6272545460768E-05
(PID.TID 0000.0001) %MON ke_max                       =   1.9814789972770E-04
(PID.TID 0000.0001) %MON ke_mean                      =   3.8367971682894E-06
(PID.TID 0000.0001) %MON ke_vol                       =   1.3226782436723E+18
(PID.TID 0000.0001) %MON vort_r_min                   =  -8.7828725082878E-08
(PID.TID 0000.0001) %MON vort_r_max                   =   6.7513066589479E-08
(PID.TID 0000.0001) %MON vort_a_mean                  =  -2.5274807339748E-05
(PID.TID 0000.0001) %MON vort_a_sd                    =   7.3604247148404E-05
(PID.TID 0000.0001) %MON vort_p_mean                  =  -3.1845655726768E-05
(PID.TID 0000.0001) %MON vort_p_sd                    =   1.3162541835841E-04
(PID.TID 0000.0001) %MON surfExpan_theta_mean         =   2.1638492764469E-05
(PID.TID 0000.0001) %MON surfExpan_salt_mean          =   1.5080868114622E-06
(PID.TID 0000.0001) // =======================================================
(PID.TID 0000.0001) // End MONITOR dynamic field statistics
(PID.TID 0000.0001) // =======================================================
 EXTERNAL_FIELDS_LOAD,         1 : iP,iLd,i0,i1=   12    1   12    1 ; Wght=  0.4666666667  0.5333333333
 EXTERNAL_FIELDS_LOAD: (fu0,1),fu,fv= -4.5368E-02 -3.5633E-02 -4.0176E-02 -6.3320E-02
 EXTERNAL_FIELDS_LOAD: SST,SSS,Q,E-P=  1.1350E-01  3.4387E+01  2.6514E+02  1.0896E-05
DEBUG_STATS_RL:          Uvel (THERMODYNAMICS)  min= -1.67087329434185E-02
DEBUG_STATS_RL:          Uvel (THERMODYNAMICS)  max=  1.51583097446135E-02
DEBUG_STATS_RL:          Uvel (THERMODYNAMICS) mean= -3.52096936526638E-04
DEBUG_STATS_RL:          Uvel (THERMODYNAMICS) S.D.=  1.86833928835670E-03
DEBUG_STATS_RL:          Vvel (THERMODYNAMICS)  min= -2.13680409814798E-02
DEBUG_STATS_RL:          Vvel (THERMODYNAMICS)  max=  1.80530488629440E-02
DEBUG_STATS_RL:          Vvel (THERMODYNAMICS) mean=  4.18687830580762E-04
DEBUG_STATS_RL:          Vvel (THERMODYNAMICS) S.D.=  3.15859562057338E-03
DEBUG_STATS_RL:          Wvel (THERMODYNAMICS)  min= -5.67662941788540E-05
DEBUG_STATS_RL:          Wvel (THERMODYNAMICS)  max=  6.27322225452905E-05
DEBUG_STATS_RL:          Wvel (THERMODYNAMICS) mean= -6.86705814462453E-07
DEBUG_STATS_RL:          Wvel (THERMODYNAMICS) S.D.=  7.32274115195438E-06
DEBUG_STATS_RL:         Theta (THERMODYNAMICS)  min= -1.90098522879010E+00
DEBUG_STATS_RL:         Theta (THERMODYNAMICS)  max=  2.97095340437947E+01
DEBUG_STATS_RL:         Theta (THERMODYNAMICS) mean=  5.88749543736055E+00
DEBUG_STATS_RL:         Theta (THERMODYNAMICS) S.D.=  6.86314760962905E+00
DEBUG_STATS_RL:          Salt (THERMODYNAMICS)  min=  2.97581352932461E+01
DEBUG_STATS_RL:          Salt (THERMODYNAMICS)  max=  3.74605286579054E+01
DEBUG_STATS_RL:          Salt (THERMODYNAMICS) mean=  3.47208181251116E+01
DEBUG_STATS_RL:          Salt (THERMODYNAMICS) S.D.=  4.86163841911853E-01
DEBUG_STATS_RL:         GtNm1 (THERMODYNAMICS)  min= -2.05838465394329E-06
DEBUG_STATS_RL:         GtNm1 (THERMODYNAMICS)  max=  1.56284791394220E-06
DEBUG_STATS_RL:         GtNm1 (THERMODYNAMICS) mean=  7.11288623133315E-10
DEBUG_STATS_RL:         GtNm1 (THERMODYNAMICS) S.D.=  1.62405247486359E-07
DEBUG_STATS_RL:         GsNm1 (THERMODYNAMICS)  min= -3.79102167546362E-07
DEBUG_STATS_RL:         GsNm1 (THERMODYNAMICS)  max=  2.46252918647543E-07
DEBUG_STATS_RL:         GsNm1 (THERMODYNAMICS) mean= -1.40578943873544E-09
DEBUG_STATS_RL:         GsNm1 (THERMODYNAMICS) S.D.=  1.09128196268478E-08
DEBUG_STATS_RL:                EtaN (DYNAMICS)  min= -8.08354043059032E-01
DEBUG_STATS_RL:                EtaN (DYNAMICS)  max=  6.59584886995556E-01
DEBUG_STATS_RL:                EtaN (DYNAMICS) mean= -6.36998584736186E-02
DEBUG_STATS_RL:                EtaN (DYNAMICS) S.D.=  2.96378118490452E-01
DEBUG_STATS_RL:                Uvel (DYNAMICS)  min= -1.67087329434185E-02
DEBUG_STATS_RL:                Uvel (DYNAMICS)  max=  1.51583097446135E-02
DEBUG_STATS_RL:                Uvel (DYNAMICS) mean= -3.52096936526638E-04
DEBUG_STATS_RL:                Uvel (DYNAMICS) S.D.=  1.86833928835670E-03
DEBUG_STATS_RL:                Vvel (DYNAMICS)  min= -2.13680409814798E-02
DEBUG_STATS_RL:                Vvel (DYNAMICS)  max=  1.80530488629440E-02
DEBUG_STATS_RL:                Vvel (DYNAMICS) mean=  4.18687830580762E-04
DEBUG_STATS_RL:                Vvel (DYNAMICS) S.D.=  3.15859562057338E-03
DEBUG_STATS_RL:                Wvel (DYNAMICS)  min= -5.67662941788540E-05
DEBUG_STATS_RL:                Wvel (DYNAMICS)  max=  6.27322225452905E-05
DEBUG_STATS_RL:                Wvel (DYNAMICS) mean= -6.86705814462453E-07
DEBUG_STATS_RL:                Wvel (DYNAMICS) S.D.=  7.32274115195438E-06
DEBUG_STATS_RL:               Theta (DYNAMICS)  min= -1.90098522879010E+00
DEBUG_STATS_RL:               Theta (DYNAMICS)  max=  2.97095340437947E+01
DEBUG_STATS_RL:               Theta (DYNAMICS) mean=  5.88749543736055E+00
DEBUG_STATS_RL:               Theta (DYNAMICS) S.D.=  6.86314760962905E+00
DEBUG_STATS_RL:                Salt (DYNAMICS)  min=  2.97581352932461E+01
DEBUG_STATS_RL:                Salt (DYNAMICS)  max=  3.74605286579054E+01
DEBUG_STATS_RL:                Salt (DYNAMICS) mean=  3.47208181251116E+01
DEBUG_STATS_RL:                Salt (DYNAMICS) S.D.=  4.86163841911853E-01
DEBUG_STATS_RL:                  Gu (DYNAMICS)  min= -2.63534905788190E-02
DEBUG_STATS_RL:                  Gu (DYNAMICS)  max=  2.65397158955608E-02
DEBUG_STATS_RL:                  Gu (DYNAMICS) mean= -7.08922755625176E-04
DEBUG_STATS_RL:                  Gu (DYNAMICS) S.D.=  3.82377775961303E-03
DEBUG_STATS_RL:                  Gv (DYNAMICS)  min= -2.66839253639064E-02
DEBUG_STATS_RL:                  Gv (DYNAMICS)  max=  4.33942243529318E-02
DEBUG_STATS_RL:                  Gv (DYNAMICS) mean=  1.86339267346680E-03
DEBUG_STATS_RL:                  Gv (DYNAMICS) S.D.=  7.07051863842049E-03
DEBUG_STATS_RL:               GuNm1 (DYNAMICS)  min= -1.03305341162420E-05
DEBUG_STATS_RL:               GuNm1 (DYNAMICS)  max=  1.04926212857334E-05
DEBUG_STATS_RL:               GuNm1 (DYNAMICS) mean= -3.62753556388492E-08
DEBUG_STATS_RL:               GuNm1 (DYNAMICS) S.D.=  1.41175727995651E-06
DEBUG_STATS_RL:               GvNm1 (DYNAMICS)  min= -1.23277646715937E-05
DEBUG_STATS_RL:               GvNm1 (DYNAMICS)  max=  1.76310255950966E-05
DEBUG_STATS_RL:               GvNm1 (DYNAMICS) mean=  7.81228029114948E-07
DEBUG_STATS_RL:               GvNm1 (DYNAMICS) S.D.=  2.88968708338918E-06
DEBUG_STATS_RL:               GtNm1 (DYNAMICS)  min= -2.05838465394329E-06
DEBUG_STATS_RL:               GtNm1 (DYNAMICS)  max=  1.56284791394220E-06
DEBUG_STATS_RL:               GtNm1 (DYNAMICS) mean=  7.11288623133315E-10
DEBUG_STATS_RL:               GtNm1 (DYNAMICS) S.D.=  1.62405247486359E-07
DEBUG_STATS_RL:               GsNm1 (DYNAMICS)  min= -3.79102167546362E-07
DEBUG_STATS_RL:               GsNm1 (DYNAMICS)  max=  2.46252918647543E-07
DEBUG_STATS_RL:               GsNm1 (DYNAMICS) mean= -1.40578943873544E-09
DEBUG_STATS_RL:               GsNm1 (DYNAMICS) S.D.=  1.09128196268478E-08
DEBUG_STATS_RL:    cg2d_b (SOLVE_FOR_PRESSURE)  min= -3.99268621693434E+04
DEBUG_STATS_RL:    cg2d_b (SOLVE_FOR_PRESSURE)  max=  2.13584416095569E+04
DEBUG_STATS_RL:    cg2d_b (SOLVE_FOR_PRESSURE) mean=  1.25016343079861E-01
DEBUG_STATS_RL:    cg2d_b (SOLVE_FOR_PRESSURE) S.D.=  5.15353935319149E+03
 cg2d: Sum(rhs),rhsMax =   7.24857448103391E-03  2.62250320848983E+00
(PID.TID 0000.0001)  cg2d: iter=     1 ; resid.=  6.77476000681215E-01
(PID.TID 0000.0001)  cg2d: iter=     2 ; resid.=  7.16180019315372E-01
(PID.TID 0000.0001)  cg2d: iter=     3 ; resid.=  6.32790458661238E-01
(PID.TID 0000.0001)  cg2d: iter=     4 ; resid.=  5.38835590095563E-01
(PID.TID 0000.0001)  cg2d: iter=     5 ; resid.=  4.50503336162985E-01
(PID.TID 0000.0001)  cg2d: iter=     6 ; resid.=  3.41175675170562E-01
(PID.TID 0000.0001)  cg2d: iter=     7 ; resid.=  2.78751646336098E-01
(PID.TID 0000.0001)  cg2d: iter=     8 ; resid.=  2.40924375774880E-01
(PID.TID 0000.0001)  cg2d: iter=     9 ; resid.=  2.31281763417918E-01
(PID.TID 0000.0001)  cg2d: iter=    10 ; resid.=  2.12981719989499E-01
(PID.TID 0000.0001)  cg2d: iter=    11 ; resid.=  1.90774987146429E-01
(PID.TID 0000.0001)  cg2d: iter=    12 ; resid.=  1.62224729603632E-01
(PID.TID 0000.0001)  cg2d: iter=    13 ; resid.=  1.45468039196231E-01
(PID.TID 0000.0001)  cg2d: iter=    14 ; resid.=  1.29318300179981E-01
(PID.TID 0000.0001)  cg2d: iter=    15 ; resid.=  1.10455286623616E-01
(PID.TID 0000.0001)  cg2d: iter=    16 ; resid.=  9.54642227128330E-02
(PID.TID 0000.0001)  cg2d: iter=    17 ; resid.=  7.42662698693483E-02
(PID.TID 0000.0001)  cg2d: iter=    18 ; resid.=  5.81344928529103E-02
(PID.TID 0000.0001)  cg2d: iter=    19 ; resid.=  4.22236232298939E-02
(PID.TID 0000.0001)  cg2d: iter=    20 ; resid.=  3.07974631895204E-02
(PID.TID 0000.0001)  cg2d: iter=    21 ; resid.=  2.29088610650165E-02
(PID.TID 0000.0001)  cg2d: iter=    22 ; resid.=  1.79957436309847E-02
(PID.TID 0000.0001)  cg2d: iter=    23 ; resid.=  1.52929357644789E-02
(PID.TID 0000.0001)  cg2d: iter=    24 ; resid.=  1.32466628201308E-02
(PID.TID 0000.0001)  cg2d: iter=    25 ; resid.=  1.19105624178162E-02
(PID.TID 0000.0001)  cg2d: iter=    26 ; resid.=  1.03679854488651E-02
(PID.TID 0000.0001)  cg2d: iter=    27 ; resid.=  7.88830827552857E-03
(PID.TID 0000.0001)  cg2d: iter=    28 ; resid.=  6.28271458474237E-03
(PID.TID 0000.0001)  cg2d: iter=    29 ; resid.=  4.83835283367854E-03
(PID.TID 0000.0001)  cg2d: iter=    30 ; resid.=  4.23424253414066E-03
(PID.TID 0000.0001)  cg2d: iter=    31 ; resid.=  3.55656834572586E-03
(PID.TID 0000.0001)  cg2d: iter=    32 ; resid.=  2.89433395652664E-03
(PID.TID 0000.0001)  cg2d: iter=    33 ; resid.=  2.20674061565555E-03
(PID.TID 0000.0001)  cg2d: iter=    34 ; resid.=  1.75973270700590E-03
(PID.TID 0000.0001)  cg2d: iter=    35 ; resid.=  1.34647382853144E-03
(PID.TID 0000.0001)  cg2d: iter=    36 ; resid.=  1.12632087078102E-03
(PID.TID 0000.0001)  cg2d: iter=    37 ; resid.=  9.94360013556531E-04
(PID.TID 0000.0001)  cg2d: iter=    38 ; resid.=  8.02008541098699E-04
(PID.TID 0000.0001)  cg2d: iter=    39 ; resid.=  6.65496949003587E-04
(PID.TID 0000.0001)  cg2d: iter=    40 ; resid.=  5.41742023252321E-04
(PID.TID 0000.0001)  cg2d: iter=    41 ; resid.=  4.70246130973095E-04
(PID.TID 0000.0001)  cg2d: iter=    42 ; resid.=  3.98443011488919E-04
(PID.TID 0000.0001)  cg2d: iter=    43 ; resid.=  3.14076130800006E-04
(PID.TID 0000.0001)  cg2d: iter=    44 ; resid.=  2.74195579383454E-04
(PID.TID 0000.0001)  cg2d: iter=    45 ; resid.=  2.25915191998109E-04
(PID.TID 0000.0001)  cg2d: iter=    46 ; resid.=  1.80620749897448E-04
(PID.TID 0000.0001)  cg2d: iter=    47 ; resid.=  1.49129340758820E-04
(PID.TID 0000.0001)  cg2d: iter=    48 ; resid.=  1.23951829409755E-04
(PID.TID 0000.0001)  cg2d: iter=    49 ; resid.=  1.12252129143606E-04
(PID.TID 0000.0001)  cg2d: iter=    50 ; resid.=  9.56640095098862E-05
(PID.TID 0000.0001)  cg2d: iter=    51 ; resid.=  8.36622405283748E-05
(PID.TID 0000.0001)  cg2d: iter=    52 ; resid.=  7.52032067258205E-05
(PID.TID 0000.0001)  cg2d: iter=    53 ; resid.=  5.66143620408253E-05
(PID.TID 0000.0001)  cg2d: iter=    54 ; resid.=  4.41227161503108E-05
(PID.TID 0000.0001)  cg2d: iter=    55 ; resid.=  3.36845019563980E-05
(PID.TID 0000.0001)  cg2d: iter=    56 ; resid.=  2.57931792553332E-05
(PID.TID 0000.0001)  cg2d: iter=    57 ; resid.=  2.14831130176361E-05
(PID.TID 0000.0001)  cg2d: iter=    58 ; resid.=  1.82394868933915E-05
(PID.TID 0000.0001)  cg2d: iter=    59 ; resid.=  1.50142301585067E-05
(PID.TID 0000.0001)  cg2d: iter=    60 ; resid.=  1.29668140487412E-05
(PID.TID 0000.0001)  cg2d: iter=    61 ; resid.=  1.06431304487987E-05
(PID.TID 0000.0001)  cg2d: iter=    62 ; resid.=  8.03202616863177E-06
(PID.TID 0000.0001)  cg2d: iter=    63 ; resid.=  6.56690005575878E-06
(PID.TID 0000.0001)  cg2d: iter=    64 ; resid.=  5.41055814375342E-06
(PID.TID 0000.0001)  cg2d: iter=    65 ; resid.=  4.49332836938965E-06
(PID.TID 0000.0001)  cg2d: iter=    66 ; resid.=  3.51890279847002E-06
(PID.TID 0000.0001)  cg2d: iter=    67 ; resid.=  2.73690968981356E-06
(PID.TID 0000.0001)  cg2d: iter=    68 ; resid.=  2.12853449974226E-06
(PID.TID 0000.0001)  cg2d: iter=    69 ; resid.=  1.75564188700823E-06
(PID.TID 0000.0001)  cg2d: iter=    70 ; resid.=  1.31539256466551E-06
(PID.TID 0000.0001)  cg2d: iter=    71 ; resid.=  1.13871851050911E-06
(PID.TID 0000.0001)  cg2d: iter=    72 ; resid.=  9.71096615151760E-07
(PID.TID 0000.0001)  cg2d: iter=    73 ; resid.=  8.24525764224041E-07
(PID.TID 0000.0001)  cg2d: iter=    74 ; resid.=  6.72118724692893E-07
(PID.TID 0000.0001)  cg2d: iter=    75 ; resid.=  5.43178108441196E-07
(PID.TID 0000.0001)  cg2d: iter=    76 ; resid.=  4.76938318500999E-07
(PID.TID 0000.0001)  cg2d: iter=    77 ; resid.=  3.76516016612892E-07
(PID.TID 0000.0001)  cg2d: iter=    78 ; resid.=  3.00917247983081E-07
(PID.TID 0000.0001)  cg2d: iter=    79 ; resid.=  2.60491300075119E-07
(PID.TID 0000.0001)  cg2d: iter=    80 ; resid.=  2.18830609281956E-07
(PID.TID 0000.0001)  cg2d: iter=    81 ; resid.=  1.80976287312340E-07
(PID.TID 0000.0001)  cg2d: iter=    82 ; resid.=  1.42148046654056E-07
(PID.TID 0000.0001)  cg2d: iter=    83 ; resid.=  1.21616209350096E-07
(PID.TID 0000.0001)  cg2d: iter=    84 ; resid.=  1.04087936390305E-07
(PID.TID 0000.0001)  cg2d: iter=    85 ; resid.=  8.91015578523256E-08
(PID.TID 0000.0001)  cg2d: iter=    86 ; resid.=  7.62487249018886E-08
(PID.TID 0000.0001)  cg2d: iter=    87 ; resid.=  6.59494841432155E-08
(PID.TID 0000.0001)  cg2d: iter=    88 ; resid.=  5.29239433565821E-08
(PID.TID 0000.0001)  cg2d: iter=    89 ; resid.=  4.21210651151666E-08
(PID.TID 0000.0001)  cg2d: iter=    90 ; resid.=  3.37964884201055E-08
(PID.TID 0000.0001)  cg2d: iter=    91 ; resid.=  2.34314936952235E-08
(PID.TID 0000.0001)  cg2d: iter=    92 ; resid.=  1.55015359554306E-08
(PID.TID 0000.0001)  cg2d: iter=    93 ; resid.=  1.11659712334096E-08
(PID.TID 0000.0001)  cg2d: iter=    94 ; resid.=  8.13315758352782E-09
(PID.TID 0000.0001)  cg2d: iter=    95 ; resid.=  5.84532322049725E-09
(PID.TID 0000.0001)  cg2d: iter=    96 ; resid.=  4.70539543452975E-09
(PID.TID 0000.0001)  cg2d: iter=    97 ; resid.=  3.93920914086452E-09
(PID.TID 0000.0001)  cg2d: iter=    98 ; resid.=  3.21495915099300E-09
(PID.TID 0000.0001)  cg2d: iter=    99 ; resid.=  2.54623661206225E-09
(PID.TID 0000.0001)  cg2d: iter=   100 ; resid.=  2.10519953865378E-09
(PID.TID 0000.0001)  cg2d: iter=   101 ; resid.=  1.63273107438199E-09
(PID.TID 0000.0001)  cg2d: iter=   102 ; resid.=  1.20622490171696E-09
(PID.TID 0000.0001)  cg2d: iter=   103 ; resid.=  9.53175243232471E-10
(PID.TID 0000.0001)  cg2d: iter=   104 ; resid.=  7.43585888142946E-10
(PID.TID 0000.0001)  cg2d: iter=   105 ; resid.=  6.03946637526086E-10
(PID.TID 0000.0001)  cg2d: iter=   106 ; resid.=  5.31359514907937E-10
(PID.TID 0000.0001)  cg2d: iter=   107 ; resid.=  4.40638846206616E-10
(PID.TID 0000.0001)  cg2d: iter=   108 ; resid.=  3.61310854142797E-10
(PID.TID 0000.0001)  cg2d: iter=   109 ; resid.=  3.01342019334129E-10
(PID.TID 0000.0001)  cg2d: iter=   110 ; resid.=  2.58037938415407E-10
(PID.TID 0000.0001)  cg2d: iter=   111 ; resid.=  1.99256666814370E-10
(PID.TID 0000.0001)  cg2d: iter=   112 ; resid.=  1.71505774984201E-10
(PID.TID 0000.0001)  cg2d: iter=   113 ; resid.=  1.48909477754638E-10
(PID.TID 0000.0001)  cg2d: iter=   114 ; resid.=  1.22262313606874E-10
(PID.TID 0000.0001)  cg2d: iter=   115 ; resid.=  9.17130469095605E-11
(PID.TID 0000.0001)  cg2d: iter=   116 ; resid.=  6.45281578083988E-11
(PID.TID 0000.0001)  cg2d: iter=   117 ; resid.=  4.78748389887461E-11
(PID.TID 0000.0001)  cg2d: iter=   118 ; resid.=  3.73268007177369E-11
(PID.TID 0000.0001)  cg2d: iter=   119 ; resid.=  2.67697553086997E-11
(PID.TID 0000.0001)  cg2d: iter=   120 ; resid.=  1.75300978548152E-11
(PID.TID 0000.0001)  cg2d: iter=   121 ; resid.=  1.29039918619230E-11
(PID.TID 0000.0001)  cg2d: iter=   122 ; resid.=  1.04220273479044E-11
(PID.TID 0000.0001)  cg2d: iter=   123 ; resid.=  8.44415289597155E-12
(PID.TID 0000.0001)  cg2d: iter=   124 ; resid.=  6.69539523408376E-12
(PID.TID 0000.0001)  cg2d: iter=   125 ; resid.=  5.19179225580786E-12
(PID.TID 0000.0001)  cg2d: iter=   126 ; resid.=  3.69123556480494E-12
(PID.TID 0000.0001)  cg2d: iter=   127 ; resid.=  2.92398566506772E-12
(PID.TID 0000.0001)  cg2d: iter=   128 ; resid.=  2.24297844719640E-12
(PID.TID 0000.0001)  cg2d: iter=   129 ; resid.=  1.76832970661533E-12
(PID.TID 0000.0001)  cg2d: iter=   130 ; resid.=  1.36955341075299E-12
(PID.TID 0000.0001)  cg2d: iter=   131 ; resid.=  1.03715277040918E-12
(PID.TID 0000.0001)  cg2d: iter=   132 ; resid.=  7.50353224464295E-13
(PID.TID 0000.0001)  cg2d: iter=   133 ; resid.=  5.89830194435632E-13
(PID.TID 0000.0001)  cg2d: iter=   134 ; resid.=  4.36401637958076E-13
(PID.TID 0000.0001)  cg2d: iter=   135 ; resid.=  3.09105844526414E-13
(PID.TID 0000.0001)  cg2d: iter=   136 ; resid.=  2.26725045663897E-13
(PID.TID 0000.0001)  cg2d: iter=   137 ; resid.=  1.56619255266414E-13
(PID.TID 0000.0001)  cg2d: iter=   138 ; resid.=  1.18117591234444E-13
(PID.TID 0000.0001)  cg2d: iter=   139 ; resid.=  8.25495684717871E-14
DEBUG_STATS_RL:    cg2d_x (SOLVE_FOR_PRESSURE)  min= -1.28107398504858E+01
DEBUG_STATS_RL:    cg2d_x (SOLVE_FOR_PRESSURE)  max=  8.78773257185705E+00
DEBUG_STATS_RL:    cg2d_x (SOLVE_FOR_PRESSURE) mean= -1.18913616098268E+00
DEBUG_STATS_RL:    cg2d_x (SOLVE_FOR_PRESSURE) S.D.=  4.96558718580321E+00
(PID.TID 0000.0001)      cg2d_init_res =   5.58611064972239E-01
(PID.TID 0000.0001)      cg2d_iters(min,last) =      -1     139
(PID.TID 0000.0001)      cg2d_last_res =   8.25495684717871E-14
(PID.TID 0000.0001) // =======================================================
(PID.TID 0000.0001) // Begin MONITOR dynamic field statistics
(PID.TID 0000.0001) // =======================================================
(PID.TID 0000.0001) %MON time_tsnumber                =                     2
(PID.TID 0000.0001) %MON time_secondsf                =   1.7280000000000E+05
(PID.TID 0000.0001) %MON dynstat_eta_max              =   8.9579333046457E-01
(PID.TID 0000.0001) %MON dynstat_eta_min              =  -1.3058858155439E+00
(PID.TID 0000.0001) %MON dynstat_eta_mean             =  -1.3043905248860E-04
(PID.TID 0000.0001) %MON dynstat_eta_sd               =   4.3917501774902E-01
(PID.TID 0000.0001) %MON dynstat_eta_del2             =   2.5724604500063E-03
(PID.TID 0000.0001) %MON dynstat_uvel_max             =   3.1597520314895E-02
(PID.TID 0000.0001) %MON dynstat_uvel_min             =  -3.2832651788246E-02
(PID.TID 0000.0001) %MON dynstat_uvel_mean            =  -8.3315727722711E-04
(PID.TID 0000.0001) %MON dynstat_uvel_sd              =   2.3742331903120E-03
(PID.TID 0000.0001) %MON dynstat_uvel_del2            =   3.3885535468033E-05
(PID.TID 0000.0001) %MON dynstat_vvel_max             =   3.5574860728419E-02
(PID.TID 0000.0001) %MON dynstat_vvel_min             =  -4.2886544542962E-02
(PID.TID 0000.0001) %MON dynstat_vvel_mean            =   9.1799824155167E-04
(PID.TID 0000.0001) %MON dynstat_vvel_sd              =   4.1706325536508E-03
(PID.TID 0000.0001) %MON dynstat_vvel_del2            =   4.3733541012355E-05
(PID.TID 0000.0001) %MON dynstat_wvel_max             =   1.0648212526064E-04
(PID.TID 0000.0001) %MON dynstat_wvel_min             =  -9.6466841446014E-05
(PID.TID 0000.0001) %MON dynstat_wvel_mean            =   7.9834827210596E-23
(PID.TID 0000.0001) %MON dynstat_wvel_sd              =   1.1896177170254E-05
(PID.TID 0000.0001) %MON dynstat_wvel_del2            =   1.6711749607382E-07
(PID.TID 0000.0001) %MON dynstat_theta_max            =   2.9709534043795E+01
(PID.TID 0000.0001) %MON dynstat_theta_min            =  -1.9009852287901E+00
(PID.TID 0000.0001) %MON dynstat_theta_mean           =   3.6190585573549E+00
(PID.TID 0000.0001) %MON dynstat_theta_sd             =   4.4152823243213E+00
(PID.TID 0000.0001) %MON dynstat_theta_del2           =   5.5919838093008E-03
(PID.TID 0000.0001) %MON dynstat_salt_max             =   3.7460528657905E+01
(PID.TID 0000.0001) %MON dynstat_salt_min             =   2.9758135293246E+01
(PID.TID 0000.0001) %MON dynstat_salt_mean            =   3.4717953092758E+01
(PID.TID 0000.0001) %MON dynstat_salt_sd              =   2.9610748339420E-01
(PID.TID 0000.0001) %MON dynstat_salt_del2            =   1.0191390034859E-03
(PID.TID 0000.0001) %MON dynstat_sst_max              =   2.9709534043795E+01
(PID.TID 0000.0001) %MON dynstat_sst_min              =  -1.9009852287901E+00
(PID.TID 0000.0001) %MON dynstat_sst_mean             =   1.8492819262964E+01
(PID.TID 0000.0001) %MON dynstat_sst_sd               =   9.1610224399706E+00
(PID.TID 0000.0001) %MON dynstat_sst_del2             =   2.6713952288571E-02
(PID.TID 0000.0001) %MON dynstat_sss_max              =   3.7460528657905E+01
(PID.TID 0000.0001) %MON dynstat_sss_min              =   2.9758135293246E+01
(PID.TID 0000.0001) %MON dynstat_sss_mean             =   3.4849717878935E+01
(PID.TID 0000.0001) %MON dynstat_sss_sd               =   9.6418122074246E-01
(PID.TID 0000.0001) %MON dynstat_sss_del2             =   8.0067924300629E-03
(PID.TID 0000.0001) %MON forcing_qnet_max             =   4.2693899536133E+02
(PID.TID 0000.0001) %MON forcing_qnet_min             =  -1.8655982259115E+02
(PID.TID 0000.0001) %MON forcing_qnet_mean            =  -1.6687693382567E+01
(PID.TID 0000.0001) %MON forcing_qnet_sd              =   1.1263946608433E+02
(PID.TID 0000.0001) %MON forcing_qnet_del2            =   9.9183674388333E-01
(PID.TID 0000.0001) %MON forcing_qsw_max              =   0.0000000000000E+00
(PID.TID 0000.0001) %MON forcing_qsw_min              =   0.0000000000000E+00
(PID.TID 0000.0001) %MON forcing_qsw_mean             =   0.0000000000000E+00
(PID.TID 0000.0001) %MON forcing_qsw_sd               =   0.0000000000000E+00
(PID.TID 0000.0001) %MON forcing_qsw_del2             =   0.0000000000000E+00
(PID.TID 0000.0001) %MON forcing_empmr_max            =   8.2987928351486E-05
(PID.TID 0000.0001) %MON forcing_empmr_min            =  -7.3906322484163E-05
(PID.TID 0000.0001) %MON forcing_empmr_mean           =   7.8616045367356E-07
(PID.TID 0000.0001) %MON forcing_empmr_sd             =   2.7832317986922E-05
(PID.TID 0000.0001) %MON forcing_empmr_del2           =   3.6378785899555E-07
(PID.TID 0000.0001) %MON forcing_fu_max               =   2.7403144240379E-01
(PID.TID 0000.0001) %MON forcing_fu_min               =  -1.5949268937111E-01
(PID.TID 0000.0001) %MON forcing_fu_mean              =   1.6109434647086E-02
(PID.TID 0000.0001) %MON forcing_fu_sd                =   9.0138031840955E-02
(PID.TID 0000.0001) %MON forcing_fu_del2              =   6.5488191036968E-04
(PID.TID 0000.0001) %MON forcing_fv_max               =   2.0882657567660E-01
(PID.TID 0000.0001) %MON forcing_fv_min               =  -1.8632210493088E-01
(PID.TID 0000.0001) %MON forcing_fv_mean              =  -6.2915731155564E-03
(PID.TID 0000.0001) %MON forcing_fv_sd                =   4.5261152700224E-02
(PID.TID 0000.0001) %MON forcing_fv_del2              =   4.4588571962377E-04
(PID.TID 0000.0001) %MON trAdv_CFL_u_max              =   1.0008157533247E-02
(PID.TID 0000.0001) %MON trAdv_CFL_v_max              =   5.0682935172283E-03
(PID.TID 0000.0001) %MON trAdv_CFL_w_max              =   1.9542292979732E-02
(PID.TID 0000.0001) %MON advcfl_uvel_max              =   1.0809659058062E-02
(PID.TID 0000.0001) %MON advcfl_vvel_max              =   8.3321677872165E-03
(PID.TID 0000.0001) %MON advcfl_wvel_max              =   3.3206275682202E-02
(PID.TID 0000.0001) %MON advcfl_W_hf_max              =   3.7575522482491E-02
(PID.TID 0000.0001) %MON pe_b_mean                    =   2.4680644331193E-04
(PID.TID 0000.0001) %MON ke_max                       =   8.8820184122661E-04
(PID.TID 0000.0001) %MON ke_mean                      =   1.1063672564241E-05
(PID.TID 0000.0001) %MON ke_vol                       =   1.3226782436723E+18
(PID.TID 0000.0001) %MON vort_r_min                   =  -1.7596522865392E-07
(PID.TID 0000.0001) %MON vort_r_max                   =   1.4401319138977E-07
(PID.TID 0000.0001) %MON vort_a_mean                  =  -2.5274807288392E-05
(PID.TID 0000.0001) %MON vort_a_sd                    =   7.3604186080286E-05
(PID.TID 0000.0001) %MON vort_p_mean                  =  -3.1845655662060E-05
(PID.TID 0000.0001) %MON vort_p_sd                    =   1.3162516635200E-04
(PID.TID 0000.0001) %MON surfExpan_theta_mean         =   1.9214634520663E-05
(PID.TID 0000.0001) %MON surfExpan_salt_mean          =   1.1419527236742E-06
(PID.TID 0000.0001) // =======================================================
(PID.TID 0000.0001) // End MONITOR dynamic field statistics
(PID.TID 0000.0001) // =======================================================
 EXTERNAL_FIELDS_LOAD,         2 : iP,iLd,i0,i1=   12    1   12    1 ; Wght=  0.4333333333  0.5666666667
 EXTERNAL_FIELDS_LOAD: (fu0,1),fu,fv= -4.5368E-02 -3.5633E-02 -3.9851E-02 -6.2886E-02
 EXTERNAL_FIELDS_LOAD: SST,SSS,Q,E-P=  1.7385E-01  3.4410E+01  2.6519E+02  1.0949E-05
DEBUG_STATS_RL:          Uvel (THERMODYNAMICS)  min= -3.28326517882460E-02
DEBUG_STATS_RL:          Uvel (THERMODYNAMICS)  max=  3.15975203148952E-02
DEBUG_STATS_RL:          Uvel (THERMODYNAMICS) mean= -4.31209331548613E-04
DEBUG_STATS_RL:          Uvel (THERMODYNAMICS) S.D.=  3.69429508120514E-03
DEBUG_STATS_RL:          Vvel (THERMODYNAMICS)  min= -4.28865445429620E-02
DEBUG_STATS_RL:          Vvel (THERMODYNAMICS)  max=  3.55748607284192E-02
DEBUG_STATS_RL:          Vvel (THERMODYNAMICS) mean=  8.23437832120003E-05
DEBUG_STATS_RL:          Vvel (THERMODYNAMICS) S.D.=  6.09759878001438E-03
DEBUG_STATS_RL:          Wvel (THERMODYNAMICS)  min= -9.64668414460144E-05
DEBUG_STATS_RL:          Wvel (THERMODYNAMICS)  max=  1.06482125260636E-04
DEBUG_STATS_RL:          Wvel (THERMODYNAMICS) mean= -7.73072095318668E-07
DEBUG_STATS_RL:          Wvel (THERMODYNAMICS) S.D.=  1.16519816932335E-05
DEBUG_STATS_RL:         Theta (THERMODYNAMICS)  min= -1.90202654940726E+00
DEBUG_STATS_RL:         Theta (THERMODYNAMICS)  max=  2.96927550855528E+01
DEBUG_STATS_RL:         Theta (THERMODYNAMICS) mean=  5.88813215193410E+00
DEBUG_STATS_RL:         Theta (THERMODYNAMICS) S.D.=  6.86143684533885E+00
DEBUG_STATS_RL:          Salt (THERMODYNAMICS)  min=  2.97591038647054E+01
DEBUG_STATS_RL:          Salt (THERMODYNAMICS)  max=  3.74542227908612E+01
DEBUG_STATS_RL:          Salt (THERMODYNAMICS) mean=  3.47207630017560E+01
DEBUG_STATS_RL:          Salt (THERMODYNAMICS) S.D.=  4.86264715409498E-01
DEBUG_STATS_RL:         GtNm1 (THERMODYNAMICS)  min= -2.03720628836137E-06
DEBUG_STATS_RL:         GtNm1 (THERMODYNAMICS)  max=  1.98014975454440E-06
DEBUG_STATS_RL:         GtNm1 (THERMODYNAMICS) mean=  5.43151103420775E-09
DEBUG_STATS_RL:         GtNm1 (THERMODYNAMICS) S.D.=  1.74757594313713E-07
DEBUG_STATS_RL:         GsNm1 (THERMODYNAMICS)  min= -3.95268017167635E-07
DEBUG_STATS_RL:         GsNm1 (THERMODYNAMICS)  max=  2.36822471575105E-07
DEBUG_STATS_RL:         GsNm1 (THERMODYNAMICS) mean= -9.72959869017569E-10
DEBUG_STATS_RL:         GsNm1 (THERMODYNAMICS) S.D.=  1.21777587785525E-08
DEBUG_STATS_RL:                EtaN (DYNAMICS)  min= -1.30588581554389E+00
DEBUG_STATS_RL:                EtaN (DYNAMICS)  max=  8.95793330464566E-01
DEBUG_STATS_RL:                EtaN (DYNAMICS) mean= -1.21216734045126E-01
DEBUG_STATS_RL:                EtaN (DYNAMICS) S.D.=  5.06176063792377E-01
DEBUG_STATS_RL:                Uvel (DYNAMICS)  min= -3.28326517882460E-02
DEBUG_STATS_RL:                Uvel (DYNAMICS)  max=  3.15975203148952E-02
DEBUG_STATS_RL:                Uvel (DYNAMICS) mean= -4.31209331548613E-04
DEBUG_STATS_RL:                Uvel (DYNAMICS) S.D.=  3.69429508120514E-03
DEBUG_STATS_RL:                Vvel (DYNAMICS)  min= -4.28865445429620E-02
DEBUG_STATS_RL:                Vvel (DYNAMICS)  max=  3.55748607284192E-02
DEBUG_STATS_RL:                Vvel (DYNAMICS) mean=  8.23437832120003E-05
DEBUG_STATS_RL:                Vvel (DYNAMICS) S.D.=  6.09759878001438E-03
DEBUG_STATS_RL:                Wvel (DYNAMICS)  min= -9.64668414460144E-05
DEBUG_STATS_RL:                Wvel (DYNAMICS)  max=  1.06482125260636E-04
DEBUG_STATS_RL:                Wvel (DYNAMICS) mean= -7.73072095318668E-07
DEBUG_STATS_RL:                Wvel (DYNAMICS) S.D.=  1.16519816932335E-05
DEBUG_STATS_RL:               Theta (DYNAMICS)  min= -1.90202654940726E+00
DEBUG_STATS_RL:               Theta (DYNAMICS)  max=  2.96927550855528E+01
DEBUG_STATS_RL:               Theta (DYNAMICS) mean=  5.88813215193410E+00
DEBUG_STATS_RL:               Theta (DYNAMICS) S.D.=  6.86143684533885E+00
DEBUG_STATS_RL:                Salt (DYNAMICS)  min=  2.97591038647054E+01
DEBUG_STATS_RL:                Salt (DYNAMICS)  max=  3.74542227908612E+01
DEBUG_STATS_RL:                Salt (DYNAMICS) mean=  3.47207630017560E+01
DEBUG_STATS_RL:                Salt (DYNAMICS) S.D.=  4.86264715409498E-01
DEBUG_STATS_RL:                  Gu (DYNAMICS)  min= -3.45501353502791E-02
DEBUG_STATS_RL:                  Gu (DYNAMICS)  max=  4.60714576723068E-02
DEBUG_STATS_RL:                  Gu (DYNAMICS) mean= -4.91319324265439E-04
DEBUG_STATS_RL:                  Gu (DYNAMICS) S.D.=  5.51549955434055E-03
DEBUG_STATS_RL:                  Gv (DYNAMICS)  min= -3.96931999289545E-02
DEBUG_STATS_RL:                  Gv (DYNAMICS)  max=  5.00947882462182E-02
DEBUG_STATS_RL:                  Gv (DYNAMICS) mean=  1.59080507138096E-03
DEBUG_STATS_RL:                  Gv (DYNAMICS) S.D.=  8.60764207278988E-03
DEBUG_STATS_RL:               GuNm1 (DYNAMICS)  min= -9.83674267264340E-06
DEBUG_STATS_RL:               GuNm1 (DYNAMICS)  max=  9.97754992769564E-06
DEBUG_STATS_RL:               GuNm1 (DYNAMICS) mean= -3.44800150502951E-08
DEBUG_STATS_RL:               GuNm1 (DYNAMICS) S.D.=  1.38518897598042E-06
DEBUG_STATS_RL:               GvNm1 (DYNAMICS)  min= -1.21000185139792E-05
DEBUG_STATS_RL:               GvNm1 (DYNAMICS)  max=  1.74337631894603E-05
DEBUG_STATS_RL:               GvNm1 (DYNAMICS) mean=  7.80024694011833E-07
DEBUG_STATS_RL:               GvNm1 (DYNAMICS) S.D.=  2.86499125341584E-06
DEBUG_STATS_RL:               GtNm1 (DYNAMICS)  min= -2.03720628836137E-06
DEBUG_STATS_RL:               GtNm1 (DYNAMICS)  max=  1.98014975454440E-06
DEBUG_STATS_RL:               GtNm1 (DYNAMICS) mean=  5.43151103420775E-09
DEBUG_STATS_RL:               GtNm1 (DYNAMICS) S.D.=  1.74757594313713E-07
DEBUG_STATS_RL:               GsNm1 (DYNAMICS)  min= -3.95268017167635E-07
DEBUG_STATS_RL:               GsNm1 (DYNAMICS)  max=  2.36822471575105E-07
DEBUG_STATS_RL:               GsNm1 (DYNAMICS) mean= -9.72959869017569E-10
DEBUG_STATS_RL:               GsNm1 (DYNAMICS) S.D.=  1.21777587785525E-08
DEBUG_STATS_RL:    cg2d_b (SOLVE_FOR_PRESSURE)  min= -3.64986939154035E+04
DEBUG_STATS_RL:    cg2d_b (SOLVE_FOR_PRESSURE)  max=  2.02987899146816E+04
DEBUG_STATS_RL:    cg2d_b (SOLVE_FOR_PRESSURE) mean=  1.88697000447270E-01
DEBUG_STATS_RL:    cg2d_b (SOLVE_FOR_PRESSURE) S.D.=  4.89826020346504E+03
 cg2d: Sum(rhs),rhsMax =   1.19684709005950E-02  2.39733193890523E+00
(PID.TID 0000.0001)  cg2d: iter=     1 ; resid.=  3.77667002354520E-01
(PID.TID 0000.0001)  cg2d: iter=     2 ; resid.=  4.62032216385694E-01
(PID.TID 0000.0001)  cg2d: iter=     3 ; resid.=  4.01315123868014E-01
(PID.TID 0000.0001)  cg2d: iter=     4 ; resid.=  3.30590024273997E-01
(PID.TID 0000.0001)  cg2d: iter=     5 ; resid.=  2.98080182799504E-01
(PID.TID 0000.0001)  cg2d: iter=     6 ; resid.=  2.35724308183130E-01
(PID.TID 0000.0001)  cg2d: iter=     7 ; resid.=  1.83321414278110E-01
(PID.TID 0000.0001)  cg2d: iter=     8 ; resid.=  1.65921074460746E-01
(PID.TID 0000.0001)  cg2d: iter=     9 ; resid.=  1.53328072939477E-01
(PID.TID 0000.0001)  cg2d: iter=    10 ; resid.=  1.40034805119000E-01
(PID.TID 0000.0001)  cg2d: iter=    11 ; resid.=  1.26789340765891E-01
(PID.TID 0000.0001)  cg2d: iter=    12 ; resid.=  1.08777564597414E-01
(PID.TID 0000.0001)  cg2d: iter=    13 ; resid.=  9.24594510786055E-02
(PID.TID 0000.0001)  cg2d: iter=    14 ; resid.=  7.77810511187832E-02
(PID.TID 0000.0001)  cg2d: iter=    15 ; resid.=  6.26492177596744E-02
(PID.TID 0000.0001)  cg2d: iter=    16 ; resid.=  5.05797448366454E-02
(PID.TID 0000.0001)  cg2d: iter=    17 ; resid.=  4.58410857986011E-02
(PID.TID 0000.0001)  cg2d: iter=    18 ; resid.=  3.77842688221807E-02
(PID.TID 0000.0001)  cg2d: iter=    19 ; resid.=  2.81364896583258E-02
(PID.TID 0000.0001)  cg2d: iter=    20 ; resid.=  2.23081831361392E-02
(PID.TID 0000.0001)  cg2d: iter=    21 ; resid.=  1.88571544147433E-02
(PID.TID 0000.0001)  cg2d: iter=    22 ; resid.=  1.60662998570793E-02
(PID.TID 0000.0001)  cg2d: iter=    23 ; resid.=  1.30028058484223E-02
(PID.TID 0000.0001)  cg2d: iter=    24 ; resid.=  1.09310529992004E-02
(PID.TID 0000.0001)  cg2d: iter=    25 ; resid.=  9.07137957353800E-03
(PID.TID 0000.0001)  cg2d: iter=    26 ; resid.=  7.27081450548191E-03
(PID.TID 0000.0001)  cg2d: iter=    27 ; resid.=  6.29834337750288E-03
(PID.TID 0000.0001)  cg2d: iter=    28 ; resid.=  5.79555672169299E-03
(PID.TID 0000.0001)  cg2d: iter=    29 ; resid.=  4.84278311728262E-03
(PID.TID 0000.0001)  cg2d: iter=    30 ; resid.=  3.92916261353472E-03
(PID.TID 0000.0001)  cg2d: iter=    31 ; resid.=  3.04223606325265E-03
(PID.TID 0000.0001)  cg2d: iter=    32 ; resid.=  2.15031477251859E-03
(PID.TID 0000.0001)  cg2d: iter=    33 ; resid.=  1.64971218555102E-03
(PID.TID 0000.0001)  cg2d: iter=    34 ; resid.=  1.26921657876286E-03
(PID.TID 0000.0001)  cg2d: iter=    35 ; resid.=  1.01708691899143E-03
(PID.TID 0000.0001)  cg2d: iter=    36 ; resid.=  8.43621397638330E-04
(PID.TID 0000.0001)  cg2d: iter=    37 ; resid.=  7.47160790778516E-04
(PID.TID 0000.0001)  cg2d: iter=    38 ; resid.=  5.84376142944405E-04
(PID.TID 0000.0001)  cg2d: iter=    39 ; resid.=  4.40357455398031E-04
(PID.TID 0000.0001)  cg2d: iter=    40 ; resid.=  3.87298147703030E-04
(PID.TID 0000.0001)  cg2d: iter=    41 ; resid.=  3.71119621231025E-04
(PID.TID 0000.0001)  cg2d: iter=    42 ; resid.=  3.46678379087851E-04
(PID.TID 0000.0001)  cg2d: iter=    43 ; resid.=  2.66144065022893E-04
(PID.TID 0000.0001)  cg2d: iter=    44 ; resid.=  2.06018006207065E-04
(PID.TID 0000.0001)  cg2d: iter=    45 ; resid.=  1.71215290617391E-04
(PID.TID 0000.0001)  cg2d: iter=    46 ; resid.=  1.38817460938478E-04
(PID.TID 0000.0001)  cg2d: iter=    47 ; resid.=  1.16249285860028E-04
(PID.TID 0000.0001)  cg2d: iter=    48 ; resid.=  9.39518766356521E-05
(PID.TID 0000.0001)  cg2d: iter=    49 ; resid.=  7.81880340661896E-05
(PID.TID 0000.0001)  cg2d: iter=    50 ; resid.=  7.05531715403025E-05
(PID.TID 0000.0001)  cg2d: iter=    51 ; resid.=  6.52652881243736E-05
(PID.TID 0000.0001)  cg2d: iter=    52 ; resid.=  5.32946611674477E-05
(PID.TID 0000.0001)  cg2d: iter=    53 ; resid.=  4.20375829474196E-05
(PID.TID 0000.0001)  cg2d: iter=    54 ; resid.=  3.07355419412742E-05
(PID.TID 0000.0001)  cg2d: iter=    55 ; resid.=  2.48598677780169E-05
(PID.TID 0000.0001)  cg2d: iter=    56 ; resid.=  2.11129398279130E-05
(PID.TID 0000.0001)  cg2d: iter=    57 ; resid.=  1.69125770283882E-05
(PID.TID 0000.0001)  cg2d: iter=    58 ; resid.=  1.32005373560250E-05
(PID.TID 0000.0001)  cg2d: iter=    59 ; resid.=  1.06339590433220E-05
(PID.TID 0000.0001)  cg2d: iter=    60 ; resid.=  8.37420051578625E-06
(PID.TID 0000.0001)  cg2d: iter=    61 ; resid.=  6.54391696555154E-06
(PID.TID 0000.0001)  cg2d: iter=    62 ; resid.=  5.37086201434368E-06
(PID.TID 0000.0001)  cg2d: iter=    63 ; resid.=  4.56431766021354E-06
(PID.TID 0000.0001)  cg2d: iter=    64 ; resid.=  3.83220152978951E-06
(PID.TID 0000.0001)  cg2d: iter=    65 ; resid.=  3.15033050712613E-06
(PID.TID 0000.0001)  cg2d: iter=    66 ; resid.=  2.57052152115636E-06
(PID.TID 0000.0001)  cg2d: iter=    67 ; resid.=  2.23500615745989E-06
(PID.TID 0000.0001)  cg2d: iter=    68 ; resid.=  1.94018446290517E-06
(PID.TID 0000.0001)  cg2d: iter=    69 ; resid.=  1.45961375205928E-06
(PID.TID 0000.0001)  cg2d: iter=    70 ; resid.=  1.22715430306794E-06
(PID.TID 0000.0001)  cg2d: iter=    71 ; resid.=  9.42196129318165E-07
(PID.TID 0000.0001)  cg2d: iter=    72 ; resid.=  7.58111555985827E-07
(PID.TID 0000.0001)  cg2d: iter=    73 ; resid.=  6.90847335325975E-07
(PID.TID 0000.0001)  cg2d: iter=    74 ; resid.=  5.75442191245885E-07
(PID.TID 0000.0001)  cg2d: iter=    75 ; resid.=  4.71970352608200E-07
(PID.TID 0000.0001)  cg2d: iter=    76 ; resid.=  4.17480412990615E-07
(PID.TID 0000.0001)  cg2d: iter=    77 ; resid.=  3.61372501278933E-07
(PID.TID 0000.0001)  cg2d: iter=    78 ; resid.=  3.16065058330728E-07
(PID.TID 0000.0001)  cg2d: iter=    79 ; resid.=  2.65656585984247E-07
(PID.TID 0000.0001)  cg2d: iter=    80 ; resid.=  2.09641319084820E-07
(PID.TID 0000.0001)  cg2d: iter=    81 ; resid.=  1.58304384869992E-07
(PID.TID 0000.0001)  cg2d: iter=    82 ; resid.=  1.20220127180903E-07
(PID.TID 0000.0001)  cg2d: iter=    83 ; resid.=  9.43825821172960E-08
(PID.TID 0000.0001)  cg2d: iter=    84 ; resid.=  7.85602642430719E-08
(PID.TID 0000.0001)  cg2d: iter=    85 ; resid.=  6.96661860708087E-08
(PID.TID 0000.0001)  cg2d: iter=    86 ; resid.=  5.34987952054674E-08
(PID.TID 0000.0001)  cg2d: iter=    87 ; resid.=  4.18015844851330E-08
(PID.TID 0000.0001)  cg2d: iter=    88 ; resid.=  3.52963431308365E-08
(PID.TID 0000.0001)  cg2d: iter=    89 ; resid.=  2.80698708736169E-08
(PID.TID 0000.0001)  cg2d: iter=    90 ; resid.=  2.04516573730536E-08
(PID.TID 0000.0001)  cg2d: iter=    91 ; resid.=  1.49755992230342E-08
(PID.TID 0000.0001)  cg2d: iter=    92 ; resid.=  1.09212979572004E-08
(PID.TID 0000.0001)  cg2d: iter=    93 ; resid.=  8.06685361267625E-09
(PID.TID 0000.0001)  cg2d: iter=    94 ; resid.=  5.42514457877969E-09
(PID.TID 0000.0001)  cg2d: iter=    95 ; resid.=  4.12923718222627E-09
(PID.TID 0000.0001)  cg2d: iter=    96 ; resid.=  3.36072029807810E-09
(PID.TID 0000.0001)  cg2d: iter=    97 ; resid.=  2.54544339718315E-09
(PID.TID 0000.0001)  cg2d: iter=    98 ; resid.=  1.91245903196734E-09
(PID.TID 0000.0001)  cg2d: iter=    99 ; resid.=  1.51001561481748E-09
(PID.TID 0000.0001)  cg2d: iter=   100 ; resid.=  1.21067706324867E-09
(PID.TID 0000.0001)  cg2d: iter=   101 ; resid.=  9.15844280154247E-10
(PID.TID 0000.0001)  cg2d: iter=   102 ; resid.=  7.44080463981054E-10
(PID.TID 0000.0001)  cg2d: iter=   103 ; resid.=  5.90911061826816E-10
(PID.TID 0000.0001)  cg2d: iter=   104 ; resid.=  4.55713652914918E-10
(PID.TID 0000.0001)  cg2d: iter=   105 ; resid.=  3.45430141330718E-10
(PID.TID 0000.0001)  cg2d: iter=   106 ; resid.=  2.97891212947205E-10
(PID.TID 0000.0001)  cg2d: iter=   107 ; resid.=  2.43351043429679E-10
(PID.TID 0000.0001)  cg2d: iter=   108 ; resid.=  1.77851710424833E-10
(PID.TID 0000.0001)  cg2d: iter=   109 ; resid.=  1.35873873158610E-10
(PID.TID 0000.0001)  cg2d: iter=   110 ; resid.=  1.22552017172540E-10
(PID.TID 0000.0001)  cg2d: iter=   111 ; resid.=  1.10806058140642E-10
(PID.TID 0000.0001)  cg2d: iter=   112 ; resid.=  8.31925586017822E-11
(PID.TID 0000.0001)  cg2d: iter=   113 ; resid.=  6.87873316134992E-11
(PID.TID 0000.0001)  cg2d: iter=   114 ; resid.=  5.90413608996926E-11
(PID.TID 0000.0001)  cg2d: iter=   115 ; resid.=  5.32535175320472E-11
(PID.TID 0000.0001)  cg2d: iter=   116 ; resid.=  4.30891548411312E-11
(PID.TID 0000.0001)  cg2d: iter=   117 ; resid.=  3.13035477264589E-11
(PID.TID 0000.0001)  cg2d: iter=   118 ; resid.=  2.48514106342373E-11
(PID.TID 0000.0001)  cg2d: iter=   119 ; resid.=  1.98539935500803E-11
(PID.TID 0000.0001)  cg2d: iter=   120 ; resid.=  1.52269177768179E-11
(PID.TID 0000.0001)  cg2d: iter=   121 ; resid.=  1.13301840404835E-11
(PID.TID 0000.0001)  cg2d: iter=   122 ; resid.=  8.28213389920206E-12
(PID.TID 0000.0001)  cg2d: iter=   123 ; resid.=  6.53481205488255E-12
(PID.TID 0000.0001)  cg2d: iter=   124 ; resid.=  5.22921636141338E-12
(PID.TID 0000.0001)  cg2d: iter=   125 ; resid.=  3.73407602459772E-12
(PID.TID 0000.0001)  cg2d: iter=   126 ; resid.=  2.56749878566149E-12
(PID.TID 0000.0001)  cg2d: iter=   127 ; resid.=  1.87849113425845E-12
(PID.TID 0000.0001)  cg2d: iter=   128 ; resid.=  1.41186186454944E-12
(PID.TID 0000.0001)  cg2d: iter=   129 ; resid.=  1.09282553803092E-12
(PID.TID 0000.0001)  cg2d: iter=   130 ; resid.=  8.29155210656525E-13
(PID.TID 0000.0001)  cg2d: iter=   131 ; resid.=  6.65026197022591E-13
(PID.TID 0000.0001)  cg2d: iter=   132 ; resid.=  5.40847173812059E-13
(PID.TID 0000.0001)  cg2d: iter=   133 ; resid.=  4.11027327487562E-13
(PID.TID 0000.0001)  cg2d: iter=   134 ; resid.=  3.01123781122624E-13
(PID.TID 0000.0001)  cg2d: iter=   135 ; resid.=  2.32114285073425E-13
(PID.TID 0000.0001)  cg2d: iter=   136 ; resid.=  1.70949770878968E-13
(PID.TID 0000.0001)  cg2d: iter=   137 ; resid.=  1.22296175983410E-13
(PID.TID 0000.0001)  cg2d: iter=   138 ; resid.=  9.46066258095005E-14
DEBUG_STATS_RL:    cg2d_x (SOLVE_FOR_PRESSURE)  min= -1.53797475376382E+01
DEBUG_STATS_RL:    cg2d_x (SOLVE_FOR_PRESSURE)  max=  8.68908169051232E+00
DEBUG_STATS_RL:    cg2d_x (SOLVE_FOR_PRESSURE) mean= -1.49923868830075E+00
DEBUG_STATS_RL:    cg2d_x (SOLVE_FOR_PRESSURE) S.D.=  5.92186932309283E+00
(PID.TID 0000.0001)      cg2d_init_res =   4.94211584718592E-01
(PID.TID 0000.0001)      cg2d_iters(min,last) =      -1     138
(PID.TID 0000.0001)      cg2d_last_res =   9.46066258095005E-14
(PID.TID 0000.0001) // =======================================================
(PID.TID 0000.0001) // Begin MONITOR dynamic field statistics
(PID.TID 0000.0001) // =======================================================
(PID.TID 0000.0001) %MON time_tsnumber                =                     3
(PID.TID 0000.0001) %MON time_secondsf                =   2.5920000000000E+05
(PID.TID 0000.0001) %MON dynstat_eta_max              =   8.8573717538353E-01
(PID.TID 0000.0001) %MON dynstat_eta_min              =  -1.5677622362526E+00
(PID.TID 0000.0001) %MON dynstat_eta_mean             =  -1.9688192231112E-04
(PID.TID 0000.0001) %MON dynstat_eta_sd               =   5.2582064924709E-01
(PID.TID 0000.0001) %MON dynstat_eta_del2             =   2.4325906929598E-03
(PID.TID 0000.0001) %MON dynstat_uvel_max             =   5.0302285078100E-02
(PID.TID 0000.0001) %MON dynstat_uvel_min             =  -4.7196549522260E-02
(PID.TID 0000.0001) %MON dynstat_uvel_mean            =  -9.1541369012792E-04
(PID.TID 0000.0001) %MON dynstat_uvel_sd              =   3.4660277958940E-03
(PID.TID 0000.0001) %MON dynstat_uvel_del2            =   4.6981592922989E-05
(PID.TID 0000.0001) %MON dynstat_vvel_max             =   5.0537373381850E-02
(PID.TID 0000.0001) %MON dynstat_vvel_min             =  -6.2150864429254E-02
(PID.TID 0000.0001) %MON dynstat_vvel_mean            =   8.0740822204720E-04
(PID.TID 0000.0001) %MON dynstat_vvel_sd              =   5.7605712939339E-03
(PID.TID 0000.0001) %MON dynstat_vvel_del2            =   6.1665021596073E-05
(PID.TID 0000.0001) %MON dynstat_wvel_max             =   1.4649694814998E-04
(PID.TID 0000.0001) %MON dynstat_wvel_min             =  -1.2819425009757E-04
(PID.TID 0000.0001) %MON dynstat_wvel_mean            =  -1.5089341430298E-22
(PID.TID 0000.0001) %MON dynstat_wvel_sd              =   1.6140263045629E-05
(PID.TID 0000.0001) %MON dynstat_wvel_del2            =   2.2751438538003E-07
(PID.TID 0000.0001) %MON dynstat_theta_max            =   2.9692755085553E+01
(PID.TID 0000.0001) %MON dynstat_theta_min            =  -1.9020265494073E+00
(PID.TID 0000.0001) %MON dynstat_theta_mean           =   3.6187251637397E+00
(PID.TID 0000.0001) %MON dynstat_theta_sd             =   4.4141782855643E+00
(PID.TID 0000.0001) %MON dynstat_theta_del2           =   5.5402439822957E-03
(PID.TID 0000.0001) %MON dynstat_salt_max             =   3.7454222790861E+01
(PID.TID 0000.0001) %MON dynstat_salt_min             =   2.9759103864705E+01
(PID.TID 0000.0001) %MON dynstat_salt_mean            =   3.4717932992131E+01
(PID.TID 0000.0001) %MON dynstat_salt_sd              =   2.9609734259928E-01
(PID.TID 0000.0001) %MON dynstat_salt_del2            =   1.0174482527797E-03
(PID.TID 0000.0001) %MON dynstat_sst_max              =   2.9692755085553E+01
(PID.TID 0000.0001) %MON dynstat_sst_min              =  -1.9020265494073E+00
(PID.TID 0000.0001) %MON dynstat_sst_mean             =   1.8499840530140E+01
(PID.TID 0000.0001) %MON dynstat_sst_sd               =   9.1486624437468E+00
(PID.TID 0000.0001) %MON dynstat_sst_del2             =   2.6466540377118E-02
(PID.TID 0000.0001) %MON dynstat_sss_max              =   3.7454222790861E+01
(PID.TID 0000.0001) %MON dynstat_sss_min              =   2.9759103864705E+01
(PID.TID 0000.0001) %MON dynstat_sss_mean             =   3.4850197573960E+01
(PID.TID 0000.0001) %MON dynstat_sss_sd               =   9.6462153320138E-01
(PID.TID 0000.0001) %MON dynstat_sss_del2             =   7.9843260349314E-03
(PID.TID 0000.0001) %MON forcing_qnet_max             =   4.2798718261719E+02
(PID.TID 0000.0001) %MON forcing_qnet_min             =  -1.8609266001383E+02
(PID.TID 0000.0001) %MON forcing_qnet_mean            =  -1.6675181426744E+01
(PID.TID 0000.0001) %MON forcing_qnet_sd              =   1.1242481361476E+02
(PID.TID 0000.0001) %MON forcing_qnet_del2            =   9.9305199082959E-01
(PID.TID 0000.0001) %MON forcing_qsw_max              =   0.0000000000000E+00
(PID.TID 0000.0001) %MON forcing_qsw_min              =   0.0000000000000E+00
(PID.TID 0000.0001) %MON forcing_qsw_mean             =   0.0000000000000E+00
(PID.TID 0000.0001) %MON forcing_qsw_sd               =   0.0000000000000E+00
(PID.TID 0000.0001) %MON forcing_qsw_del2             =   0.0000000000000E+00
(PID.TID 0000.0001) %MON forcing_empmr_max            =   8.2732094597304E-05
(PID.TID 0000.0001) %MON forcing_empmr_min            =  -7.3643138875923E-05
(PID.TID 0000.0001) %MON forcing_empmr_mean           =   7.9593021141906E-07
(PID.TID 0000.0001) %MON forcing_empmr_sd             =   2.7874041013016E-05
(PID.TID 0000.0001) %MON forcing_empmr_del2           =   3.6331922792719E-07
(PID.TID 0000.0001) %MON forcing_fu_max               =   2.7317289412022E-01
(PID.TID 0000.0001) %MON forcing_fu_min               =  -1.6030610948801E-01
(PID.TID 0000.0001) %MON forcing_fu_mean              =   1.6101741826049E-02
(PID.TID 0000.0001) %MON forcing_fu_sd                =   9.0133772222350E-02
(PID.TID 0000.0001) %MON forcing_fu_del2              =   6.5664222090357E-04
(PID.TID 0000.0001) %MON forcing_fv_max               =   2.0930016835531E-01
(PID.TID 0000.0001) %MON forcing_fv_min               =  -1.8573744744062E-01
(PID.TID 0000.0001) %MON forcing_fv_mean              =  -6.2178105886955E-03
(PID.TID 0000.0001) %MON forcing_fv_sd                =   4.5379778517573E-02
(PID.TID 0000.0001) %MON forcing_fv_del2              =   4.4636987924417E-04
(PID.TID 0000.0001) %MON trAdv_CFL_u_max              =   1.6531530328711E-02
(PID.TID 0000.0001) %MON trAdv_CFL_v_max              =   8.4965882513387E-03
(PID.TID 0000.0001) %MON trAdv_CFL_w_max              =   3.1653789539992E-02
(PID.TID 0000.0001) %MON advcfl_uvel_max              =   1.6383285838219E-02
(PID.TID 0000.0001) %MON advcfl_vvel_max              =   1.2074916178577E-02
(PID.TID 0000.0001) %MON advcfl_wvel_max              =   4.6559521835114E-02
(PID.TID 0000.0001) %MON advcfl_W_hf_max              =   5.2685774708155E-02
(PID.TID 0000.0001) %MON pe_b_mean                    =   3.5379894635082E-04
(PID.TID 0000.0001) %MON ke_max                       =   2.0633833386355E-03
(PID.TID 0000.0001) %MON ke_mean                      =   2.1029058184135E-05
(PID.TID 0000.0001) %MON ke_vol                       =   1.3226782436723E+18
(PID.TID 0000.0001) %MON vort_r_min                   =  -2.3735892542734E-07
(PID.TID 0000.0001) %MON vort_r_max                   =   1.9981522586251E-07
(PID.TID 0000.0001) %MON vort_a_mean                  =  -2.5274807209076E-05
(PID.TID 0000.0001) %MON vort_a_sd                    =   7.3604171079181E-05
(PID.TID 0000.0001) %MON vort_p_mean                  =  -3.1845655562124E-05
(PID.TID 0000.0001) %MON vort_p_sd                    =   1.3162501521576E-04
(PID.TID 0000.0001) %MON surfExpan_theta_mean         =   1.0419619934159E-05
(PID.TID 0000.0001) %MON surfExpan_salt_mean          =   4.3580115674832E-07
(PID.TID 0000.0001) // =======================================================
(PID.TID 0000.0001) // End MONITOR dynamic field statistics
(PID.TID 0000.0001) // =======================================================
 EXTERNAL_FIELDS_LOAD,         3 : iP,iLd,i0,i1=   12    1   12    1 ; Wght=  0.4000000000  0.6000000000
 EXTERNAL_FIELDS_LOAD: (fu0,1),fu,fv= -4.5368E-02 -3.5633E-02 -3.9527E-02 -6.2453E-02
 EXTERNAL_FIELDS_LOAD: SST,SSS,Q,E-P=  2.3421E-01  3.4434E+01  2.6523E+02  1.1002E-05
DEBUG_STATS_RL:          Uvel (THERMODYNAMICS)  min= -4.71965495222603E-02
DEBUG_STATS_RL:          Uvel (THERMODYNAMICS)  max=  5.03022850780996E-02
DEBUG_STATS_RL:          Uvel (THERMODYNAMICS) mean= -1.49725510375979E-04
DEBUG_STATS_RL:          Uvel (THERMODYNAMICS) S.D.=  5.60422489530885E-03
DEBUG_STATS_RL:          Vvel (THERMODYNAMICS)  min= -6.21508644292539E-02
DEBUG_STATS_RL:          Vvel (THERMODYNAMICS)  max=  5.05373733818499E-02
DEBUG_STATS_RL:          Vvel (THERMODYNAMICS) mean= -5.13748215826391E-04
DEBUG_STATS_RL:          Vvel (THERMODYNAMICS) S.D.=  8.82260951072280E-03
DEBUG_STATS_RL:          Wvel (THERMODYNAMICS)  min= -1.28194250097570E-04
DEBUG_STATS_RL:          Wvel (THERMODYNAMICS)  max=  1.46496948149983E-04
DEBUG_STATS_RL:          Wvel (THERMODYNAMICS) mean= -6.81162452768514E-07
DEBUG_STATS_RL:          Wvel (THERMODYNAMICS) S.D.=  1.55768519772915E-05
DEBUG_STATS_RL:         Theta (THERMODYNAMICS)  min= -1.90297346985338E+00
DEBUG_STATS_RL:         Theta (THERMODYNAMICS)  max=  2.96812013583071E+01
DEBUG_STATS_RL:         Theta (THERMODYNAMICS) mean=  5.88959082029280E+00
DEBUG_STATS_RL:         Theta (THERMODYNAMICS) S.D.=  6.86098832774051E+00
DEBUG_STATS_RL:          Salt (THERMODYNAMICS)  min=  2.97585347639348E+01
DEBUG_STATS_RL:          Salt (THERMODYNAMICS)  max=  3.74488923074189E+01
DEBUG_STATS_RL:          Salt (THERMODYNAMICS) mean=  3.47207830813427E+01
DEBUG_STATS_RL:          Salt (THERMODYNAMICS) S.D.=  4.86339907548433E-01
DEBUG_STATS_RL:         GtNm1 (THERMODYNAMICS)  min= -2.39386887978592E-06
DEBUG_STATS_RL:         GtNm1 (THERMODYNAMICS)  max=  1.68756125786336E-06
DEBUG_STATS_RL:         GtNm1 (THERMODYNAMICS) mean=  1.32658864587296E-08
DEBUG_STATS_RL:         GtNm1 (THERMODYNAMICS) S.D.=  1.90545615555365E-07
DEBUG_STATS_RL:         GsNm1 (THERMODYNAMICS)  min= -3.90943026517854E-07
DEBUG_STATS_RL:         GsNm1 (THERMODYNAMICS)  max=  2.99817447794709E-07
DEBUG_STATS_RL:         GsNm1 (THERMODYNAMICS) mean= -2.80349150857939E-10
DEBUG_STATS_RL:         GsNm1 (THERMODYNAMICS) S.D.=  1.40320743898538E-08
DEBUG_STATS_RL:                EtaN (DYNAMICS)  min= -1.56776223625259E+00
DEBUG_STATS_RL:                EtaN (DYNAMICS)  max=  8.85737175383534E-01
DEBUG_STATS_RL:                EtaN (DYNAMICS) mean= -1.52827593098955E-01
DEBUG_STATS_RL:                EtaN (DYNAMICS) S.D.=  6.03656403985003E-01
DEBUG_STATS_RL:                Uvel (DYNAMICS)  min= -4.71965495222603E-02
DEBUG_STATS_RL:                Uvel (DYNAMICS)  max=  5.03022850780996E-02
DEBUG_STATS_RL:                Uvel (DYNAMICS) mean= -1.49725510375979E-04
DEBUG_STATS_RL:                Uvel (DYNAMICS) S.D.=  5.60422489530885E-03
DEBUG_STATS_RL:                Vvel (DYNAMICS)  min= -6.21508644292539E-02
DEBUG_STATS_RL:                Vvel (DYNAMICS)  max=  5.05373733818499E-02
DEBUG_STATS_RL:                Vvel (DYNAMICS) mean= -5.13748215826391E-04
DEBUG_STATS_RL:                Vvel (DYNAMICS) S.D.=  8.82260951072280E-03
DEBUG_STATS_RL:                Wvel (DYNAMICS)  min= -1.28194250097570E-04
DEBUG_STATS_RL:                Wvel (DYNAMICS)  max=  1.46496948149983E-04
DEBUG_STATS_RL:                Wvel (DYNAMICS) mean= -6.81162452768514E-07
DEBUG_STATS_RL:                Wvel (DYNAMICS) S.D.=  1.55768519772915E-05
DEBUG_STATS_RL:               Theta (DYNAMICS)  min= -1.90297346985338E+00
DEBUG_STATS_RL:               Theta (DYNAMICS)  max=  2.96812013583071E+01
DEBUG_STATS_RL:               Theta (DYNAMICS) mean=  5.88959082029280E+00
DEBUG_STATS_RL:               Theta (DYNAMICS) S.D.=  6.86098832774051E+00
DEBUG_STATS_RL:                Salt (DYNAMICS)  min=  2.97585347639348E+01
DEBUG_STATS_RL:                Salt (DYNAMICS)  max=  3.74488923074189E+01
DEBUG_STATS_RL:                Salt (DYNAMICS) mean=  3.47207830813427E+01
DEBUG_STATS_RL:                Salt (DYNAMICS) S.D.=  4.86339907548433E-01
DEBUG_STATS_RL:                  Gu (DYNAMICS)  min= -4.80093690032871E-02
DEBUG_STATS_RL:                  Gu (DYNAMICS)  max=  6.64424787863615E-02
DEBUG_STATS_RL:                  Gu (DYNAMICS) mean=  4.56022529218302E-05
DEBUG_STATS_RL:                  Gu (DYNAMICS) S.D.=  7.53178235366595E-03
DEBUG_STATS_RL:                  Gv (DYNAMICS)  min= -5.65818091284767E-02
DEBUG_STATS_RL:                  Gv (DYNAMICS)  max=  5.52507998079231E-02
DEBUG_STATS_RL:                  Gv (DYNAMICS) mean=  1.08501994096573E-03
DEBUG_STATS_RL:                  Gv (DYNAMICS) S.D.=  1.02799448870480E-02
DEBUG_STATS_RL:               GuNm1 (DYNAMICS)  min= -9.25659043829549E-06
DEBUG_STATS_RL:               GuNm1 (DYNAMICS)  max=  9.31512035357403E-06
DEBUG_STATS_RL:               GuNm1 (DYNAMICS) mean= -3.31373200488354E-08
DEBUG_STATS_RL:               GuNm1 (DYNAMICS) S.D.=  1.35581194103120E-06
DEBUG_STATS_RL:               GvNm1 (DYNAMICS)  min= -1.18314075127655E-05
DEBUG_STATS_RL:               GvNm1 (DYNAMICS)  max=  1.71652088770945E-05
DEBUG_STATS_RL:               GvNm1 (DYNAMICS) mean=  7.79679154917596E-07
DEBUG_STATS_RL:               GvNm1 (DYNAMICS) S.D.=  2.84157316259685E-06
DEBUG_STATS_RL:               GtNm1 (DYNAMICS)  min= -2.39386887978592E-06
DEBUG_STATS_RL:               GtNm1 (DYNAMICS)  max=  1.68756125786336E-06
DEBUG_STATS_RL:               GtNm1 (DYNAMICS) mean=  1.32658864587296E-08
DEBUG_STATS_RL:               GtNm1 (DYNAMICS) S.D.=  1.90545615555365E-07
DEBUG_STATS_RL:               GsNm1 (DYNAMICS)  min= -3.90943026517854E-07
DEBUG_STATS_RL:               GsNm1 (DYNAMICS)  max=  2.99817447794709E-07
DEBUG_STATS_RL:               GsNm1 (DYNAMICS) mean= -2.80349150857939E-10
DEBUG_STATS_RL:               GsNm1 (DYNAMICS) S.D.=  1.40320743898538E-08
DEBUG_STATS_RL:    cg2d_b (SOLVE_FOR_PRESSURE)  min= -3.37404083946267E+04
DEBUG_STATS_RL:    cg2d_b (SOLVE_FOR_PRESSURE)  max=  1.96762103102709E+04
DEBUG_STATS_RL:    cg2d_b (SOLVE_FOR_PRESSURE) mean=  2.53159315034646E-01
DEBUG_STATS_RL:    cg2d_b (SOLVE_FOR_PRESSURE) S.D.=  4.70190274931992E+03
 cg2d: Sum(rhs),rhsMax =   1.73697901770455E-02  2.21616036079604E+00
(PID.TID 0000.0001)  cg2d: iter=     1 ; resid.=  2.75552145746618E-01
(PID.TID 0000.0001)  cg2d: iter=     2 ; resid.=  3.07439990442390E-01
(PID.TID 0000.0001)  cg2d: iter=     3 ; resid.=  2.81400952397359E-01
(PID.TID 0000.0001)  cg2d: iter=     4 ; resid.=  1.99454706636875E-01
(PID.TID 0000.0001)  cg2d: iter=     5 ; resid.=  1.82874750133258E-01
(PID.TID 0000.0001)  cg2d: iter=     6 ; resid.=  1.50763838138081E-01
(PID.TID 0000.0001)  cg2d: iter=     7 ; resid.=  1.20147369512184E-01
(PID.TID 0000.0001)  cg2d: iter=     8 ; resid.=  1.04876359250671E-01
(PID.TID 0000.0001)  cg2d: iter=     9 ; resid.=  9.30958552224704E-02
(PID.TID 0000.0001)  cg2d: iter=    10 ; resid.=  8.42212140252282E-02
(PID.TID 0000.0001)  cg2d: iter=    11 ; resid.=  7.19453540306217E-02
(PID.TID 0000.0001)  cg2d: iter=    12 ; resid.=  5.71080994742272E-02
(PID.TID 0000.0001)  cg2d: iter=    13 ; resid.=  4.48681913381787E-02
(PID.TID 0000.0001)  cg2d: iter=    14 ; resid.=  3.89133883920210E-02
(PID.TID 0000.0001)  cg2d: iter=    15 ; resid.=  3.38921034671558E-02
(PID.TID 0000.0001)  cg2d: iter=    16 ; resid.=  2.96982744243879E-02
(PID.TID 0000.0001)  cg2d: iter=    17 ; resid.=  2.87191240062662E-02
(PID.TID 0000.0001)  cg2d: iter=    18 ; resid.=  2.37781554101331E-02
(PID.TID 0000.0001)  cg2d: iter=    19 ; resid.=  1.80563028825694E-02
(PID.TID 0000.0001)  cg2d: iter=    20 ; resid.=  1.45905094743288E-02
(PID.TID 0000.0001)  cg2d: iter=    21 ; resid.=  1.22318922573860E-02
(PID.TID 0000.0001)  cg2d: iter=    22 ; resid.=  1.02316868502294E-02
(PID.TID 0000.0001)  cg2d: iter=    23 ; resid.=  8.22525781462422E-03
(PID.TID 0000.0001)  cg2d: iter=    24 ; resid.=  7.12495490755973E-03
(PID.TID 0000.0001)  cg2d: iter=    25 ; resid.=  6.34681318869043E-03
(PID.TID 0000.0001)  cg2d: iter=    26 ; resid.=  5.69482700449485E-03
(PID.TID 0000.0001)  cg2d: iter=    27 ; resid.=  4.87120628375073E-03
(PID.TID 0000.0001)  cg2d: iter=    28 ; resid.=  4.04451494655795E-03
(PID.TID 0000.0001)  cg2d: iter=    29 ; resid.=  3.60947222520858E-03
(PID.TID 0000.0001)  cg2d: iter=    30 ; resid.=  3.03360406739118E-03
(PID.TID 0000.0001)  cg2d: iter=    31 ; resid.=  2.47705751614531E-03
(PID.TID 0000.0001)  cg2d: iter=    32 ; resid.=  1.83272012271157E-03
(PID.TID 0000.0001)  cg2d: iter=    33 ; resid.=  1.43683718034089E-03
(PID.TID 0000.0001)  cg2d: iter=    34 ; resid.=  1.14895582055678E-03
(PID.TID 0000.0001)  cg2d: iter=    35 ; resid.=  8.79352399051508E-04
(PID.TID 0000.0001)  cg2d: iter=    36 ; resid.=  6.55981592816920E-04
(PID.TID 0000.0001)  cg2d: iter=    37 ; resid.=  5.44043813171880E-04
(PID.TID 0000.0001)  cg2d: iter=    38 ; resid.=  4.07799223704161E-04
(PID.TID 0000.0001)  cg2d: iter=    39 ; resid.=  3.04492943365244E-04
(PID.TID 0000.0001)  cg2d: iter=    40 ; resid.=  2.66784933836166E-04
(PID.TID 0000.0001)  cg2d: iter=    41 ; resid.=  2.50046581333467E-04
(PID.TID 0000.0001)  cg2d: iter=    42 ; resid.=  2.39304364771957E-04
(PID.TID 0000.0001)  cg2d: iter=    43 ; resid.=  1.89898397732900E-04
(PID.TID 0000.0001)  cg2d: iter=    44 ; resid.=  1.62276221631171E-04
(PID.TID 0000.0001)  cg2d: iter=    45 ; resid.=  1.50941200495358E-04
(PID.TID 0000.0001)  cg2d: iter=    46 ; resid.=  1.22534784752681E-04
(PID.TID 0000.0001)  cg2d: iter=    47 ; resid.=  1.00929231737100E-04
(PID.TID 0000.0001)  cg2d: iter=    48 ; resid.=  8.00871914931686E-05
(PID.TID 0000.0001)  cg2d: iter=    49 ; resid.=  6.40875550351117E-05
(PID.TID 0000.0001)  cg2d: iter=    50 ; resid.=  5.32743869572800E-05
(PID.TID 0000.0001)  cg2d: iter=    51 ; resid.=  4.34984038643112E-05
(PID.TID 0000.0001)  cg2d: iter=    52 ; resid.=  3.42193958344361E-05
(PID.TID 0000.0001)  cg2d: iter=    53 ; resid.=  2.74225876573559E-05
(PID.TID 0000.0001)  cg2d: iter=    54 ; resid.=  2.21598581350318E-05
(PID.TID 0000.0001)  cg2d: iter=    55 ; resid.=  1.74353160361772E-05
(PID.TID 0000.0001)  cg2d: iter=    56 ; resid.=  1.40583156521225E-05
(PID.TID 0000.0001)  cg2d: iter=    57 ; resid.=  1.03406231187981E-05
(PID.TID 0000.0001)  cg2d: iter=    58 ; resid.=  8.20919579180205E-06
(PID.TID 0000.0001)  cg2d: iter=    59 ; resid.=  6.55034458838736E-06
(PID.TID 0000.0001)  cg2d: iter=    60 ; resid.=  5.51435022563965E-06
(PID.TID 0000.0001)  cg2d: iter=    61 ; resid.=  4.40334038552683E-06
(PID.TID 0000.0001)  cg2d: iter=    62 ; resid.=  3.60332910082135E-06
(PID.TID 0000.0001)  cg2d: iter=    63 ; resid.=  3.04379036969462E-06
(PID.TID 0000.0001)  cg2d: iter=    64 ; resid.=  2.43899776831771E-06
(PID.TID 0000.0001)  cg2d: iter=    65 ; resid.=  2.04122064595666E-06
(PID.TID 0000.0001)  cg2d: iter=    66 ; resid.=  1.81394066371409E-06
(PID.TID 0000.0001)  cg2d: iter=    67 ; resid.=  1.63008803844908E-06
(PID.TID 0000.0001)  cg2d: iter=    68 ; resid.=  1.40181340928040E-06
(PID.TID 0000.0001)  cg2d: iter=    69 ; resid.=  1.18978056745311E-06
(PID.TID 0000.0001)  cg2d: iter=    70 ; resid.=  1.04114581975334E-06
(PID.TID 0000.0001)  cg2d: iter=    71 ; resid.=  7.74626484975733E-07
(PID.TID 0000.0001)  cg2d: iter=    72 ; resid.=  6.19312479734753E-07
(PID.TID 0000.0001)  cg2d: iter=    73 ; resid.=  5.35122938447521E-07
(PID.TID 0000.0001)  cg2d: iter=    74 ; resid.=  4.03042133846712E-07
(PID.TID 0000.0001)  cg2d: iter=    75 ; resid.=  3.24821645191807E-07
(PID.TID 0000.0001)  cg2d: iter=    76 ; resid.=  2.85310125763069E-07
(PID.TID 0000.0001)  cg2d: iter=    77 ; resid.=  2.38945125564057E-07
(PID.TID 0000.0001)  cg2d: iter=    78 ; resid.=  2.02739038110664E-07
(PID.TID 0000.0001)  cg2d: iter=    79 ; resid.=  1.70045933531055E-07
(PID.TID 0000.0001)  cg2d: iter=    80 ; resid.=  1.40773073560473E-07
(PID.TID 0000.0001)  cg2d: iter=    81 ; resid.=  1.21451397350812E-07
(PID.TID 0000.0001)  cg2d: iter=    82 ; resid.=  9.77508765223725E-08
(PID.TID 0000.0001)  cg2d: iter=    83 ; resid.=  7.16168751157075E-08
(PID.TID 0000.0001)  cg2d: iter=    84 ; resid.=  5.40564475042989E-08
(PID.TID 0000.0001)  cg2d: iter=    85 ; resid.=  4.21983995588719E-08
(PID.TID 0000.0001)  cg2d: iter=    86 ; resid.=  3.04186580632567E-08
(PID.TID 0000.0001)  cg2d: iter=    87 ; resid.=  2.36260275285467E-08
(PID.TID 0000.0001)  cg2d: iter=    88 ; resid.=  1.94720960858780E-08
(PID.TID 0000.0001)  cg2d: iter=    89 ; resid.=  1.57783230244470E-08
(PID.TID 0000.0001)  cg2d: iter=    90 ; resid.=  1.20924629673293E-08
(PID.TID 0000.0001)  cg2d: iter=    91 ; resid.=  9.87465704026916E-09
(PID.TID 0000.0001)  cg2d: iter=    92 ; resid.=  7.67344888000727E-09
(PID.TID 0000.0001)  cg2d: iter=    93 ; resid.=  5.95289088459414E-09
(PID.TID 0000.0001)  cg2d: iter=    94 ; resid.=  4.56885260383813E-09
(PID.TID 0000.0001)  cg2d: iter=    95 ; resid.=  3.31340103438832E-09
(PID.TID 0000.0001)  cg2d: iter=    96 ; resid.=  2.53982789048022E-09
(PID.TID 0000.0001)  cg2d: iter=    97 ; resid.=  2.05922166276096E-09
(PID.TID 0000.0001)  cg2d: iter=    98 ; resid.=  1.69668450443301E-09
(PID.TID 0000.0001)  cg2d: iter=    99 ; resid.=  1.40723106271056E-09
(PID.TID 0000.0001)  cg2d: iter=   100 ; resid.=  1.16323923176481E-09
(PID.TID 0000.0001)  cg2d: iter=   101 ; resid.=  8.73917941764628E-10
(PID.TID 0000.0001)  cg2d: iter=   102 ; resid.=  6.67851978870736E-10
(PID.TID 0000.0001)  cg2d: iter=   103 ; resid.=  5.48121001691573E-10
(PID.TID 0000.0001)  cg2d: iter=   104 ; resid.=  5.04660194941462E-10
(PID.TID 0000.0001)  cg2d: iter=   105 ; resid.=  4.44295972494981E-10
(PID.TID 0000.0001)  cg2d: iter=   106 ; resid.=  3.78489562903946E-10
(PID.TID 0000.0001)  cg2d: iter=   107 ; resid.=  3.02946786625313E-10
(PID.TID 0000.0001)  cg2d: iter=   108 ; resid.=  2.20899935974946E-10
(PID.TID 0000.0001)  cg2d: iter=   109 ; resid.=  1.82848416588229E-10
(PID.TID 0000.0001)  cg2d: iter=   110 ; resid.=  1.50809895362743E-10
(PID.TID 0000.0001)  cg2d: iter=   111 ; resid.=  1.18540825584741E-10
(PID.TID 0000.0001)  cg2d: iter=   112 ; resid.=  8.44389061716493E-11
(PID.TID 0000.0001)  cg2d: iter=   113 ; resid.=  6.20969729348936E-11
(PID.TID 0000.0001)  cg2d: iter=   114 ; resid.=  4.79322470916022E-11
(PID.TID 0000.0001)  cg2d: iter=   115 ; resid.=  3.90049208721805E-11
(PID.TID 0000.0001)  cg2d: iter=   116 ; resid.=  2.99249754224611E-11
(PID.TID 0000.0001)  cg2d: iter=   117 ; resid.=  2.11206295228963E-11
(PID.TID 0000.0001)  cg2d: iter=   118 ; resid.=  1.64107117378892E-11
(PID.TID 0000.0001)  cg2d: iter=   119 ; resid.=  1.37824465292918E-11
(PID.TID 0000.0001)  cg2d: iter=   120 ; resid.=  1.04593530836285E-11
(PID.TID 0000.0001)  cg2d: iter=   121 ; resid.=  7.93717848769507E-12
(PID.TID 0000.0001)  cg2d: iter=   122 ; resid.=  6.20155836893795E-12
(PID.TID 0000.0001)  cg2d: iter=   123 ; resid.=  5.13236692905176E-12
(PID.TID 0000.0001)  cg2d: iter=   124 ; resid.=  4.33399506258062E-12
(PID.TID 0000.0001)  cg2d: iter=   125 ; resid.=  3.17304990446060E-12
(PID.TID 0000.0001)  cg2d: iter=   126 ; resid.=  2.23601734075466E-12
(PID.TID 0000.0001)  cg2d: iter=   127 ; resid.=  1.51403425678656E-12
(PID.TID 0000.0001)  cg2d: iter=   128 ; resid.=  1.19496869024949E-12
(PID.TID 0000.0001)  cg2d: iter=   129 ; resid.=  9.09444221301272E-13
(PID.TID 0000.0001)  cg2d: iter=   130 ; resid.=  6.98176782381471E-13
(PID.TID 0000.0001)  cg2d: iter=   131 ; resid.=  5.44222529453035E-13
(PID.TID 0000.0001)  cg2d: iter=   132 ; resid.=  4.06288325984663E-13
(PID.TID 0000.0001)  cg2d: iter=   133 ; resid.=  3.00917536872124E-13
(PID.TID 0000.0001)  cg2d: iter=   134 ; resid.=  2.33951885526435E-13
(PID.TID 0000.0001)  cg2d: iter=   135 ; resid.=  1.76913416728874E-13
(PID.TID 0000.0001)  cg2d: iter=   136 ; resid.=  1.30340657911052E-13
(PID.TID 0000.0001)  cg2d: iter=   137 ; resid.=  1.02869999881649E-13
(PID.TID 0000.0001)  cg2d: iter=   138 ; resid.=  8.64833140587980E-14
DEBUG_STATS_RL:    cg2d_x (SOLVE_FOR_PRESSURE)  min= -1.55935756153008E+01
DEBUG_STATS_RL:    cg2d_x (SOLVE_FOR_PRESSURE)  max=  8.49956430464728E+00
DEBUG_STATS_RL:    cg2d_x (SOLVE_FOR_PRESSURE) mean= -1.60610615746545E+00
DEBUG_STATS_RL:    cg2d_x (SOLVE_FOR_PRESSURE) S.D.=  6.18983871861127E+00
(PID.TID 0000.0001)      cg2d_init_res =   4.17191503085017E-01
(PID.TID 0000.0001)      cg2d_iters(min,last) =      -1     138
(PID.TID 0000.0001)      cg2d_last_res =   8.64833140587980E-14
(PID.TID 0000.0001) // =======================================================
(PID.TID 0000.0001) // Begin MONITOR dynamic field statistics
(PID.TID 0000.0001) // =======================================================
(PID.TID 0000.0001) %MON time_tsnumber                =                     4
(PID.TID 0000.0001) %MON time_secondsf                =   3.4560000000000E+05
(PID.TID 0000.0001) %MON dynstat_eta_max              =   8.6641837967866E-01
(PID.TID 0000.0001) %MON dynstat_eta_min              =  -1.5895591860652E+00
(PID.TID 0000.0001) %MON dynstat_eta_mean             =  -2.6414035451969E-04
(PID.TID 0000.0001) %MON dynstat_eta_sd               =   5.5297547423697E-01
(PID.TID 0000.0001) %MON dynstat_eta_del2             =   2.3455456136320E-03
(PID.TID 0000.0001) %MON dynstat_uvel_max             =   7.0428774370432E-02
(PID.TID 0000.0001) %MON dynstat_uvel_min             =  -5.9976043658093E-02
(PID.TID 0000.0001) %MON dynstat_uvel_mean            =  -8.4132446609905E-04
(PID.TID 0000.0001) %MON dynstat_uvel_sd              =   4.6278806895464E-03
(PID.TID 0000.0001) %MON dynstat_uvel_del2            =   5.7859068905379E-05
(PID.TID 0000.0001) %MON dynstat_vvel_max             =   6.2523904466028E-02
(PID.TID 0000.0001) %MON dynstat_vvel_min             =  -7.8395992294742E-02
(PID.TID 0000.0001) %MON dynstat_vvel_mean            =   5.5767898009859E-04
(PID.TID 0000.0001) %MON dynstat_vvel_sd              =   7.2084738163649E-03
(PID.TID 0000.0001) %MON dynstat_vvel_del2            =   7.6915273796305E-05
(PID.TID 0000.0001) %MON dynstat_wvel_max             =   1.7999287039490E-04
(PID.TID 0000.0001) %MON dynstat_wvel_min             =  -1.5208316555195E-04
(PID.TID 0000.0001) %MON dynstat_wvel_mean            =   9.6135954947971E-22
(PID.TID 0000.0001) %MON dynstat_wvel_sd              =   1.9708868867460E-05
(PID.TID 0000.0001) %MON dynstat_wvel_del2            =   2.7387155783498E-07
(PID.TID 0000.0001) %MON dynstat_theta_max            =   2.9681201358307E+01
(PID.TID 0000.0001) %MON dynstat_theta_min            =  -1.9029734698534E+00
(PID.TID 0000.0001) %MON dynstat_theta_mean           =   3.6186760298470E+00
(PID.TID 0000.0001) %MON dynstat_theta_sd             =   4.4137834279368E+00
(PID.TID 0000.0001) %MON dynstat_theta_del2           =   5.4701683463194E-03
(PID.TID 0000.0001) %MON dynstat_salt_max             =   3.7448892307419E+01
(PID.TID 0000.0001) %MON dynstat_salt_min             =   2.9758534763935E+01
(PID.TID 0000.0001) %MON dynstat_salt_mean            =   3.4717933381862E+01
(PID.TID 0000.0001) %MON dynstat_salt_sd              =   2.9609111305432E-01
(PID.TID 0000.0001) %MON dynstat_salt_del2            =   1.0150276966077E-03
(PID.TID 0000.0001) %MON dynstat_sst_max              =   2.9681201358307E+01
(PID.TID 0000.0001) %MON dynstat_sst_min              =  -1.9029734698534E+00
(PID.TID 0000.0001) %MON dynstat_sst_mean             =   1.8509835456697E+01
(PID.TID 0000.0001) %MON dynstat_sst_sd               =   9.1372781995356E+00
(PID.TID 0000.0001) %MON dynstat_sst_del2             =   2.6264108558743E-02
(PID.TID 0000.0001) %MON dynstat_sss_max              =   3.7448892307419E+01
(PID.TID 0000.0001) %MON dynstat_sss_min              =   2.9758534763935E+01
(PID.TID 0000.0001) %MON dynstat_sss_mean             =   3.4850826597250E+01
(PID.TID 0000.0001) %MON dynstat_sss_sd               =   9.6499436206320E-01
(PID.TID 0000.0001) %MON dynstat_sss_del2             =   7.9818408551480E-03
(PID.TID 0000.0001) %MON forcing_qnet_max             =   4.2903536987305E+02
(PID.TID 0000.0001) %MON forcing_qnet_min             =  -1.8562549743652E+02
(PID.TID 0000.0001) %MON forcing_qnet_mean            =  -1.6662669470921E+01
(PID.TID 0000.0001) %MON forcing_qnet_sd              =   1.1221272517031E+02
(PID.TID 0000.0001) %MON forcing_qnet_del2            =   9.9444386812388E-01
(PID.TID 0000.0001) %MON forcing_qsw_max              =   0.0000000000000E+00
(PID.TID 0000.0001) %MON forcing_qsw_min              =   0.0000000000000E+00
(PID.TID 0000.0001) %MON forcing_qsw_mean             =   0.0000000000000E+00
(PID.TID 0000.0001) %MON forcing_qsw_sd               =   0.0000000000000E+00
(PID.TID 0000.0001) %MON forcing_qsw_del2             =   0.0000000000000E+00
(PID.TID 0000.0001) %MON forcing_empmr_max            =   8.2476260843123E-05
(PID.TID 0000.0001) %MON forcing_empmr_min            =  -7.3379955267683E-05
(PID.TID 0000.0001) %MON forcing_empmr_mean           =   8.0569996916457E-07
(PID.TID 0000.0001) %MON forcing_empmr_sd             =   2.7920083767862E-05
(PID.TID 0000.0001) %MON forcing_empmr_del2           =   3.6296416696684E-07
(PID.TID 0000.0001) %MON forcing_fu_max               =   2.7231434583664E-01
(PID.TID 0000.0001) %MON forcing_fu_min               =  -1.6111952960491E-01
(PID.TID 0000.0001) %MON forcing_fu_mean              =   1.6094049005012E-02
(PID.TID 0000.0001) %MON forcing_fu_sd                =   9.0140377513934E-02
(PID.TID 0000.0001) %MON forcing_fu_del2              =   6.5893332094781E-04
(PID.TID 0000.0001) %MON forcing_fv_max               =   2.1056245863438E-01
(PID.TID 0000.0001) %MON forcing_fv_min               =  -1.8515278995037E-01
(PID.TID 0000.0001) %MON forcing_fv_mean              =  -6.1440480618347E-03
(PID.TID 0000.0001) %MON forcing_fv_sd                =   4.5513649503191E-02
(PID.TID 0000.0001) %MON forcing_fv_del2              =   4.4740184358134E-04
(PID.TID 0000.0001) %MON trAdv_CFL_u_max              =   1.8808809824357E-02
(PID.TID 0000.0001) %MON trAdv_CFL_v_max              =   1.1567694379582E-02
(PID.TID 0000.0001) %MON trAdv_CFL_w_max              =   4.2918836170006E-02
(PID.TID 0000.0001) %MON advcfl_uvel_max              =   2.2739264417673E-02
(PID.TID 0000.0001) %MON advcfl_vvel_max              =   1.5231083982314E-02
(PID.TID 0000.0001) %MON advcfl_wvel_max              =   5.8288382417978E-02
(PID.TID 0000.0001) %MON advcfl_W_hf_max              =   6.5957906420344E-02
(PID.TID 0000.0001) %MON pe_b_mean                    =   3.9128485523448E-04
(PID.TID 0000.0001) %MON ke_max                       =   3.6102411870767E-03
(PID.TID 0000.0001) %MON ke_mean                      =   3.3519457301776E-05
(PID.TID 0000.0001) %MON ke_vol                       =   1.3226782436723E+18
(PID.TID 0000.0001) %MON vort_r_min                   =  -2.6053973412150E-07
(PID.TID 0000.0001) %MON vort_r_max                   =   2.2127220460140E-07
(PID.TID 0000.0001) %MON vort_a_mean                  =  -2.5274807116792E-05
(PID.TID 0000.0001) %MON vort_a_sd                    =   7.3604186488730E-05
(PID.TID 0000.0001) %MON vort_p_mean                  =  -3.1845655445848E-05
(PID.TID 0000.0001) %MON vort_p_sd                    =   1.3162491729920E-04
(PID.TID 0000.0001) %MON surfExpan_theta_mean         =   3.0186432044257E-06
(PID.TID 0000.0001) %MON surfExpan_salt_mean          =  -4.5423780618219E-08
(PID.TID 0000.0001) // =======================================================
(PID.TID 0000.0001) // End MONITOR dynamic field statistics
(PID.TID 0000.0001) // =======================================================
 EXTERNAL_FIELDS_LOAD,         4 : iP,iLd,i0,i1=   12    1   12    1 ; Wght=  0.3666666667  0.6333333333
 EXTERNAL_FIELDS_LOAD: (fu0,1),fu,fv= -4.5368E-02 -3.5633E-02 -3.9202E-02 -6.2020E-02
 EXTERNAL_FIELDS_LOAD: SST,SSS,Q,E-P=  2.9456E-01  3.4457E+01  2.6528E+02  1.1055E-05
DEBUG_STATS_RL:          Uvel (THERMODYNAMICS)  min= -5.99760436580931E-02
DEBUG_STATS_RL:          Uvel (THERMODYNAMICS)  max=  7.04287743704325E-02
DEBUG_STATS_RL:          Uvel (THERMODYNAMICS) mean=  3.95716224580676E-04
DEBUG_STATS_RL:          Uvel (THERMODYNAMICS) S.D.=  7.66286986893311E-03
DEBUG_STATS_RL:          Vvel (THERMODYNAMICS)  min= -7.83959922947420E-02
DEBUG_STATS_RL:          Vvel (THERMODYNAMICS)  max=  6.25239044660282E-02
DEBUG_STATS_RL:          Vvel (THERMODYNAMICS) mean= -1.09662808807990E-03
DEBUG_STATS_RL:          Vvel (THERMODYNAMICS) S.D.=  1.11261373522517E-02
DEBUG_STATS_RL:          Wvel (THERMODYNAMICS)  min= -1.52083165551950E-04
DEBUG_STATS_RL:          Wvel (THERMODYNAMICS)  max=  1.79992870394895E-04
DEBUG_STATS_RL:          Wvel (THERMODYNAMICS) mean= -6.14248898437917E-07
DEBUG_STATS_RL:          Wvel (THERMODYNAMICS) S.D.=  1.88994590778928E-05
DEBUG_STATS_RL:         Theta (THERMODYNAMICS)  min= -1.90350088586783E+00
DEBUG_STATS_RL:         Theta (THERMODYNAMICS)  max=  2.96761947167292E+01
DEBUG_STATS_RL:         Theta (THERMODYNAMICS) mean=  5.89149377271881E+00
DEBUG_STATS_RL:         Theta (THERMODYNAMICS) S.D.=  6.86132481585251E+00
DEBUG_STATS_RL:          Salt (THERMODYNAMICS)  min=  2.97568568231112E+01
DEBUG_STATS_RL:          Salt (THERMODYNAMICS)  max=  3.74445423234171E+01
DEBUG_STATS_RL:          Salt (THERMODYNAMICS) mean=  3.47208209016688E+01
DEBUG_STATS_RL:          Salt (THERMODYNAMICS) S.D.=  4.86406509414547E-01
DEBUG_STATS_RL:         GtNm1 (THERMODYNAMICS)  min= -2.96692524981767E-06
DEBUG_STATS_RL:         GtNm1 (THERMODYNAMICS)  max=  2.29068375143093E-06
DEBUG_STATS_RL:         GtNm1 (THERMODYNAMICS) mean=  1.97340416955468E-08
DEBUG_STATS_RL:         GtNm1 (THERMODYNAMICS) S.D.=  2.08150588335394E-07
DEBUG_STATS_RL:         GsNm1 (THERMODYNAMICS)  min= -3.88381304397366E-07
DEBUG_STATS_RL:         GsNm1 (THERMODYNAMICS)  max=  6.01837273480786E-07
DEBUG_STATS_RL:         GsNm1 (THERMODYNAMICS) mean=  1.58020701334600E-10
DEBUG_STATS_RL:         GsNm1 (THERMODYNAMICS) S.D.=  1.65290573451656E-08
DEBUG_STATS_RL:                EtaN (DYNAMICS)  min= -1.58955918606518E+00
DEBUG_STATS_RL:                EtaN (DYNAMICS)  max=  8.66418379678663E-01
DEBUG_STATS_RL:                EtaN (DYNAMICS) mean= -1.63721320842552E-01
DEBUG_STATS_RL:                EtaN (DYNAMICS) S.D.=  6.30972346443551E-01
DEBUG_STATS_RL:                Uvel (DYNAMICS)  min= -5.99760436580931E-02
DEBUG_STATS_RL:                Uvel (DYNAMICS)  max=  7.04287743704325E-02
DEBUG_STATS_RL:                Uvel (DYNAMICS) mean=  3.95716224580676E-04
DEBUG_STATS_RL:                Uvel (DYNAMICS) S.D.=  7.66286986893311E-03
DEBUG_STATS_RL:                Vvel (DYNAMICS)  min= -7.83959922947420E-02
DEBUG_STATS_RL:                Vvel (DYNAMICS)  max=  6.25239044660282E-02
DEBUG_STATS_RL:                Vvel (DYNAMICS) mean= -1.09662808807990E-03
DEBUG_STATS_RL:                Vvel (DYNAMICS) S.D.=  1.11261373522517E-02
DEBUG_STATS_RL:                Wvel (DYNAMICS)  min= -1.52083165551950E-04
DEBUG_STATS_RL:                Wvel (DYNAMICS)  max=  1.79992870394895E-04
DEBUG_STATS_RL:                Wvel (DYNAMICS) mean= -6.14248898437917E-07
DEBUG_STATS_RL:                Wvel (DYNAMICS) S.D.=  1.88994590778928E-05
DEBUG_STATS_RL:               Theta (DYNAMICS)  min= -1.90350088586783E+00
DEBUG_STATS_RL:               Theta (DYNAMICS)  max=  2.96761947167292E+01
DEBUG_STATS_RL:               Theta (DYNAMICS) mean=  5.89149377271881E+00
DEBUG_STATS_RL:               Theta (DYNAMICS) S.D.=  6.86132481585251E+00
DEBUG_STATS_RL:                Salt (DYNAMICS)  min=  2.97568568231112E+01
DEBUG_STATS_RL:                Salt (DYNAMICS)  max=  3.74445423234171E+01
DEBUG_STATS_RL:                Salt (DYNAMICS) mean=  3.47208209016688E+01
DEBUG_STATS_RL:                Salt (DYNAMICS) S.D.=  4.86406509414547E-01
DEBUG_STATS_RL:                  Gu (DYNAMICS)  min= -5.97512882336920E-02
DEBUG_STATS_RL:                  Gu (DYNAMICS)  max=  8.72372109777814E-02
DEBUG_STATS_RL:                  Gu (DYNAMICS) mean=  7.61908380332242E-04
DEBUG_STATS_RL:                  Gu (DYNAMICS) S.D.=  9.73065517553107E-03
DEBUG_STATS_RL:                  Gv (DYNAMICS)  min= -7.06785893127318E-02
DEBUG_STATS_RL:                  Gv (DYNAMICS)  max=  6.21943976603085E-02
DEBUG_STATS_RL:                  Gv (DYNAMICS) mean=  6.03222632100862E-04
DEBUG_STATS_RL:                  Gv (DYNAMICS) S.D.=  1.18164159169406E-02
DEBUG_STATS_RL:               GuNm1 (DYNAMICS)  min= -8.48792757173222E-06
DEBUG_STATS_RL:               GuNm1 (DYNAMICS)  max=  8.50970326422484E-06
DEBUG_STATS_RL:               GuNm1 (DYNAMICS) mean= -3.21053144317584E-08
DEBUG_STATS_RL:               GuNm1 (DYNAMICS) S.D.=  1.32057220234437E-06
DEBUG_STATS_RL:               GvNm1 (DYNAMICS)  min= -1.14939335117118E-05
DEBUG_STATS_RL:               GvNm1 (DYNAMICS)  max=  1.68507322305316E-05
DEBUG_STATS_RL:               GvNm1 (DYNAMICS) mean=  7.79163460465055E-07
DEBUG_STATS_RL:               GvNm1 (DYNAMICS) S.D.=  2.81311865744362E-06
DEBUG_STATS_RL:               GtNm1 (DYNAMICS)  min= -2.96692524981767E-06
DEBUG_STATS_RL:               GtNm1 (DYNAMICS)  max=  2.29068375143093E-06
DEBUG_STATS_RL:               GtNm1 (DYNAMICS) mean=  1.97340416955468E-08
DEBUG_STATS_RL:               GtNm1 (DYNAMICS) S.D.=  2.08150588335394E-07
DEBUG_STATS_RL:               GsNm1 (DYNAMICS)  min= -3.88381304397366E-07
DEBUG_STATS_RL:               GsNm1 (DYNAMICS)  max=  6.01837273480786E-07
DEBUG_STATS_RL:               GsNm1 (DYNAMICS) mean=  1.58020701334600E-10
DEBUG_STATS_RL:               GsNm1 (DYNAMICS) S.D.=  1.65290573451656E-08
DEBUG_STATS_RL:    cg2d_b (SOLVE_FOR_PRESSURE)  min= -3.06742129281050E+04
DEBUG_STATS_RL:    cg2d_b (SOLVE_FOR_PRESSURE)  max=  1.89363634637637E+04
DEBUG_STATS_RL:    cg2d_b (SOLVE_FOR_PRESSURE) mean=  3.18403286841246E-01
DEBUG_STATS_RL:    cg2d_b (SOLVE_FOR_PRESSURE) S.D.=  4.46647141777793E+03
 cg2d: Sum(rhs),rhsMax =   2.40300740809279E-02  2.01476443304432E+00
(PID.TID 0000.0001)  cg2d: iter=     1 ; resid.=  2.40000354269494E-01
(PID.TID 0000.0001)  cg2d: iter=     2 ; resid.=  2.81514587929423E-01
(PID.TID 0000.0001)  cg2d: iter=     3 ; resid.=  3.00113004464771E-01
(PID.TID 0000.0001)  cg2d: iter=     4 ; resid.=  2.06206219387604E-01
(PID.TID 0000.0001)  cg2d: iter=     5 ; resid.=  1.83004603114409E-01
(PID.TID 0000.0001)  cg2d: iter=     6 ; resid.=  1.44151215552030E-01
(PID.TID 0000.0001)  cg2d: iter=     7 ; resid.=  1.21533177918491E-01
(PID.TID 0000.0001)  cg2d: iter=     8 ; resid.=  9.08386945792980E-02
(PID.TID 0000.0001)  cg2d: iter=     9 ; resid.=  7.04318586124567E-02
(PID.TID 0000.0001)  cg2d: iter=    10 ; resid.=  5.89350247096660E-02
(PID.TID 0000.0001)  cg2d: iter=    11 ; resid.=  4.90865562005238E-02
(PID.TID 0000.0001)  cg2d: iter=    12 ; resid.=  3.89835278380053E-02
(PID.TID 0000.0001)  cg2d: iter=    13 ; resid.=  3.16245355261972E-02
(PID.TID 0000.0001)  cg2d: iter=    14 ; resid.=  2.79874554176129E-02
(PID.TID 0000.0001)  cg2d: iter=    15 ; resid.=  2.37778784138517E-02
(PID.TID 0000.0001)  cg2d: iter=    16 ; resid.=  2.02377820353195E-02
(PID.TID 0000.0001)  cg2d: iter=    17 ; resid.=  1.88583591596146E-02
(PID.TID 0000.0001)  cg2d: iter=    18 ; resid.=  1.52968017030591E-02
(PID.TID 0000.0001)  cg2d: iter=    19 ; resid.=  1.16753109379480E-02
(PID.TID 0000.0001)  cg2d: iter=    20 ; resid.=  8.84123271829021E-03
(PID.TID 0000.0001)  cg2d: iter=    21 ; resid.=  6.75913554004951E-03
(PID.TID 0000.0001)  cg2d: iter=    22 ; resid.=  5.29655680631111E-03
(PID.TID 0000.0001)  cg2d: iter=    23 ; resid.=  3.91851685032757E-03
(PID.TID 0000.0001)  cg2d: iter=    24 ; resid.=  2.99260414517532E-03
(PID.TID 0000.0001)  cg2d: iter=    25 ; resid.=  2.38165733462394E-03
(PID.TID 0000.0001)  cg2d: iter=    26 ; resid.=  2.01501558931688E-03
(PID.TID 0000.0001)  cg2d: iter=    27 ; resid.=  1.92339861398983E-03
(PID.TID 0000.0001)  cg2d: iter=    28 ; resid.=  1.73960066404444E-03
(PID.TID 0000.0001)  cg2d: iter=    29 ; resid.=  1.50671633208923E-03
(PID.TID 0000.0001)  cg2d: iter=    30 ; resid.=  1.42495576889727E-03
(PID.TID 0000.0001)  cg2d: iter=    31 ; resid.=  1.26149790778807E-03
(PID.TID 0000.0001)  cg2d: iter=    32 ; resid.=  9.33624284549112E-04
(PID.TID 0000.0001)  cg2d: iter=    33 ; resid.=  6.90992840391198E-04
(PID.TID 0000.0001)  cg2d: iter=    34 ; resid.=  5.71241634936867E-04
(PID.TID 0000.0001)  cg2d: iter=    35 ; resid.=  4.74819608140140E-04
(PID.TID 0000.0001)  cg2d: iter=    36 ; resid.=  3.64718197935285E-04
(PID.TID 0000.0001)  cg2d: iter=    37 ; resid.=  2.94313222047453E-04
(PID.TID 0000.0001)  cg2d: iter=    38 ; resid.=  2.46828246124888E-04
(PID.TID 0000.0001)  cg2d: iter=    39 ; resid.=  1.95576154134902E-04
(PID.TID 0000.0001)  cg2d: iter=    40 ; resid.=  1.49221723959487E-04
(PID.TID 0000.0001)  cg2d: iter=    41 ; resid.=  1.13982134976628E-04
(PID.TID 0000.0001)  cg2d: iter=    42 ; resid.=  9.10399409396117E-05
(PID.TID 0000.0001)  cg2d: iter=    43 ; resid.=  7.58960521959582E-05
(PID.TID 0000.0001)  cg2d: iter=    44 ; resid.=  5.90229506154256E-05
(PID.TID 0000.0001)  cg2d: iter=    45 ; resid.=  5.19011317302247E-05
(PID.TID 0000.0001)  cg2d: iter=    46 ; resid.=  4.16364901997207E-05
(PID.TID 0000.0001)  cg2d: iter=    47 ; resid.=  3.35599816059680E-05
(PID.TID 0000.0001)  cg2d: iter=    48 ; resid.=  2.98725928104247E-05
(PID.TID 0000.0001)  cg2d: iter=    49 ; resid.=  2.55601318493861E-05
(PID.TID 0000.0001)  cg2d: iter=    50 ; resid.=  2.25555426073407E-05
(PID.TID 0000.0001)  cg2d: iter=    51 ; resid.=  2.00092660164252E-05
(PID.TID 0000.0001)  cg2d: iter=    52 ; resid.=  1.64031499934454E-05
(PID.TID 0000.0001)  cg2d: iter=    53 ; resid.=  1.35379620064658E-05
(PID.TID 0000.0001)  cg2d: iter=    54 ; resid.=  1.11352045762939E-05
(PID.TID 0000.0001)  cg2d: iter=    55 ; resid.=  9.84155030682206E-06
(PID.TID 0000.0001)  cg2d: iter=    56 ; resid.=  8.59111376992991E-06
(PID.TID 0000.0001)  cg2d: iter=    57 ; resid.=  6.38860084080619E-06
(PID.TID 0000.0001)  cg2d: iter=    58 ; resid.=  4.86276672047999E-06
(PID.TID 0000.0001)  cg2d: iter=    59 ; resid.=  4.00121537038253E-06
(PID.TID 0000.0001)  cg2d: iter=    60 ; resid.=  3.38742879921661E-06
(PID.TID 0000.0001)  cg2d: iter=    61 ; resid.=  2.69828360418474E-06
(PID.TID 0000.0001)  cg2d: iter=    62 ; resid.=  2.32494584484198E-06
(PID.TID 0000.0001)  cg2d: iter=    63 ; resid.=  2.06295768966645E-06
(PID.TID 0000.0001)  cg2d: iter=    64 ; resid.=  1.69559021910898E-06
(PID.TID 0000.0001)  cg2d: iter=    65 ; resid.=  1.38328213524289E-06
(PID.TID 0000.0001)  cg2d: iter=    66 ; resid.=  1.22704521290885E-06
(PID.TID 0000.0001)  cg2d: iter=    67 ; resid.=  1.06618312160122E-06
(PID.TID 0000.0001)  cg2d: iter=    68 ; resid.=  8.17293729449464E-07
(PID.TID 0000.0001)  cg2d: iter=    69 ; resid.=  6.01881752927481E-07
(PID.TID 0000.0001)  cg2d: iter=    70 ; resid.=  5.11910882941314E-07
(PID.TID 0000.0001)  cg2d: iter=    71 ; resid.=  4.07457967728812E-07
(PID.TID 0000.0001)  cg2d: iter=    72 ; resid.=  3.75168710339002E-07
(PID.TID 0000.0001)  cg2d: iter=    73 ; resid.=  3.57342490917537E-07
(PID.TID 0000.0001)  cg2d: iter=    74 ; resid.=  2.78961190266050E-07
(PID.TID 0000.0001)  cg2d: iter=    75 ; resid.=  2.44274205968458E-07
(PID.TID 0000.0001)  cg2d: iter=    76 ; resid.=  2.22410832849890E-07
(PID.TID 0000.0001)  cg2d: iter=    77 ; resid.=  1.90086423627763E-07
(PID.TID 0000.0001)  cg2d: iter=    78 ; resid.=  1.55813213495992E-07
(PID.TID 0000.0001)  cg2d: iter=    79 ; resid.=  1.31165448312678E-07
(PID.TID 0000.0001)  cg2d: iter=    80 ; resid.=  1.16233114982775E-07
(PID.TID 0000.0001)  cg2d: iter=    81 ; resid.=  9.71437613187004E-08
(PID.TID 0000.0001)  cg2d: iter=    82 ; resid.=  7.87749555350986E-08
(PID.TID 0000.0001)  cg2d: iter=    83 ; resid.=  6.36684580755095E-08
(PID.TID 0000.0001)  cg2d: iter=    84 ; resid.=  5.24213179280168E-08
(PID.TID 0000.0001)  cg2d: iter=    85 ; resid.=  4.34191513475112E-08
(PID.TID 0000.0001)  cg2d: iter=    86 ; resid.=  3.50006444664395E-08
(PID.TID 0000.0001)  cg2d: iter=    87 ; resid.=  2.87699929970596E-08
(PID.TID 0000.0001)  cg2d: iter=    88 ; resid.=  2.35425023669414E-08
(PID.TID 0000.0001)  cg2d: iter=    89 ; resid.=  1.88173338484139E-08
(PID.TID 0000.0001)  cg2d: iter=    90 ; resid.=  1.47533512270992E-08
(PID.TID 0000.0001)  cg2d: iter=    91 ; resid.=  1.21407422795240E-08
(PID.TID 0000.0001)  cg2d: iter=    92 ; resid.=  8.75086143892377E-09
(PID.TID 0000.0001)  cg2d: iter=    93 ; resid.=  6.49906521474157E-09
(PID.TID 0000.0001)  cg2d: iter=    94 ; resid.=  5.37877865333821E-09
(PID.TID 0000.0001)  cg2d: iter=    95 ; resid.=  4.35877098096275E-09
(PID.TID 0000.0001)  cg2d: iter=    96 ; resid.=  3.22525295063888E-09
(PID.TID 0000.0001)  cg2d: iter=    97 ; resid.=  2.66651413091251E-09
(PID.TID 0000.0001)  cg2d: iter=    98 ; resid.=  2.38203506557027E-09
(PID.TID 0000.0001)  cg2d: iter=    99 ; resid.=  2.14477176570147E-09
(PID.TID 0000.0001)  cg2d: iter=   100 ; resid.=  1.75810295303995E-09
(PID.TID 0000.0001)  cg2d: iter=   101 ; resid.=  1.45115733095427E-09
(PID.TID 0000.0001)  cg2d: iter=   102 ; resid.=  1.15720293341245E-09
(PID.TID 0000.0001)  cg2d: iter=   103 ; resid.=  8.93227532619305E-10
(PID.TID 0000.0001)  cg2d: iter=   104 ; resid.=  7.65697701818399E-10
(PID.TID 0000.0001)  cg2d: iter=   105 ; resid.=  6.23984538075125E-10
(PID.TID 0000.0001)  cg2d: iter=   106 ; resid.=  4.72031374411317E-10
(PID.TID 0000.0001)  cg2d: iter=   107 ; resid.=  3.39689659797194E-10
(PID.TID 0000.0001)  cg2d: iter=   108 ; resid.=  2.42550537701243E-10
(PID.TID 0000.0001)  cg2d: iter=   109 ; resid.=  1.85114292246792E-10
(PID.TID 0000.0001)  cg2d: iter=   110 ; resid.=  1.59204120362061E-10
(PID.TID 0000.0001)  cg2d: iter=   111 ; resid.=  1.34110226311530E-10
(PID.TID 0000.0001)  cg2d: iter=   112 ; resid.=  9.96952295991280E-11
(PID.TID 0000.0001)  cg2d: iter=   113 ; resid.=  7.85564597856340E-11
(PID.TID 0000.0001)  cg2d: iter=   114 ; resid.=  6.03000298868369E-11
(PID.TID 0000.0001)  cg2d: iter=   115 ; resid.=  4.74407171712300E-11
(PID.TID 0000.0001)  cg2d: iter=   116 ; resid.=  3.56626713700167E-11
(PID.TID 0000.0001)  cg2d: iter=   117 ; resid.=  2.66255137505943E-11
(PID.TID 0000.0001)  cg2d: iter=   118 ; resid.=  2.25356135474088E-11
(PID.TID 0000.0001)  cg2d: iter=   119 ; resid.=  1.91802117597785E-11
(PID.TID 0000.0001)  cg2d: iter=   120 ; resid.=  1.33131885369822E-11
(PID.TID 0000.0001)  cg2d: iter=   121 ; resid.=  9.38149638845937E-12
(PID.TID 0000.0001)  cg2d: iter=   122 ; resid.=  7.27953291692193E-12
(PID.TID 0000.0001)  cg2d: iter=   123 ; resid.=  5.56510898997671E-12
(PID.TID 0000.0001)  cg2d: iter=   124 ; resid.=  4.04236112131703E-12
(PID.TID 0000.0001)  cg2d: iter=   125 ; resid.=  2.83027876116183E-12
(PID.TID 0000.0001)  cg2d: iter=   126 ; resid.=  2.07758287244289E-12
(PID.TID 0000.0001)  cg2d: iter=   127 ; resid.=  1.37876620316097E-12
(PID.TID 0000.0001)  cg2d: iter=   128 ; resid.=  9.78696984057079E-13
(PID.TID 0000.0001)  cg2d: iter=   129 ; resid.=  7.35848459848838E-13
(PID.TID 0000.0001)  cg2d: iter=   130 ; resid.=  5.82210252150773E-13
(PID.TID 0000.0001)  cg2d: iter=   131 ; resid.=  4.48916987127430E-13
(PID.TID 0000.0001)  cg2d: iter=   132 ; resid.=  3.50219944366637E-13
(PID.TID 0000.0001)  cg2d: iter=   133 ; resid.=  2.90822030776693E-13
(PID.TID 0000.0001)  cg2d: iter=   134 ; resid.=  2.35200785300689E-13
(PID.TID 0000.0001)  cg2d: iter=   135 ; resid.=  1.82600362969423E-13
(PID.TID 0000.0001)  cg2d: iter=   136 ; resid.=  1.37809117850931E-13
(PID.TID 0000.0001)  cg2d: iter=   137 ; resid.=  1.03583314019187E-13
(PID.TID 0000.0001)  cg2d: iter=   138 ; resid.=  7.54779761765255E-14
DEBUG_STATS_RL:    cg2d_x (SOLVE_FOR_PRESSURE)  min= -1.51080166904105E+01
DEBUG_STATS_RL:    cg2d_x (SOLVE_FOR_PRESSURE)  max=  8.63564336112776E+00
DEBUG_STATS_RL:    cg2d_x (SOLVE_FOR_PRESSURE) mean= -1.60706011297394E+00
DEBUG_STATS_RL:    cg2d_x (SOLVE_FOR_PRESSURE) S.D.=  6.16357488418445E+00
(PID.TID 0000.0001)      cg2d_init_res =   5.29235022817012E-01
(PID.TID 0000.0001)      cg2d_iters(min,last) =      -1     138
(PID.TID 0000.0001)      cg2d_last_res =   7.54779761765255E-14
(PID.TID 0000.0001) // =======================================================
(PID.TID 0000.0001) // Begin MONITOR dynamic field statistics
(PID.TID 0000.0001) // =======================================================
(PID.TID 0000.0001) %MON time_tsnumber                =                     5
(PID.TID 0000.0001) %MON time_secondsf                =   4.3200000000000E+05
(PID.TID 0000.0001) %MON dynstat_eta_max              =   8.8028984313230E-01
(PID.TID 0000.0001) %MON dynstat_eta_min              =  -1.5400628634464E+00
(PID.TID 0000.0001) %MON dynstat_eta_mean             =  -3.3221434911427E-04
(PID.TID 0000.0001) %MON dynstat_eta_sd               =   5.5249630225247E-01
(PID.TID 0000.0001) %MON dynstat_eta_del2             =   2.2572210148135E-03
(PID.TID 0000.0001) %MON dynstat_uvel_max             =   9.0982609693693E-02
(PID.TID 0000.0001) %MON dynstat_uvel_min             =  -7.0621783901974E-02
(PID.TID 0000.0001) %MON dynstat_uvel_mean            =  -6.8133334728001E-04
(PID.TID 0000.0001) %MON dynstat_uvel_sd              =   5.8726213670733E-03
(PID.TID 0000.0001) %MON dynstat_uvel_del2            =   6.6431030492050E-05
(PID.TID 0000.0001) %MON dynstat_vvel_max             =   7.3603519509964E-02
(PID.TID 0000.0001) %MON dynstat_vvel_min             =  -9.2390228164945E-02
(PID.TID 0000.0001) %MON dynstat_vvel_mean            =   2.6543702951059E-04
(PID.TID 0000.0001) %MON dynstat_vvel_sd              =   8.4089625134773E-03
(PID.TID 0000.0001) %MON dynstat_vvel_del2            =   8.9068872661879E-05
(PID.TID 0000.0001) %MON dynstat_wvel_max             =   2.0374443481228E-04
(PID.TID 0000.0001) %MON dynstat_wvel_min             =  -1.6730076604415E-04
(PID.TID 0000.0001) %MON dynstat_wvel_mean            =  -3.3677997157975E-22
(PID.TID 0000.0001) %MON dynstat_wvel_sd              =   2.2385579662988E-05
(PID.TID 0000.0001) %MON dynstat_wvel_del2            =   3.0445860471955E-07
(PID.TID 0000.0001) %MON dynstat_theta_max            =   2.9676194716729E+01
(PID.TID 0000.0001) %MON dynstat_theta_min            =  -1.9035008858678E+00
(PID.TID 0000.0001) %MON dynstat_theta_mean           =   3.6187739765600E+00
(PID.TID 0000.0001) %MON dynstat_theta_sd             =   4.4138233778558E+00
(PID.TID 0000.0001) %MON dynstat_theta_del2           =   5.3952231839307E-03
(PID.TID 0000.0001) %MON dynstat_salt_max             =   3.7444542323417E+01
(PID.TID 0000.0001) %MON dynstat_salt_min             =   2.9756856823111E+01
(PID.TID 0000.0001) %MON dynstat_salt_mean            =   3.4717941547770E+01
(PID.TID 0000.0001) %MON dynstat_salt_sd              =   2.9608525312850E-01
(PID.TID 0000.0001) %MON dynstat_salt_del2            =   1.0122751790914E-03
(PID.TID 0000.0001) %MON dynstat_sst_max              =   2.9676194716729E+01
(PID.TID 0000.0001) %MON dynstat_sst_min              =  -1.9035008858678E+00
(PID.TID 0000.0001) %MON dynstat_sst_mean             =   1.8521153513676E+01
(PID.TID 0000.0001) %MON dynstat_sst_sd               =   9.1279151828419E+00
(PID.TID 0000.0001) %MON dynstat_sst_del2             =   2.6060351434489E-02
(PID.TID 0000.0001) %MON dynstat_sss_max              =   3.7444542323417E+01
(PID.TID 0000.0001) %MON dynstat_sss_min              =   2.9756856823111E+01
(PID.TID 0000.0001) %MON dynstat_sss_mean             =   3.4851413686602E+01
(PID.TID 0000.0001) %MON dynstat_sss_sd               =   9.6540224038608E-01
(PID.TID 0000.0001) %MON dynstat_sss_del2             =   7.9671731154101E-03
(PID.TID 0000.0001) %MON forcing_qnet_max             =   4.3008355712891E+02
(PID.TID 0000.0001) %MON forcing_qnet_min             =  -1.8515833485921E+02
(PID.TID 0000.0001) %MON forcing_qnet_mean            =  -1.6650157515098E+01
(PID.TID 0000.0001) %MON forcing_qnet_sd              =   1.1200321531664E+02
(PID.TID 0000.0001) %MON forcing_qnet_del2            =   9.9601163526981E-01
(PID.TID 0000.0001) %MON forcing_qsw_max              =   0.0000000000000E+00
(PID.TID 0000.0001) %MON forcing_qsw_min              =   0.0000000000000E+00
(PID.TID 0000.0001) %MON forcing_qsw_mean             =   0.0000000000000E+00
(PID.TID 0000.0001) %MON forcing_qsw_sd               =   0.0000000000000E+00
(PID.TID 0000.0001) %MON forcing_qsw_del2             =   0.0000000000000E+00
(PID.TID 0000.0001) %MON forcing_empmr_max            =   8.2220427088942E-05
(PID.TID 0000.0001) %MON forcing_empmr_min            =  -7.3116771659443E-05
(PID.TID 0000.0001) %MON forcing_empmr_mean           =   8.1546972691007E-07
(PID.TID 0000.0001) %MON forcing_empmr_sd             =   2.7970424919056E-05
(PID.TID 0000.0001) %MON forcing_empmr_del2           =   3.6272300962791E-07
(PID.TID 0000.0001) %MON forcing_fu_max               =   2.7145579755306E-01
(PID.TID 0000.0001) %MON forcing_fu_min               =  -1.6193294972181E-01
(PID.TID 0000.0001) %MON forcing_fu_mean              =   1.6086356183975E-02
(PID.TID 0000.0001) %MON forcing_fu_sd                =   9.0157845327697E-02
(PID.TID 0000.0001) %MON forcing_fu_del2              =   6.6174969745051E-04
(PID.TID 0000.0001) %MON forcing_fv_max               =   2.1244236379862E-01
(PID.TID 0000.0001) %MON forcing_fv_min               =  -1.8456813246012E-01
(PID.TID 0000.0001) %MON forcing_fv_mean              =  -6.0702855349739E-03
(PID.TID 0000.0001) %MON forcing_fv_sd                =   4.5662631572644E-02
(PID.TID 0000.0001) %MON forcing_fv_del2              =   4.4897783530480E-04
(PID.TID 0000.0001) %MON trAdv_CFL_u_max              =   2.2743882924910E-02
(PID.TID 0000.0001) %MON trAdv_CFL_v_max              =   1.4736774251504E-02
(PID.TID 0000.0001) %MON trAdv_CFL_w_max              =   5.2216675916105E-02
(PID.TID 0000.0001) %MON advcfl_uvel_max              =   2.9012838690739E-02
(PID.TID 0000.0001) %MON advcfl_vvel_max              =   1.7949939571335E-02
(PID.TID 0000.0001) %MON advcfl_wvel_max              =   6.7730839181384E-02
(PID.TID 0000.0001) %MON advcfl_W_hf_max              =   7.6642791705250E-02
(PID.TID 0000.0001) %MON pe_b_mean                    =   3.9060707797590E-04
(PID.TID 0000.0001) %MON ke_max                       =   5.4120583119120E-03
(PID.TID 0000.0001) %MON ke_mean                      =   4.7655917893555E-05
(PID.TID 0000.0001) %MON ke_vol                       =   1.3226782436723E+18
(PID.TID 0000.0001) %MON vort_r_min                   =  -2.5021244583965E-07
(PID.TID 0000.0001) %MON vort_r_max                   =   2.1256980674731E-07
(PID.TID 0000.0001) %MON vort_a_mean                  =  -2.5274807041432E-05
(PID.TID 0000.0001) %MON vort_a_sd                    =   7.3604218551922E-05
(PID.TID 0000.0001) %MON vort_p_mean                  =  -3.1845655350896E-05
(PID.TID 0000.0001) %MON vort_p_sd                    =   1.3162482489640E-04
(PID.TID 0000.0001) %MON surfExpan_theta_mean         =  -9.0769624084823E-07
(PID.TID 0000.0001) %MON surfExpan_salt_mean          =  -2.4327349058146E-07
(PID.TID 0000.0001) // =======================================================
(PID.TID 0000.0001) // End MONITOR dynamic field statistics
(PID.TID 0000.0001) // =======================================================
 EXTERNAL_FIELDS_LOAD,         5 : iP,iLd,i0,i1=   12    1   12    1 ; Wght=  0.3333333333  0.6666666667
 EXTERNAL_FIELDS_LOAD: (fu0,1),fu,fv= -4.5368E-02 -3.5633E-02 -3.8878E-02 -6.1587E-02
 EXTERNAL_FIELDS_LOAD: SST,SSS,Q,E-P=  3.5491E-01  3.4481E+01  2.6532E+02  1.1107E-05
DEBUG_STATS_RL:          Uvel (THERMODYNAMICS)  min= -7.06217839019740E-02
DEBUG_STATS_RL:          Uvel (THERMODYNAMICS)  max=  9.09826096936930E-02
DEBUG_STATS_RL:          Uvel (THERMODYNAMICS) mean=  1.10362701762646E-03
DEBUG_STATS_RL:          Uvel (THERMODYNAMICS) S.D.=  9.84347061300568E-03
DEBUG_STATS_RL:          Vvel (THERMODYNAMICS)  min= -9.23902281649455E-02
DEBUG_STATS_RL:          Vvel (THERMODYNAMICS)  max=  7.36035195099637E-02
DEBUG_STATS_RL:          Vvel (THERMODYNAMICS) mean= -1.56928924458594E-03
DEBUG_STATS_RL:          Vvel (THERMODYNAMICS) S.D.=  1.29231097412976E-02
DEBUG_STATS_RL:          Wvel (THERMODYNAMICS)  min= -1.67300766044151E-04
DEBUG_STATS_RL:          Wvel (THERMODYNAMICS)  max=  2.03744434812283E-04
DEBUG_STATS_RL:          Wvel (THERMODYNAMICS) mean= -6.06868534271358E-07
DEBUG_STATS_RL:          Wvel (THERMODYNAMICS) S.D.=  2.13508811095476E-05
DEBUG_STATS_RL:         Theta (THERMODYNAMICS)  min= -1.90374363029202E+00
DEBUG_STATS_RL:         Theta (THERMODYNAMICS)  max=  2.96743226819878E+01
DEBUG_STATS_RL:         Theta (THERMODYNAMICS) mean=  5.89360053527904E+00
DEBUG_STATS_RL:         Theta (THERMODYNAMICS) S.D.=  6.86196402515144E+00
DEBUG_STATS_RL:          Salt (THERMODYNAMICS)  min=  2.97545770105092E+01
DEBUG_STATS_RL:          Salt (THERMODYNAMICS)  max=  3.74410631954649E+01
DEBUG_STATS_RL:          Salt (THERMODYNAMICS) mean=  3.47208632430718E+01
DEBUG_STATS_RL:          Salt (THERMODYNAMICS) S.D.=  4.86487161565248E-01
DEBUG_STATS_RL:         GtNm1 (THERMODYNAMICS)  min= -3.40672759279115E-06
DEBUG_STATS_RL:         GtNm1 (THERMODYNAMICS)  max=  1.78055709811519E-06
DEBUG_STATS_RL:         GtNm1 (THERMODYNAMICS) mean=  2.35340635554634E-08
DEBUG_STATS_RL:         GtNm1 (THERMODYNAMICS) S.D.=  2.22649426138201E-07
DEBUG_STATS_RL:         GsNm1 (THERMODYNAMICS)  min= -3.81145160649725E-07
DEBUG_STATS_RL:         GsNm1 (THERMODYNAMICS)  max=  5.20788356461805E-07
DEBUG_STATS_RL:         GsNm1 (THERMODYNAMICS) mean=  3.41067102977421E-10
DEBUG_STATS_RL:         GsNm1 (THERMODYNAMICS) S.D.=  1.83555319452450E-08
DEBUG_STATS_RL:                EtaN (DYNAMICS)  min= -1.54006286344644E+00
DEBUG_STATS_RL:                EtaN (DYNAMICS)  max=  8.80289843132298E-01
DEBUG_STATS_RL:                EtaN (DYNAMICS) mean= -1.63818564013653E-01
DEBUG_STATS_RL:                EtaN (DYNAMICS) S.D.=  6.28295095227774E-01
DEBUG_STATS_RL:                Uvel (DYNAMICS)  min= -7.06217839019740E-02
DEBUG_STATS_RL:                Uvel (DYNAMICS)  max=  9.09826096936930E-02
DEBUG_STATS_RL:                Uvel (DYNAMICS) mean=  1.10362701762646E-03
DEBUG_STATS_RL:                Uvel (DYNAMICS) S.D.=  9.84347061300568E-03
DEBUG_STATS_RL:                Vvel (DYNAMICS)  min= -9.23902281649455E-02
DEBUG_STATS_RL:                Vvel (DYNAMICS)  max=  7.36035195099637E-02
DEBUG_STATS_RL:                Vvel (DYNAMICS) mean= -1.56928924458594E-03
DEBUG_STATS_RL:                Vvel (DYNAMICS) S.D.=  1.29231097412976E-02
DEBUG_STATS_RL:                Wvel (DYNAMICS)  min= -1.67300766044151E-04
DEBUG_STATS_RL:                Wvel (DYNAMICS)  max=  2.03744434812283E-04
DEBUG_STATS_RL:                Wvel (DYNAMICS) mean= -6.06868534271358E-07
DEBUG_STATS_RL:                Wvel (DYNAMICS) S.D.=  2.13508811095476E-05
DEBUG_STATS_RL:               Theta (DYNAMICS)  min= -1.90374363029202E+00
DEBUG_STATS_RL:               Theta (DYNAMICS)  max=  2.96743226819878E+01
DEBUG_STATS_RL:               Theta (DYNAMICS) mean=  5.89360053527904E+00
DEBUG_STATS_RL:               Theta (DYNAMICS) S.D.=  6.86196402515144E+00
DEBUG_STATS_RL:                Salt (DYNAMICS)  min=  2.97545770105092E+01
DEBUG_STATS_RL:                Salt (DYNAMICS)  max=  3.74410631954649E+01
DEBUG_STATS_RL:                Salt (DYNAMICS) mean=  3.47208632430718E+01
DEBUG_STATS_RL:                Salt (DYNAMICS) S.D.=  4.86487161565248E-01
DEBUG_STATS_RL:                  Gu (DYNAMICS)  min= -6.93346050516242E-02
DEBUG_STATS_RL:                  Gu (DYNAMICS)  max=  1.07607017911619E-01
DEBUG_STATS_RL:                  Gu (DYNAMICS) mean=  1.56948265405220E-03
DEBUG_STATS_RL:                  Gu (DYNAMICS) S.D.=  1.20232204751830E-02
DEBUG_STATS_RL:                  Gv (DYNAMICS)  min= -8.15031584924970E-02
DEBUG_STATS_RL:                  Gv (DYNAMICS)  max=  7.26138881542392E-02
DEBUG_STATS_RL:                  Gv (DYNAMICS) mean=  2.35074440563222E-04
DEBUG_STATS_RL:                  Gv (DYNAMICS) S.D.=  1.30309572646099E-02
DEBUG_STATS_RL:               GuNm1 (DYNAMICS)  min= -7.57465523134129E-06
DEBUG_STATS_RL:               GuNm1 (DYNAMICS)  max=  7.99405859613298E-06
DEBUG_STATS_RL:               GuNm1 (DYNAMICS) mean= -3.11736864245957E-08
DEBUG_STATS_RL:               GuNm1 (DYNAMICS) S.D.=  1.28248743617521E-06
DEBUG_STATS_RL:               GvNm1 (DYNAMICS)  min= -1.11105784148972E-05
DEBUG_STATS_RL:               GvNm1 (DYNAMICS)  max=  1.65089477085248E-05
DEBUG_STATS_RL:               GvNm1 (DYNAMICS) mean=  7.78338766512210E-07
DEBUG_STATS_RL:               GvNm1 (DYNAMICS) S.D.=  2.78118792964960E-06
DEBUG_STATS_RL:               GtNm1 (DYNAMICS)  min= -3.40672759279115E-06
DEBUG_STATS_RL:               GtNm1 (DYNAMICS)  max=  1.78055709811519E-06
DEBUG_STATS_RL:               GtNm1 (DYNAMICS) mean=  2.35340635554634E-08
DEBUG_STATS_RL:               GtNm1 (DYNAMICS) S.D.=  2.22649426138201E-07
DEBUG_STATS_RL:               GsNm1 (DYNAMICS)  min= -3.81145160649725E-07
DEBUG_STATS_RL:               GsNm1 (DYNAMICS)  max=  5.20788356461805E-07
DEBUG_STATS_RL:               GsNm1 (DYNAMICS) mean=  3.41067102977421E-10
DEBUG_STATS_RL:               GsNm1 (DYNAMICS) S.D.=  1.83555319452450E-08
DEBUG_STATS_RL:    cg2d_b (SOLVE_FOR_PRESSURE)  min= -2.73700544583212E+04
DEBUG_STATS_RL:    cg2d_b (SOLVE_FOR_PRESSURE)  max=  1.81071263678219E+04
DEBUG_STATS_RL:    cg2d_b (SOLVE_FOR_PRESSURE) mean=  3.84428915866035E-01
DEBUG_STATS_RL:    cg2d_b (SOLVE_FOR_PRESSURE) S.D.=  4.22243785661553E+03
 cg2d: Sum(rhs),rhsMax =   3.25155706790450E-02  1.79773845811008E+00
(PID.TID 0000.0001)  cg2d: iter=     1 ; resid.=  2.24429204524232E-01
(PID.TID 0000.0001)  cg2d: iter=     2 ; resid.=  2.54037573160282E-01
(PID.TID 0000.0001)  cg2d: iter=     3 ; resid.=  2.71130872462166E-01
(PID.TID 0000.0001)  cg2d: iter=     4 ; resid.=  1.95584658928130E-01
(PID.TID 0000.0001)  cg2d: iter=     5 ; resid.=  1.74464315017032E-01
(PID.TID 0000.0001)  cg2d: iter=     6 ; resid.=  1.41078795288388E-01
(PID.TID 0000.0001)  cg2d: iter=     7 ; resid.=  1.07845712635991E-01
(PID.TID 0000.0001)  cg2d: iter=     8 ; resid.=  8.61246380116054E-02
(PID.TID 0000.0001)  cg2d: iter=     9 ; resid.=  7.37421358671114E-02
(PID.TID 0000.0001)  cg2d: iter=    10 ; resid.=  5.95592856167530E-02
(PID.TID 0000.0001)  cg2d: iter=    11 ; resid.=  5.05768824508342E-02
(PID.TID 0000.0001)  cg2d: iter=    12 ; resid.=  3.85727128671578E-02
(PID.TID 0000.0001)  cg2d: iter=    13 ; resid.=  3.54280605197014E-02
(PID.TID 0000.0001)  cg2d: iter=    14 ; resid.=  3.13279965671548E-02
(PID.TID 0000.0001)  cg2d: iter=    15 ; resid.=  2.61685196859356E-02
(PID.TID 0000.0001)  cg2d: iter=    16 ; resid.=  2.21928098760270E-02
(PID.TID 0000.0001)  cg2d: iter=    17 ; resid.=  2.13750624231195E-02
(PID.TID 0000.0001)  cg2d: iter=    18 ; resid.=  1.76950259989969E-02
(PID.TID 0000.0001)  cg2d: iter=    19 ; resid.=  1.30917656443609E-02
(PID.TID 0000.0001)  cg2d: iter=    20 ; resid.=  1.04525609455385E-02
(PID.TID 0000.0001)  cg2d: iter=    21 ; resid.=  8.80497994281703E-03
(PID.TID 0000.0001)  cg2d: iter=    22 ; resid.=  7.80173834657449E-03
(PID.TID 0000.0001)  cg2d: iter=    23 ; resid.=  6.47953654660119E-03
(PID.TID 0000.0001)  cg2d: iter=    24 ; resid.=  5.49137725089045E-03
(PID.TID 0000.0001)  cg2d: iter=    25 ; resid.=  4.75264782686993E-03
(PID.TID 0000.0001)  cg2d: iter=    26 ; resid.=  4.06755674060053E-03
(PID.TID 0000.0001)  cg2d: iter=    27 ; resid.=  3.87296052443626E-03
(PID.TID 0000.0001)  cg2d: iter=    28 ; resid.=  3.47295297205360E-03
(PID.TID 0000.0001)  cg2d: iter=    29 ; resid.=  2.79531455508085E-03
(PID.TID 0000.0001)  cg2d: iter=    30 ; resid.=  2.52898005200524E-03
(PID.TID 0000.0001)  cg2d: iter=    31 ; resid.=  2.03219146258394E-03
(PID.TID 0000.0001)  cg2d: iter=    32 ; resid.=  1.39505651780116E-03
(PID.TID 0000.0001)  cg2d: iter=    33 ; resid.=  1.10917112786874E-03
(PID.TID 0000.0001)  cg2d: iter=    34 ; resid.=  9.40734500126139E-04
(PID.TID 0000.0001)  cg2d: iter=    35 ; resid.=  7.56995308186170E-04
(PID.TID 0000.0001)  cg2d: iter=    36 ; resid.=  5.59603194594985E-04
(PID.TID 0000.0001)  cg2d: iter=    37 ; resid.=  4.57255499127517E-04
(PID.TID 0000.0001)  cg2d: iter=    38 ; resid.=  4.15465255919983E-04
(PID.TID 0000.0001)  cg2d: iter=    39 ; resid.=  3.47388191431769E-04
(PID.TID 0000.0001)  cg2d: iter=    40 ; resid.=  2.84611743205836E-04
(PID.TID 0000.0001)  cg2d: iter=    41 ; resid.=  2.58019390388107E-04
(PID.TID 0000.0001)  cg2d: iter=    42 ; resid.=  2.28167686506290E-04
(PID.TID 0000.0001)  cg2d: iter=    43 ; resid.=  1.98695053266493E-04
(PID.TID 0000.0001)  cg2d: iter=    44 ; resid.=  1.53338627677248E-04
(PID.TID 0000.0001)  cg2d: iter=    45 ; resid.=  1.27302951835249E-04
(PID.TID 0000.0001)  cg2d: iter=    46 ; resid.=  1.02999004981449E-04
(PID.TID 0000.0001)  cg2d: iter=    47 ; resid.=  8.09182823140873E-05
(PID.TID 0000.0001)  cg2d: iter=    48 ; resid.=  6.80697216369585E-05
(PID.TID 0000.0001)  cg2d: iter=    49 ; resid.=  5.51115483397848E-05
(PID.TID 0000.0001)  cg2d: iter=    50 ; resid.=  4.62228971335219E-05
(PID.TID 0000.0001)  cg2d: iter=    51 ; resid.=  4.00260399397778E-05
(PID.TID 0000.0001)  cg2d: iter=    52 ; resid.=  3.31372274199800E-05
(PID.TID 0000.0001)  cg2d: iter=    53 ; resid.=  2.85897272340587E-05
(PID.TID 0000.0001)  cg2d: iter=    54 ; resid.=  2.46410486767197E-05
(PID.TID 0000.0001)  cg2d: iter=    55 ; resid.=  2.17840197586076E-05
(PID.TID 0000.0001)  cg2d: iter=    56 ; resid.=  1.89761582791241E-05
(PID.TID 0000.0001)  cg2d: iter=    57 ; resid.=  1.40884215239389E-05
(PID.TID 0000.0001)  cg2d: iter=    58 ; resid.=  1.03491483578909E-05
(PID.TID 0000.0001)  cg2d: iter=    59 ; resid.=  8.90739549976507E-06
(PID.TID 0000.0001)  cg2d: iter=    60 ; resid.=  7.41440969757234E-06
(PID.TID 0000.0001)  cg2d: iter=    61 ; resid.=  5.83299309706764E-06
(PID.TID 0000.0001)  cg2d: iter=    62 ; resid.=  4.92901415510229E-06
(PID.TID 0000.0001)  cg2d: iter=    63 ; resid.=  4.27000950964282E-06
(PID.TID 0000.0001)  cg2d: iter=    64 ; resid.=  3.28872975060426E-06
(PID.TID 0000.0001)  cg2d: iter=    65 ; resid.=  2.52838428841620E-06
(PID.TID 0000.0001)  cg2d: iter=    66 ; resid.=  2.01592194075362E-06
(PID.TID 0000.0001)  cg2d: iter=    67 ; resid.=  1.62424537311818E-06
(PID.TID 0000.0001)  cg2d: iter=    68 ; resid.=  1.18737504749429E-06
(PID.TID 0000.0001)  cg2d: iter=    69 ; resid.=  8.91580950093141E-07
(PID.TID 0000.0001)  cg2d: iter=    70 ; resid.=  7.45444756186188E-07
(PID.TID 0000.0001)  cg2d: iter=    71 ; resid.=  5.87174237445807E-07
(PID.TID 0000.0001)  cg2d: iter=    72 ; resid.=  5.30610385371154E-07
(PID.TID 0000.0001)  cg2d: iter=    73 ; resid.=  4.91459909145284E-07
(PID.TID 0000.0001)  cg2d: iter=    74 ; resid.=  4.03240187592384E-07
(PID.TID 0000.0001)  cg2d: iter=    75 ; resid.=  3.37933731518946E-07
(PID.TID 0000.0001)  cg2d: iter=    76 ; resid.=  3.00585006396511E-07
(PID.TID 0000.0001)  cg2d: iter=    77 ; resid.=  2.48859362853401E-07
(PID.TID 0000.0001)  cg2d: iter=    78 ; resid.=  2.05423989010199E-07
(PID.TID 0000.0001)  cg2d: iter=    79 ; resid.=  1.74266662623121E-07
(PID.TID 0000.0001)  cg2d: iter=    80 ; resid.=  1.54850961413560E-07
(PID.TID 0000.0001)  cg2d: iter=    81 ; resid.=  1.24091713096823E-07
(PID.TID 0000.0001)  cg2d: iter=    82 ; resid.=  9.03894864458369E-08
(PID.TID 0000.0001)  cg2d: iter=    83 ; resid.=  6.66792643139464E-08
(PID.TID 0000.0001)  cg2d: iter=    84 ; resid.=  5.42121523414279E-08
(PID.TID 0000.0001)  cg2d: iter=    85 ; resid.=  4.33929278998385E-08
(PID.TID 0000.0001)  cg2d: iter=    86 ; resid.=  3.59180465575951E-08
(PID.TID 0000.0001)  cg2d: iter=    87 ; resid.=  2.95024709389008E-08
(PID.TID 0000.0001)  cg2d: iter=    88 ; resid.=  2.39803749499938E-08
(PID.TID 0000.0001)  cg2d: iter=    89 ; resid.=  2.02345399140891E-08
(PID.TID 0000.0001)  cg2d: iter=    90 ; resid.=  1.64187251260409E-08
(PID.TID 0000.0001)  cg2d: iter=    91 ; resid.=  1.37040270780253E-08
(PID.TID 0000.0001)  cg2d: iter=    92 ; resid.=  9.37254888179134E-09
(PID.TID 0000.0001)  cg2d: iter=    93 ; resid.=  6.65616689060183E-09
(PID.TID 0000.0001)  cg2d: iter=    94 ; resid.=  5.37723079717053E-09
(PID.TID 0000.0001)  cg2d: iter=    95 ; resid.=  4.28375557961485E-09
(PID.TID 0000.0001)  cg2d: iter=    96 ; resid.=  3.15186367738238E-09
(PID.TID 0000.0001)  cg2d: iter=    97 ; resid.=  2.71457299728739E-09
(PID.TID 0000.0001)  cg2d: iter=    98 ; resid.=  2.36594815677880E-09
(PID.TID 0000.0001)  cg2d: iter=    99 ; resid.=  2.10059954429170E-09
(PID.TID 0000.0001)  cg2d: iter=   100 ; resid.=  1.80277731856649E-09
(PID.TID 0000.0001)  cg2d: iter=   101 ; resid.=  1.60762752520889E-09
(PID.TID 0000.0001)  cg2d: iter=   102 ; resid.=  1.29486870723614E-09
(PID.TID 0000.0001)  cg2d: iter=   103 ; resid.=  9.31529207514123E-10
(PID.TID 0000.0001)  cg2d: iter=   104 ; resid.=  7.32893291434136E-10
(PID.TID 0000.0001)  cg2d: iter=   105 ; resid.=  5.91221797450598E-10
(PID.TID 0000.0001)  cg2d: iter=   106 ; resid.=  4.75785612161576E-10
(PID.TID 0000.0001)  cg2d: iter=   107 ; resid.=  3.48938513796515E-10
(PID.TID 0000.0001)  cg2d: iter=   108 ; resid.=  2.58155277412466E-10
(PID.TID 0000.0001)  cg2d: iter=   109 ; resid.=  1.88224587723856E-10
(PID.TID 0000.0001)  cg2d: iter=   110 ; resid.=  1.61897370716205E-10
(PID.TID 0000.0001)  cg2d: iter=   111 ; resid.=  1.30997197606006E-10
(PID.TID 0000.0001)  cg2d: iter=   112 ; resid.=  9.88919536410892E-11
(PID.TID 0000.0001)  cg2d: iter=   113 ; resid.=  7.91527793179216E-11
(PID.TID 0000.0001)  cg2d: iter=   114 ; resid.=  6.31478426775069E-11
(PID.TID 0000.0001)  cg2d: iter=   115 ; resid.=  4.94560293406188E-11
(PID.TID 0000.0001)  cg2d: iter=   116 ; resid.=  3.56586082433721E-11
(PID.TID 0000.0001)  cg2d: iter=   117 ; resid.=  2.37412801646203E-11
(PID.TID 0000.0001)  cg2d: iter=   118 ; resid.=  1.72200531763741E-11
(PID.TID 0000.0001)  cg2d: iter=   119 ; resid.=  1.37636304134466E-11
(PID.TID 0000.0001)  cg2d: iter=   120 ; resid.=  9.53091296842063E-12
(PID.TID 0000.0001)  cg2d: iter=   121 ; resid.=  6.84221577067802E-12
(PID.TID 0000.0001)  cg2d: iter=   122 ; resid.=  5.15074732714094E-12
(PID.TID 0000.0001)  cg2d: iter=   123 ; resid.=  3.83008560808538E-12
(PID.TID 0000.0001)  cg2d: iter=   124 ; resid.=  2.76853817886808E-12
(PID.TID 0000.0001)  cg2d: iter=   125 ; resid.=  2.08205167158648E-12
(PID.TID 0000.0001)  cg2d: iter=   126 ; resid.=  1.64907348344903E-12
(PID.TID 0000.0001)  cg2d: iter=   127 ; resid.=  1.22889951683904E-12
(PID.TID 0000.0001)  cg2d: iter=   128 ; resid.=  9.04077442913505E-13
(PID.TID 0000.0001)  cg2d: iter=   129 ; resid.=  6.62452463152500E-13
(PID.TID 0000.0001)  cg2d: iter=   130 ; resid.=  5.41474267299618E-13
(PID.TID 0000.0001)  cg2d: iter=   131 ; resid.=  4.18862967748007E-13
(PID.TID 0000.0001)  cg2d: iter=   132 ; resid.=  3.29309501143381E-13
(PID.TID 0000.0001)  cg2d: iter=   133 ; resid.=  2.53058342053733E-13
(PID.TID 0000.0001)  cg2d: iter=   134 ; resid.=  1.86299132691288E-13
(PID.TID 0000.0001)  cg2d: iter=   135 ; resid.=  1.35727868963223E-13
(PID.TID 0000.0001)  cg2d: iter=   136 ; resid.=  9.68161345358295E-14
DEBUG_STATS_RL:    cg2d_x (SOLVE_FOR_PRESSURE)  min= -1.46413428164118E+01
DEBUG_STATS_RL:    cg2d_x (SOLVE_FOR_PRESSURE)  max=  1.00307972277786E+01
DEBUG_STATS_RL:    cg2d_x (SOLVE_FOR_PRESSURE) mean= -1.57233893061782E+00
DEBUG_STATS_RL:    cg2d_x (SOLVE_FOR_PRESSURE) S.D.=  6.05187287351866E+00
(PID.TID 0000.0001)      cg2d_init_res =   6.36837564929330E-01
(PID.TID 0000.0001)      cg2d_iters(min,last) =      -1     136
(PID.TID 0000.0001)      cg2d_last_res =   9.68161345358295E-14
(PID.TID 0000.0001) // =======================================================
(PID.TID 0000.0001) // Begin MONITOR dynamic field statistics
(PID.TID 0000.0001) // =======================================================
(PID.TID 0000.0001) %MON time_tsnumber                =                     6
(PID.TID 0000.0001) %MON time_secondsf                =   5.1840000000000E+05
(PID.TID 0000.0001) %MON dynstat_eta_max              =   1.0225073626686E+00
(PID.TID 0000.0001) %MON dynstat_eta_min              =  -1.4924916224680E+00
(PID.TID 0000.0001) %MON dynstat_eta_mean             =  -4.0110390609418E-04
(PID.TID 0000.0001) %MON dynstat_eta_sd               =   5.4283044955244E-01
(PID.TID 0000.0001) %MON dynstat_eta_del2             =   2.1665492722756E-03
(PID.TID 0000.0001) %MON dynstat_uvel_max             =   1.1100632605574E-01
(PID.TID 0000.0001) %MON dynstat_uvel_min             =  -7.8835722052424E-02
(PID.TID 0000.0001) %MON dynstat_uvel_mean            =  -4.7783970813598E-04
(PID.TID 0000.0001) %MON dynstat_uvel_sd              =   7.1791800843655E-03
(PID.TID 0000.0001) %MON dynstat_uvel_del2            =   7.2906545556962E-05
(PID.TID 0000.0001) %MON dynstat_vvel_max             =   8.2477064117152E-02
(PID.TID 0000.0001) %MON dynstat_vvel_min             =  -1.0362842841119E-01
(PID.TID 0000.0001) %MON dynstat_vvel_mean            =   5.0632802666801E-07
(PID.TID 0000.0001) %MON dynstat_vvel_sd              =   9.3215669808363E-03
(PID.TID 0000.0001) %MON dynstat_vvel_del2            =   9.7916710943883E-05
(PID.TID 0000.0001) %MON dynstat_wvel_max             =   2.2088141605455E-04
(PID.TID 0000.0001) %MON dynstat_wvel_min             =  -1.7323477956623E-04
(PID.TID 0000.0001) %MON dynstat_wvel_mean            =   6.0064579484481E-22
(PID.TID 0000.0001) %MON dynstat_wvel_sd              =   2.4099163629512E-05
(PID.TID 0000.0001) %MON dynstat_wvel_del2            =   3.1935195683383E-07
(PID.TID 0000.0001) %MON dynstat_theta_max            =   2.9674322681988E+01
(PID.TID 0000.0001) %MON dynstat_theta_min            =  -1.9037436302920E+00
(PID.TID 0000.0001) %MON dynstat_theta_mean           =   3.6189124710547E+00
(PID.TID 0000.0001) %MON dynstat_theta_sd             =   4.4140137057595E+00
(PID.TID 0000.0001) %MON dynstat_theta_del2           =   5.3166093563948E-03
(PID.TID 0000.0001) %MON dynstat_salt_max             =   3.7441063195465E+01
(PID.TID 0000.0001) %MON dynstat_salt_min             =   2.9754577010509E+01
(PID.TID 0000.0001) %MON dynstat_salt_mean            =   3.4717950323549E+01
(PID.TID 0000.0001) %MON dynstat_salt_sd              =   2.9609133072936E-01
(PID.TID 0000.0001) %MON dynstat_salt_del2            =   1.0100469737647E-03
(PID.TID 0000.0001) %MON dynstat_sst_max              =   2.9674322681988E+01
(PID.TID 0000.0001) %MON dynstat_sst_min              =  -1.9037436302920E+00
(PID.TID 0000.0001) %MON dynstat_sst_mean             =   1.8533195134738E+01
(PID.TID 0000.0001) %MON dynstat_sst_sd               =   9.1189277817736E+00
(PID.TID 0000.0001) %MON dynstat_sst_del2             =   2.5889310979583E-02
(PID.TID 0000.0001) %MON dynstat_sss_max              =   3.7441063195465E+01
(PID.TID 0000.0001) %MON dynstat_sss_min              =   2.9754577010509E+01
(PID.TID 0000.0001) %MON dynstat_sss_mean             =   3.4851940760713E+01
(PID.TID 0000.0001) %MON dynstat_sss_sd               =   9.6574754186623E-01
(PID.TID 0000.0001) %MON dynstat_sss_del2             =   7.9530700175167E-03
(PID.TID 0000.0001) %MON forcing_qnet_max             =   4.3113174438477E+02
(PID.TID 0000.0001) %MON forcing_qnet_min             =  -1.8469117228190E+02
(PID.TID 0000.0001) %MON forcing_qnet_mean            =  -1.6637645559275E+01
(PID.TID 0000.0001) %MON forcing_qnet_sd              =   1.1179629855085E+02
(PID.TID 0000.0001) %MON forcing_qnet_del2            =   9.9775446314289E-01
(PID.TID 0000.0001) %MON forcing_qsw_max              =   0.0000000000000E+00
(PID.TID 0000.0001) %MON forcing_qsw_min              =   0.0000000000000E+00
(PID.TID 0000.0001) %MON forcing_qsw_mean             =   0.0000000000000E+00
(PID.TID 0000.0001) %MON forcing_qsw_sd               =   0.0000000000000E+00
(PID.TID 0000.0001) %MON forcing_qsw_del2             =   0.0000000000000E+00
(PID.TID 0000.0001) %MON forcing_empmr_max            =   8.1964593334760E-05
(PID.TID 0000.0001) %MON forcing_empmr_min            =  -7.2853588051203E-05
(PID.TID 0000.0001) %MON forcing_empmr_mean           =   8.2523948465558E-07
(PID.TID 0000.0001) %MON forcing_empmr_sd             =   2.8025041303087E-05
(PID.TID 0000.0001) %MON forcing_empmr_del2           =   3.6259598317743E-07
(PID.TID 0000.0001) %MON forcing_fu_max               =   2.7059724926949E-01
(PID.TID 0000.0001) %MON forcing_fu_min               =  -1.6274636983871E-01
(PID.TID 0000.0001) %MON forcing_fu_mean              =   1.6078663362938E-02
(PID.TID 0000.0001) %MON forcing_fu_sd                =   9.0186169351879E-02
(PID.TID 0000.0001) %MON forcing_fu_del2              =   6.6508467741693E-04
(PID.TID 0000.0001) %MON forcing_fv_max               =   2.1432226896286E-01
(PID.TID 0000.0001) %MON forcing_fv_min               =  -1.8398347496986E-01
(PID.TID 0000.0001) %MON forcing_fv_mean              =  -5.9965230081131E-03
(PID.TID 0000.0001) %MON forcing_fv_sd                =   4.5826577347902E-02
(PID.TID 0000.0001) %MON forcing_fv_del2              =   4.5109215240509E-04
(PID.TID 0000.0001) %MON trAdv_CFL_u_max              =   2.9018731405780E-02
(PID.TID 0000.0001) %MON trAdv_CFL_v_max              =   1.7378481347973E-02
(PID.TID 0000.0001) %MON trAdv_CFL_w_max              =   6.0675543433323E-02
(PID.TID 0000.0001) %MON advcfl_uvel_max              =   3.4915854291211E-02
(PID.TID 0000.0001) %MON advcfl_vvel_max              =   2.0133341640118E-02
(PID.TID 0000.0001) %MON advcfl_wvel_max              =   7.4583112490000E-02
(PID.TID 0000.0001) %MON advcfl_W_hf_max              =   8.4396679922895E-02
(PID.TID 0000.0001) %MON pe_b_mean                    =   3.7705945832706E-04
(PID.TID 0000.0001) %MON ke_max                       =   7.3617324000147E-03
(PID.TID 0000.0001) %MON ke_mean                      =   6.2528874498445E-05
(PID.TID 0000.0001) %MON ke_vol                       =   1.3226782436723E+18
(PID.TID 0000.0001) %MON vort_r_min                   =  -2.4208841329185E-07
(PID.TID 0000.0001) %MON vort_r_max                   =   2.0916954703764E-07
(PID.TID 0000.0001) %MON vort_a_mean                  =  -2.5274806999707E-05
(PID.TID 0000.0001) %MON vort_a_sd                    =   7.3604258248707E-05
(PID.TID 0000.0001) %MON vort_p_mean                  =  -3.1845655298325E-05
(PID.TID 0000.0001) %MON vort_p_sd                    =   1.3162471823955E-04
(PID.TID 0000.0001) %MON surfExpan_theta_mean         =  -1.9634503598221E-06
(PID.TID 0000.0001) %MON surfExpan_salt_mean          =  -2.5943306398814E-07
(PID.TID 0000.0001) // =======================================================
(PID.TID 0000.0001) // End MONITOR dynamic field statistics
(PID.TID 0000.0001) // =======================================================
 EXTERNAL_FIELDS_LOAD,         6 : iP,iLd,i0,i1=   12    1   12    1 ; Wght=  0.3000000000  0.7000000000
 EXTERNAL_FIELDS_LOAD: (fu0,1),fu,fv= -4.5368E-02 -3.5633E-02 -3.8553E-02 -6.1154E-02
 EXTERNAL_FIELDS_LOAD: SST,SSS,Q,E-P=  4.1526E-01  3.4504E+01  2.6537E+02  1.1160E-05
DEBUG_STATS_RL:          Uvel (THERMODYNAMICS)  min= -7.88357220524242E-02
DEBUG_STATS_RL:          Uvel (THERMODYNAMICS)  max=  1.11006326055743E-01
DEBUG_STATS_RL:          Uvel (THERMODYNAMICS) mean=  1.90306814271384E-03
DEBUG_STATS_RL:          Uvel (THERMODYNAMICS) S.D.=  1.20977997386032E-02
DEBUG_STATS_RL:          Vvel (THERMODYNAMICS)  min= -1.03628428411191E-01
DEBUG_STATS_RL:          Vvel (THERMODYNAMICS)  max=  8.24770641171515E-02
DEBUG_STATS_RL:          Vvel (THERMODYNAMICS) mean= -1.89824386282015E-03
DEBUG_STATS_RL:          Vvel (THERMODYNAMICS) S.D.=  1.42216148247646E-02
DEBUG_STATS_RL:          Wvel (THERMODYNAMICS)  min= -1.73234779566232E-04
DEBUG_STATS_RL:          Wvel (THERMODYNAMICS)  max=  2.20881416054545E-04
DEBUG_STATS_RL:          Wvel (THERMODYNAMICS) mean= -6.32013761426387E-07
DEBUG_STATS_RL:          Wvel (THERMODYNAMICS) S.D.=  2.28485873717039E-05
DEBUG_STATS_RL:         Theta (THERMODYNAMICS)  min= -1.90401440445206E+00
DEBUG_STATS_RL:         Theta (THERMODYNAMICS)  max=  2.96728830570888E+01
DEBUG_STATS_RL:         Theta (THERMODYNAMICS) mean=  5.89571288216227E+00
DEBUG_STATS_RL:         Theta (THERMODYNAMICS) S.D.=  6.86259762659092E+00
DEBUG_STATS_RL:          Salt (THERMODYNAMICS)  min=  2.97522482754782E+01
DEBUG_STATS_RL:          Salt (THERMODYNAMICS)  max=  3.74383366498366E+01
DEBUG_STATS_RL:          Salt (THERMODYNAMICS) mean=  3.47209005507083E+01
DEBUG_STATS_RL:          Salt (THERMODYNAMICS) S.D.=  4.86577917385360E-01
DEBUG_STATS_RL:         GtNm1 (THERMODYNAMICS)  min= -3.66832193295677E-06
DEBUG_STATS_RL:         GtNm1 (THERMODYNAMICS)  max=  2.42095167423378E-06
DEBUG_STATS_RL:         GtNm1 (THERMODYNAMICS) mean=  2.50163506114245E-08
DEBUG_STATS_RL:         GtNm1 (THERMODYNAMICS) S.D.=  2.34277535210191E-07
DEBUG_STATS_RL:         GsNm1 (THERMODYNAMICS)  min= -3.78397938375069E-07
DEBUG_STATS_RL:         GsNm1 (THERMODYNAMICS)  max=  4.33146083167044E-07
DEBUG_STATS_RL:         GsNm1 (THERMODYNAMICS) mean=  3.71752250329553E-10
DEBUG_STATS_RL:         GsNm1 (THERMODYNAMICS) S.D.=  1.97225120809063E-08
DEBUG_STATS_RL:                EtaN (DYNAMICS)  min= -1.49249162246802E+00
DEBUG_STATS_RL:                EtaN (DYNAMICS)  max=  1.02250736266858E+00
DEBUG_STATS_RL:                EtaN (DYNAMICS) mean= -1.60279197820369E-01
DEBUG_STATS_RL:                EtaN (DYNAMICS) S.D.=  6.16908549798028E-01
DEBUG_STATS_RL:                Uvel (DYNAMICS)  min= -7.88357220524242E-02
DEBUG_STATS_RL:                Uvel (DYNAMICS)  max=  1.11006326055743E-01
DEBUG_STATS_RL:                Uvel (DYNAMICS) mean=  1.90306814271384E-03
DEBUG_STATS_RL:                Uvel (DYNAMICS) S.D.=  1.20977997386032E-02
DEBUG_STATS_RL:                Vvel (DYNAMICS)  min= -1.03628428411191E-01
DEBUG_STATS_RL:                Vvel (DYNAMICS)  max=  8.24770641171515E-02
DEBUG_STATS_RL:                Vvel (DYNAMICS) mean= -1.89824386282015E-03
DEBUG_STATS_RL:                Vvel (DYNAMICS) S.D.=  1.42216148247646E-02
DEBUG_STATS_RL:                Wvel (DYNAMICS)  min= -1.73234779566232E-04
DEBUG_STATS_RL:                Wvel (DYNAMICS)  max=  2.20881416054545E-04
DEBUG_STATS_RL:                Wvel (DYNAMICS) mean= -6.32013761426387E-07
DEBUG_STATS_RL:                Wvel (DYNAMICS) S.D.=  2.28485873717039E-05
DEBUG_STATS_RL:               Theta (DYNAMICS)  min= -1.90401440445206E+00
DEBUG_STATS_RL:               Theta (DYNAMICS)  max=  2.96728830570888E+01
DEBUG_STATS_RL:               Theta (DYNAMICS) mean=  5.89571288216227E+00
DEBUG_STATS_RL:               Theta (DYNAMICS) S.D.=  6.86259762659092E+00
DEBUG_STATS_RL:                Salt (DYNAMICS)  min=  2.97522482754782E+01
DEBUG_STATS_RL:                Salt (DYNAMICS)  max=  3.74383366498366E+01
DEBUG_STATS_RL:                Salt (DYNAMICS) mean=  3.47209005507083E+01
DEBUG_STATS_RL:                Salt (DYNAMICS) S.D.=  4.86577917385360E-01
DEBUG_STATS_RL:                  Gu (DYNAMICS)  min= -7.65093365867716E-02
DEBUG_STATS_RL:                  Gu (DYNAMICS)  max=  1.26712048038041E-01
DEBUG_STATS_RL:                  Gu (DYNAMICS) mean=  2.41855602644451E-03
DEBUG_STATS_RL:                  Gu (DYNAMICS) S.D.=  1.43350066918678E-02
DEBUG_STATS_RL:                  Gv (DYNAMICS)  min= -8.93967346508529E-02
DEBUG_STATS_RL:                  Gv (DYNAMICS)  max=  8.16930180374015E-02
DEBUG_STATS_RL:                  Gv (DYNAMICS) mean=  1.10232994014725E-05
DEBUG_STATS_RL:                  Gv (DYNAMICS) S.D.=  1.38695265660922E-02
DEBUG_STATS_RL:               GuNm1 (DYNAMICS)  min= -7.06413899299278E-06
DEBUG_STATS_RL:               GuNm1 (DYNAMICS)  max=  7.74681681505529E-06
DEBUG_STATS_RL:               GuNm1 (DYNAMICS) mean= -3.02082904823003E-08
DEBUG_STATS_RL:               GuNm1 (DYNAMICS) S.D.=  1.24443776995819E-06
DEBUG_STATS_RL:               GvNm1 (DYNAMICS)  min= -1.07031975869275E-05
DEBUG_STATS_RL:               GvNm1 (DYNAMICS)  max=  1.63000852949672E-05
DEBUG_STATS_RL:               GvNm1 (DYNAMICS) mean=  7.77440591256737E-07
DEBUG_STATS_RL:               GvNm1 (DYNAMICS) S.D.=  2.74780288445737E-06
DEBUG_STATS_RL:               GtNm1 (DYNAMICS)  min= -3.66832193295677E-06
DEBUG_STATS_RL:               GtNm1 (DYNAMICS)  max=  2.42095167423378E-06
DEBUG_STATS_RL:               GtNm1 (DYNAMICS) mean=  2.50163506114245E-08
DEBUG_STATS_RL:               GtNm1 (DYNAMICS) S.D.=  2.34277535210191E-07
DEBUG_STATS_RL:               GsNm1 (DYNAMICS)  min= -3.78397938375069E-07
DEBUG_STATS_RL:               GsNm1 (DYNAMICS)  max=  4.33146083167044E-07
DEBUG_STATS_RL:               GsNm1 (DYNAMICS) mean=  3.71752250329553E-10
DEBUG_STATS_RL:               GsNm1 (DYNAMICS) S.D.=  1.97225120809063E-08
DEBUG_STATS_RL:    cg2d_b (SOLVE_FOR_PRESSURE)  min= -2.39780385738914E+04
DEBUG_STATS_RL:    cg2d_b (SOLVE_FOR_PRESSURE)  max=  1.72543840692079E+04
DEBUG_STATS_RL:    cg2d_b (SOLVE_FOR_PRESSURE) mean=  4.51236202109400E-01
DEBUG_STATS_RL:    cg2d_b (SOLVE_FOR_PRESSURE) S.D.=  3.98624864841855E+03
 cg2d: Sum(rhs),rhsMax =   4.35653568854701E-02  1.57494177295018E+00
(PID.TID 0000.0001)  cg2d: iter=     1 ; resid.=  2.24373437230396E-01
(PID.TID 0000.0001)  cg2d: iter=     2 ; resid.=  2.35686435551346E-01
(PID.TID 0000.0001)  cg2d: iter=     3 ; resid.=  2.58836198672165E-01
(PID.TID 0000.0001)  cg2d: iter=     4 ; resid.=  2.02164167913963E-01
(PID.TID 0000.0001)  cg2d: iter=     5 ; resid.=  1.69633182524586E-01
(PID.TID 0000.0001)  cg2d: iter=     6 ; resid.=  1.43081323331043E-01
(PID.TID 0000.0001)  cg2d: iter=     7 ; resid.=  1.01781115206080E-01
(PID.TID 0000.0001)  cg2d: iter=     8 ; resid.=  8.73625335574550E-02
(PID.TID 0000.0001)  cg2d: iter=     9 ; resid.=  8.66211998060149E-02
(PID.TID 0000.0001)  cg2d: iter=    10 ; resid.=  7.52030911395943E-02
(PID.TID 0000.0001)  cg2d: iter=    11 ; resid.=  6.25469512137038E-02
(PID.TID 0000.0001)  cg2d: iter=    12 ; resid.=  4.52411497399542E-02
(PID.TID 0000.0001)  cg2d: iter=    13 ; resid.=  3.56305778026097E-02
(PID.TID 0000.0001)  cg2d: iter=    14 ; resid.=  3.24959246869135E-02
(PID.TID 0000.0001)  cg2d: iter=    15 ; resid.=  2.89269850843347E-02
(PID.TID 0000.0001)  cg2d: iter=    16 ; resid.=  2.44952232342995E-02
(PID.TID 0000.0001)  cg2d: iter=    17 ; resid.=  2.37394455692524E-02
(PID.TID 0000.0001)  cg2d: iter=    18 ; resid.=  2.06092083360389E-02
(PID.TID 0000.0001)  cg2d: iter=    19 ; resid.=  1.55558666741341E-02
(PID.TID 0000.0001)  cg2d: iter=    20 ; resid.=  1.30411232914497E-02
(PID.TID 0000.0001)  cg2d: iter=    21 ; resid.=  1.17739108358619E-02
(PID.TID 0000.0001)  cg2d: iter=    22 ; resid.=  1.04415513641338E-02
(PID.TID 0000.0001)  cg2d: iter=    23 ; resid.=  8.53297093771021E-03
(PID.TID 0000.0001)  cg2d: iter=    24 ; resid.=  6.80552803487864E-03
(PID.TID 0000.0001)  cg2d: iter=    25 ; resid.=  5.63573202695546E-03
(PID.TID 0000.0001)  cg2d: iter=    26 ; resid.=  4.57469400605820E-03
(PID.TID 0000.0001)  cg2d: iter=    27 ; resid.=  4.03386230147570E-03
(PID.TID 0000.0001)  cg2d: iter=    28 ; resid.=  3.40224296488398E-03
(PID.TID 0000.0001)  cg2d: iter=    29 ; resid.=  2.60190783781427E-03
(PID.TID 0000.0001)  cg2d: iter=    30 ; resid.=  2.20394810889754E-03
(PID.TID 0000.0001)  cg2d: iter=    31 ; resid.=  1.80981654754691E-03
(PID.TID 0000.0001)  cg2d: iter=    32 ; resid.=  1.28636263011641E-03
(PID.TID 0000.0001)  cg2d: iter=    33 ; resid.=  1.08203810997857E-03
(PID.TID 0000.0001)  cg2d: iter=    34 ; resid.=  9.37683294155050E-04
(PID.TID 0000.0001)  cg2d: iter=    35 ; resid.=  7.44415335705566E-04
(PID.TID 0000.0001)  cg2d: iter=    36 ; resid.=  5.53694182858412E-04
(PID.TID 0000.0001)  cg2d: iter=    37 ; resid.=  4.64497360395456E-04
(PID.TID 0000.0001)  cg2d: iter=    38 ; resid.=  4.61908203685049E-04
(PID.TID 0000.0001)  cg2d: iter=    39 ; resid.=  4.08270173424109E-04
(PID.TID 0000.0001)  cg2d: iter=    40 ; resid.=  3.40274812422307E-04
(PID.TID 0000.0001)  cg2d: iter=    41 ; resid.=  3.09688558367517E-04
(PID.TID 0000.0001)  cg2d: iter=    42 ; resid.=  2.82163101285328E-04
(PID.TID 0000.0001)  cg2d: iter=    43 ; resid.=  2.29964569393692E-04
(PID.TID 0000.0001)  cg2d: iter=    44 ; resid.=  1.59617746819278E-04
(PID.TID 0000.0001)  cg2d: iter=    45 ; resid.=  1.21416407910467E-04
(PID.TID 0000.0001)  cg2d: iter=    46 ; resid.=  1.02167080341921E-04
(PID.TID 0000.0001)  cg2d: iter=    47 ; resid.=  8.38177963423573E-05
(PID.TID 0000.0001)  cg2d: iter=    48 ; resid.=  6.86335566290143E-05
(PID.TID 0000.0001)  cg2d: iter=    49 ; resid.=  5.56938451470836E-05
(PID.TID 0000.0001)  cg2d: iter=    50 ; resid.=  4.37356685189256E-05
(PID.TID 0000.0001)  cg2d: iter=    51 ; resid.=  3.78494520837133E-05
(PID.TID 0000.0001)  cg2d: iter=    52 ; resid.=  3.42358555284883E-05
(PID.TID 0000.0001)  cg2d: iter=    53 ; resid.=  3.17887788944717E-05
(PID.TID 0000.0001)  cg2d: iter=    54 ; resid.=  2.60849425365955E-05
(PID.TID 0000.0001)  cg2d: iter=    55 ; resid.=  2.05427754210608E-05
(PID.TID 0000.0001)  cg2d: iter=    56 ; resid.=  1.72866198704634E-05
(PID.TID 0000.0001)  cg2d: iter=    57 ; resid.=  1.36155942355455E-05
(PID.TID 0000.0001)  cg2d: iter=    58 ; resid.=  1.00826738105255E-05
(PID.TID 0000.0001)  cg2d: iter=    59 ; resid.=  8.78228515078494E-06
(PID.TID 0000.0001)  cg2d: iter=    60 ; resid.=  7.73227246590022E-06
(PID.TID 0000.0001)  cg2d: iter=    61 ; resid.=  5.78516730330567E-06
(PID.TID 0000.0001)  cg2d: iter=    62 ; resid.=  4.27072685248001E-06
(PID.TID 0000.0001)  cg2d: iter=    63 ; resid.=  3.44934905461821E-06
(PID.TID 0000.0001)  cg2d: iter=    64 ; resid.=  2.89734336706496E-06
(PID.TID 0000.0001)  cg2d: iter=    65 ; resid.=  2.35337438021461E-06
(PID.TID 0000.0001)  cg2d: iter=    66 ; resid.=  1.81835644855725E-06
(PID.TID 0000.0001)  cg2d: iter=    67 ; resid.=  1.47681430602479E-06
(PID.TID 0000.0001)  cg2d: iter=    68 ; resid.=  1.15839568725820E-06
(PID.TID 0000.0001)  cg2d: iter=    69 ; resid.=  8.88031296840513E-07
(PID.TID 0000.0001)  cg2d: iter=    70 ; resid.=  7.29105054072448E-07
(PID.TID 0000.0001)  cg2d: iter=    71 ; resid.=  5.55669434748192E-07
(PID.TID 0000.0001)  cg2d: iter=    72 ; resid.=  4.02537411394094E-07
(PID.TID 0000.0001)  cg2d: iter=    73 ; resid.=  3.17439238506779E-07
(PID.TID 0000.0001)  cg2d: iter=    74 ; resid.=  2.51382058628002E-07
(PID.TID 0000.0001)  cg2d: iter=    75 ; resid.=  1.89903640955107E-07
(PID.TID 0000.0001)  cg2d: iter=    76 ; resid.=  1.61863545513268E-07
(PID.TID 0000.0001)  cg2d: iter=    77 ; resid.=  1.48191832062960E-07
(PID.TID 0000.0001)  cg2d: iter=    78 ; resid.=  1.36621521528301E-07
(PID.TID 0000.0001)  cg2d: iter=    79 ; resid.=  1.24560844260587E-07
(PID.TID 0000.0001)  cg2d: iter=    80 ; resid.=  1.09925609011739E-07
(PID.TID 0000.0001)  cg2d: iter=    81 ; resid.=  9.28178134388065E-08
(PID.TID 0000.0001)  cg2d: iter=    82 ; resid.=  7.23389458841574E-08
(PID.TID 0000.0001)  cg2d: iter=    83 ; resid.=  5.16187281487335E-08
(PID.TID 0000.0001)  cg2d: iter=    84 ; resid.=  4.07952825870084E-08
(PID.TID 0000.0001)  cg2d: iter=    85 ; resid.=  3.24668253380636E-08
(PID.TID 0000.0001)  cg2d: iter=    86 ; resid.=  2.64269841354701E-08
(PID.TID 0000.0001)  cg2d: iter=    87 ; resid.=  2.15460227408696E-08
(PID.TID 0000.0001)  cg2d: iter=    88 ; resid.=  1.72338331176173E-08
(PID.TID 0000.0001)  cg2d: iter=    89 ; resid.=  1.44186561542463E-08
(PID.TID 0000.0001)  cg2d: iter=    90 ; resid.=  1.15465655302242E-08
(PID.TID 0000.0001)  cg2d: iter=    91 ; resid.=  9.52652370614686E-09
(PID.TID 0000.0001)  cg2d: iter=    92 ; resid.=  7.27026629291200E-09
(PID.TID 0000.0001)  cg2d: iter=    93 ; resid.=  5.34223304293107E-09
(PID.TID 0000.0001)  cg2d: iter=    94 ; resid.=  4.27815980498979E-09
(PID.TID 0000.0001)  cg2d: iter=    95 ; resid.=  3.40911158208929E-09
(PID.TID 0000.0001)  cg2d: iter=    96 ; resid.=  2.63125318853679E-09
(PID.TID 0000.0001)  cg2d: iter=    97 ; resid.=  2.11115044328916E-09
(PID.TID 0000.0001)  cg2d: iter=    98 ; resid.=  1.66524184334617E-09
(PID.TID 0000.0001)  cg2d: iter=    99 ; resid.=  1.36876699844336E-09
(PID.TID 0000.0001)  cg2d: iter=   100 ; resid.=  1.09802163932149E-09
(PID.TID 0000.0001)  cg2d: iter=   101 ; resid.=  9.82965360274406E-10
(PID.TID 0000.0001)  cg2d: iter=   102 ; resid.=  8.36763027360844E-10
(PID.TID 0000.0001)  cg2d: iter=   103 ; resid.=  6.55415081998964E-10
(PID.TID 0000.0001)  cg2d: iter=   104 ; resid.=  5.04267508878591E-10
(PID.TID 0000.0001)  cg2d: iter=   105 ; resid.=  4.29374996110659E-10
(PID.TID 0000.0001)  cg2d: iter=   106 ; resid.=  4.03165684762714E-10
(PID.TID 0000.0001)  cg2d: iter=   107 ; resid.=  3.38164340352425E-10
(PID.TID 0000.0001)  cg2d: iter=   108 ; resid.=  2.48501768198628E-10
(PID.TID 0000.0001)  cg2d: iter=   109 ; resid.=  1.77499421644704E-10
(PID.TID 0000.0001)  cg2d: iter=   110 ; resid.=  1.35233702864388E-10
(PID.TID 0000.0001)  cg2d: iter=   111 ; resid.=  9.86872231271549E-11
(PID.TID 0000.0001)  cg2d: iter=   112 ; resid.=  7.29334753321209E-11
(PID.TID 0000.0001)  cg2d: iter=   113 ; resid.=  5.70470808327596E-11
(PID.TID 0000.0001)  cg2d: iter=   114 ; resid.=  4.66524393753398E-11
(PID.TID 0000.0001)  cg2d: iter=   115 ; resid.=  3.90078361907980E-11
(PID.TID 0000.0001)  cg2d: iter=   116 ; resid.=  3.07063082110377E-11
(PID.TID 0000.0001)  cg2d: iter=   117 ; resid.=  2.11660580957654E-11
(PID.TID 0000.0001)  cg2d: iter=   118 ; resid.=  1.49608587253211E-11
(PID.TID 0000.0001)  cg2d: iter=   119 ; resid.=  1.30509614017784E-11
(PID.TID 0000.0001)  cg2d: iter=   120 ; resid.=  1.08765894943410E-11
(PID.TID 0000.0001)  cg2d: iter=   121 ; resid.=  8.11075717554601E-12
(PID.TID 0000.0001)  cg2d: iter=   122 ; resid.=  5.70543354003528E-12
(PID.TID 0000.0001)  cg2d: iter=   123 ; resid.=  3.98155642375511E-12
(PID.TID 0000.0001)  cg2d: iter=   124 ; resid.=  2.82981538998198E-12
(PID.TID 0000.0001)  cg2d: iter=   125 ; resid.=  2.16587514374924E-12
(PID.TID 0000.0001)  cg2d: iter=   126 ; resid.=  1.76685422282086E-12
(PID.TID 0000.0001)  cg2d: iter=   127 ; resid.=  1.41048498880379E-12
(PID.TID 0000.0001)  cg2d: iter=   128 ; resid.=  1.08790590514388E-12
(PID.TID 0000.0001)  cg2d: iter=   129 ; resid.=  7.67014685161456E-13
(PID.TID 0000.0001)  cg2d: iter=   130 ; resid.=  5.71365313239713E-13
(PID.TID 0000.0001)  cg2d: iter=   131 ; resid.=  4.08442597579273E-13
(PID.TID 0000.0001)  cg2d: iter=   132 ; resid.=  2.74848329973825E-13
(PID.TID 0000.0001)  cg2d: iter=   133 ; resid.=  1.90563389743552E-13
(PID.TID 0000.0001)  cg2d: iter=   134 ; resid.=  1.31187632572972E-13
(PID.TID 0000.0001)  cg2d: iter=   135 ; resid.=  9.68990747640529E-14
DEBUG_STATS_RL:    cg2d_x (SOLVE_FOR_PRESSURE)  min= -1.42895428999085E+01
DEBUG_STATS_RL:    cg2d_x (SOLVE_FOR_PRESSURE)  max=  1.05920197232625E+01
DEBUG_STATS_RL:    cg2d_x (SOLVE_FOR_PRESSURE) mean= -1.53718543561848E+00
DEBUG_STATS_RL:    cg2d_x (SOLVE_FOR_PRESSURE) S.D.=  5.93546201875836E+00
(PID.TID 0000.0001)      cg2d_init_res =   7.45037082617565E-01
(PID.TID 0000.0001)      cg2d_iters(min,last) =      -1     135
(PID.TID 0000.0001)      cg2d_last_res =   9.68990747640529E-14
(PID.TID 0000.0001) // =======================================================
(PID.TID 0000.0001) // Begin MONITOR dynamic field statistics
(PID.TID 0000.0001) // =======================================================
(PID.TID 0000.0001) %MON time_tsnumber                =                     7
(PID.TID 0000.0001) %MON time_secondsf                =   6.0480000000000E+05
(PID.TID 0000.0001) %MON dynstat_eta_max              =   1.0797165874885E+00
(PID.TID 0000.0001) %MON dynstat_eta_min              =  -1.4566302650264E+00
(PID.TID 0000.0001) %MON dynstat_eta_mean             =  -4.7080902545953E-04
(PID.TID 0000.0001) %MON dynstat_eta_sd               =   5.3217552926056E-01
(PID.TID 0000.0001) %MON dynstat_eta_del2             =   2.0720967339906E-03
(PID.TID 0000.0001) %MON dynstat_uvel_max             =   1.2971104952142E-01
(PID.TID 0000.0001) %MON dynstat_uvel_min             =  -8.4503685635296E-02
(PID.TID 0000.0001) %MON dynstat_uvel_mean            =  -2.5816734012962E-04
(PID.TID 0000.0001) %MON dynstat_uvel_sd              =   8.5116494341204E-03
(PID.TID 0000.0001) %MON dynstat_uvel_del2            =   7.7651559063864E-05
(PID.TID 0000.0001) %MON dynstat_vvel_max             =   8.8597061107906E-02
(PID.TID 0000.0001) %MON dynstat_vvel_min             =  -1.1107289180822E-01
(PID.TID 0000.0001) %MON dynstat_vvel_mean            =  -1.9105381908174E-04
(PID.TID 0000.0001) %MON dynstat_vvel_sd              =   9.9422634287267E-03
(PID.TID 0000.0001) %MON dynstat_vvel_del2            =   1.0347606562681E-04
(PID.TID 0000.0001) %MON dynstat_wvel_max             =   2.3174476280996E-04
(PID.TID 0000.0001) %MON dynstat_wvel_min             =  -1.8249656824942E-04
(PID.TID 0000.0001) %MON dynstat_wvel_mean            =   6.0323856310417E-22
(PID.TID 0000.0001) %MON dynstat_wvel_sd              =   2.4872887892689E-05
(PID.TID 0000.0001) %MON dynstat_wvel_del2            =   3.1977057824291E-07
(PID.TID 0000.0001) %MON dynstat_theta_max            =   2.9672883057089E+01
(PID.TID 0000.0001) %MON dynstat_theta_min            =  -1.9040144044521E+00
(PID.TID 0000.0001) %MON dynstat_theta_mean           =   3.6190349064986E+00
(PID.TID 0000.0001) %MON dynstat_theta_sd             =   4.4141728037676E+00
(PID.TID 0000.0001) %MON dynstat_theta_del2           =   5.2401283078262E-03
(PID.TID 0000.0001) %MON dynstat_salt_max             =   3.7438336649837E+01
(PID.TID 0000.0001) %MON dynstat_salt_min             =   2.9752248275478E+01
(PID.TID 0000.0001) %MON dynstat_salt_mean            =   3.4717956994088E+01
(PID.TID 0000.0001) %MON dynstat_salt_sd              =   2.9610199251165E-01
(PID.TID 0000.0001) %MON dynstat_salt_del2            =   1.0084879025627E-03
(PID.TID 0000.0001) %MON dynstat_sst_max              =   2.9672883057089E+01
(PID.TID 0000.0001) %MON dynstat_sst_min              =  -1.9040144044521E+00
(PID.TID 0000.0001) %MON dynstat_sst_mean             =   1.8545250180164E+01
(PID.TID 0000.0001) %MON dynstat_sst_sd               =   9.1103719656280E+00
(PID.TID 0000.0001) %MON dynstat_sst_del2             =   2.5773049834185E-02
(PID.TID 0000.0001) %MON dynstat_sss_max              =   3.7438336649837E+01
(PID.TID 0000.0001) %MON dynstat_sss_min              =   2.9752248275478E+01
(PID.TID 0000.0001) %MON dynstat_sss_mean             =   3.4852453203291E+01
(PID.TID 0000.0001) %MON dynstat_sss_sd               =   9.6611630925323E-01
(PID.TID 0000.0001) %MON dynstat_sss_del2             =   7.9505081092118E-03
(PID.TID 0000.0001) %MON forcing_qnet_max             =   4.3217993164062E+02
(PID.TID 0000.0001) %MON forcing_qnet_min             =  -1.8422400970459E+02
(PID.TID 0000.0001) %MON forcing_qnet_mean            =  -1.6625133603451E+01
(PID.TID 0000.0001) %MON forcing_qnet_sd              =   1.1159198929743E+02
(PID.TID 0000.0001) %MON forcing_qnet_del2            =   9.9967143614056E-01
(PID.TID 0000.0001) %MON forcing_qsw_max              =   0.0000000000000E+00
(PID.TID 0000.0001) %MON forcing_qsw_min              =   0.0000000000000E+00
(PID.TID 0000.0001) %MON forcing_qsw_mean             =   0.0000000000000E+00
(PID.TID 0000.0001) %MON forcing_qsw_sd               =   0.0000000000000E+00
(PID.TID 0000.0001) %MON forcing_qsw_del2             =   0.0000000000000E+00
(PID.TID 0000.0001) %MON forcing_empmr_max            =   8.1887607450426E-05
(PID.TID 0000.0001) %MON forcing_empmr_min            =  -7.2590404442963E-05
(PID.TID 0000.0001) %MON forcing_empmr_mean           =   8.3500924240108E-07
(PID.TID 0000.0001) %MON forcing_empmr_sd             =   2.8083907977094E-05
(PID.TID 0000.0001) %MON forcing_empmr_del2           =   3.6258320756835E-07
(PID.TID 0000.0001) %MON forcing_fu_max               =   2.6977391839027E-01
(PID.TID 0000.0001) %MON forcing_fu_min               =  -1.6355978995562E-01
(PID.TID 0000.0001) %MON forcing_fu_mean              =   1.6070970541901E-02
(PID.TID 0000.0001) %MON forcing_fu_sd                =   9.0225339362360E-02
(PID.TID 0000.0001) %MON forcing_fu_del2              =   6.6893050433667E-04
(PID.TID 0000.0001) %MON forcing_fv_max               =   2.1620217412710E-01
(PID.TID 0000.0001) %MON forcing_fv_min               =  -1.8339881747961E-01
(PID.TID 0000.0001) %MON forcing_fv_mean              =  -5.9227604812523E-03
(PID.TID 0000.0001) %MON forcing_fv_sd                =   4.6005326854092E-02
(PID.TID 0000.0001) %MON forcing_fv_del2              =   4.5373726950670E-04
(PID.TID 0000.0001) %MON trAdv_CFL_u_max              =   3.4922945950940E-02
(PID.TID 0000.0001) %MON trAdv_CFL_v_max              =   1.9492372148367E-02
(PID.TID 0000.0001) %MON trAdv_CFL_w_max              =   6.6814038272292E-02
(PID.TID 0000.0001) %MON advcfl_uvel_max              =   4.0175104473145E-02
(PID.TID 0000.0001) %MON advcfl_vvel_max              =   2.1579681483323E-02
(PID.TID 0000.0001) %MON advcfl_wvel_max              =   7.8854681906368E-02
(PID.TID 0000.0001) %MON advcfl_W_hf_max              =   8.9230297946679E-02
(PID.TID 0000.0001) %MON pe_b_mean                    =   3.6240263069189E-04
(PID.TID 0000.0001) %MON ke_max                       =   9.3569186827274E-03
(PID.TID 0000.0001) %MON ke_mean                      =   7.7338441256873E-05
(PID.TID 0000.0001) %MON ke_vol                       =   1.3226782436723E+18
(PID.TID 0000.0001) %MON vort_r_min                   =  -2.5382507095737E-07
(PID.TID 0000.0001) %MON vort_r_max                   =   2.2560900024674E-07
(PID.TID 0000.0001) %MON vort_a_mean                  =  -2.5274807004746E-05
(PID.TID 0000.0001) %MON vort_a_sd                    =   7.3604299171608E-05
(PID.TID 0000.0001) %MON vort_p_mean                  =  -3.1845655304673E-05
(PID.TID 0000.0001) %MON vort_p_sd                    =   1.3162459327181E-04
(PID.TID 0000.0001) %MON surfExpan_theta_mean         =  -1.5181464616649E-06
(PID.TID 0000.0001) %MON surfExpan_salt_mean          =  -2.0186248606238E-07
(PID.TID 0000.0001) // =======================================================
(PID.TID 0000.0001) // End MONITOR dynamic field statistics
(PID.TID 0000.0001) // =======================================================
 EXTERNAL_FIELDS_LOAD,         7 : iP,iLd,i0,i1=   12    1   12    1 ; Wght=  0.2666666667  0.7333333333
 EXTERNAL_FIELDS_LOAD: (fu0,1),fu,fv= -4.5368E-02 -3.5633E-02 -3.8229E-02 -6.0721E-02
 EXTERNAL_FIELDS_LOAD: SST,SSS,Q,E-P=  4.7561E-01  3.4527E+01  2.6541E+02  1.1213E-05
DEBUG_STATS_RL:          Uvel (THERMODYNAMICS)  min= -8.45036856352963E-02
DEBUG_STATS_RL:          Uvel (THERMODYNAMICS)  max=  1.29711049521418E-01
DEBUG_STATS_RL:          Uvel (THERMODYNAMICS) mean=  2.74049296457507E-03
DEBUG_STATS_RL:          Uvel (THERMODYNAMICS) S.D.=  1.43686858715636E-02
DEBUG_STATS_RL:          Vvel (THERMODYNAMICS)  min= -1.11072891808224E-01
DEBUG_STATS_RL:          Vvel (THERMODYNAMICS)  max=  8.85970611079056E-02
DEBUG_STATS_RL:          Vvel (THERMODYNAMICS) mean= -2.06782142717930E-03
DEBUG_STATS_RL:          Vvel (THERMODYNAMICS) S.D.=  1.50569764162516E-02
DEBUG_STATS_RL:          Wvel (THERMODYNAMICS)  min= -1.82496568249419E-04
DEBUG_STATS_RL:          Wvel (THERMODYNAMICS)  max=  2.31744762809964E-04
DEBUG_STATS_RL:          Wvel (THERMODYNAMICS) mean= -6.57208149312729E-07
DEBUG_STATS_RL:          Wvel (THERMODYNAMICS) S.D.=  2.34129262245304E-05
DEBUG_STATS_RL:         Theta (THERMODYNAMICS)  min= -1.90456702755241E+00
DEBUG_STATS_RL:         Theta (THERMODYNAMICS)  max=  2.96712515395335E+01
DEBUG_STATS_RL:         Theta (THERMODYNAMICS) mean=  5.89775178703262E+00
DEBUG_STATS_RL:         Theta (THERMODYNAMICS) S.D.=  6.86312872586544E+00
DEBUG_STATS_RL:          Salt (THERMODYNAMICS)  min=  2.97503529173597E+01
DEBUG_STATS_RL:          Salt (THERMODYNAMICS)  max=  3.74362354370468E+01
DEBUG_STATS_RL:          Salt (THERMODYNAMICS) mean=  3.47209357357197E+01
DEBUG_STATS_RL:          Salt (THERMODYNAMICS) S.D.=  4.86677734726770E-01
DEBUG_STATS_RL:         GtNm1 (THERMODYNAMICS)  min= -3.77154058188533E-06
DEBUG_STATS_RL:         GtNm1 (THERMODYNAMICS)  max=  2.19577990730495E-06
DEBUG_STATS_RL:         GtNm1 (THERMODYNAMICS) mean=  2.49889256224748E-08
DEBUG_STATS_RL:         GtNm1 (THERMODYNAMICS) S.D.=  2.44318591724170E-07
DEBUG_STATS_RL:         GsNm1 (THERMODYNAMICS)  min= -3.99442527918294E-07
DEBUG_STATS_RL:         GsNm1 (THERMODYNAMICS)  max=  7.26699525007988E-07
DEBUG_STATS_RL:         GsNm1 (THERMODYNAMICS) mean=  3.56506173241442E-10
DEBUG_STATS_RL:         GsNm1 (THERMODYNAMICS) S.D.=  2.10728598622279E-08
DEBUG_STATS_RL:                EtaN (DYNAMICS)  min= -1.45663026502635E+00
DEBUG_STATS_RL:                EtaN (DYNAMICS)  max=  1.07971658748853E+00
DEBUG_STATS_RL:                EtaN (DYNAMICS) mean= -1.56695763059987E-01
DEBUG_STATS_RL:                EtaN (DYNAMICS) S.D.=  6.05041999873434E-01
DEBUG_STATS_RL:                Uvel (DYNAMICS)  min= -8.45036856352963E-02
DEBUG_STATS_RL:                Uvel (DYNAMICS)  max=  1.29711049521418E-01
DEBUG_STATS_RL:                Uvel (DYNAMICS) mean=  2.74049296457507E-03
DEBUG_STATS_RL:                Uvel (DYNAMICS) S.D.=  1.43686858715636E-02
DEBUG_STATS_RL:                Vvel (DYNAMICS)  min= -1.11072891808224E-01
DEBUG_STATS_RL:                Vvel (DYNAMICS)  max=  8.85970611079056E-02
DEBUG_STATS_RL:                Vvel (DYNAMICS) mean= -2.06782142717930E-03
DEBUG_STATS_RL:                Vvel (DYNAMICS) S.D.=  1.50569764162516E-02
DEBUG_STATS_RL:                Wvel (DYNAMICS)  min= -1.82496568249419E-04
DEBUG_STATS_RL:                Wvel (DYNAMICS)  max=  2.31744762809964E-04
DEBUG_STATS_RL:                Wvel (DYNAMICS) mean= -6.57208149312729E-07
DEBUG_STATS_RL:                Wvel (DYNAMICS) S.D.=  2.34129262245304E-05
DEBUG_STATS_RL:               Theta (DYNAMICS)  min= -1.90456702755241E+00
DEBUG_STATS_RL:               Theta (DYNAMICS)  max=  2.96712515395335E+01
DEBUG_STATS_RL:               Theta (DYNAMICS) mean=  5.89775178703262E+00
DEBUG_STATS_RL:               Theta (DYNAMICS) S.D.=  6.86312872586544E+00
DEBUG_STATS_RL:                Salt (DYNAMICS)  min=  2.97503529173597E+01
DEBUG_STATS_RL:                Salt (DYNAMICS)  max=  3.74362354370468E+01
DEBUG_STATS_RL:                Salt (DYNAMICS) mean=  3.47209357357197E+01
DEBUG_STATS_RL:                Salt (DYNAMICS) S.D.=  4.86677734726770E-01
DEBUG_STATS_RL:                  Gu (DYNAMICS)  min= -8.11795374928498E-02
DEBUG_STATS_RL:                  Gu (DYNAMICS)  max=  1.43843558580521E-01
DEBUG_STATS_RL:                  Gu (DYNAMICS) mean=  3.27003631421976E-03
DEBUG_STATS_RL:                  Gu (DYNAMICS) S.D.=  1.65960969692909E-02
DEBUG_STATS_RL:                  Gv (DYNAMICS)  min= -9.43836916042788E-02
DEBUG_STATS_RL:                  Gv (DYNAMICS)  max=  8.94183462217567E-02
DEBUG_STATS_RL:                  Gv (DYNAMICS) mean= -5.50928626054968E-05
DEBUG_STATS_RL:                  Gv (DYNAMICS) S.D.=  1.43488957601368E-02
DEBUG_STATS_RL:               GuNm1 (DYNAMICS)  min= -6.84219370471673E-06
DEBUG_STATS_RL:               GuNm1 (DYNAMICS)  max=  7.50868265482229E-06
DEBUG_STATS_RL:               GuNm1 (DYNAMICS) mean= -2.91795511389673E-08
DEBUG_STATS_RL:               GuNm1 (DYNAMICS) S.D.=  1.20865350870065E-06
DEBUG_STATS_RL:               GvNm1 (DYNAMICS)  min= -1.03117238896739E-05
DEBUG_STATS_RL:               GvNm1 (DYNAMICS)  max=  1.63469007651014E-05
DEBUG_STATS_RL:               GvNm1 (DYNAMICS) mean=  7.76672672172929E-07
DEBUG_STATS_RL:               GvNm1 (DYNAMICS) S.D.=  2.71462395533794E-06
DEBUG_STATS_RL:               GtNm1 (DYNAMICS)  min= -3.77154058188533E-06
DEBUG_STATS_RL:               GtNm1 (DYNAMICS)  max=  2.19577990730495E-06
DEBUG_STATS_RL:               GtNm1 (DYNAMICS) mean=  2.49889256224748E-08
DEBUG_STATS_RL:               GtNm1 (DYNAMICS) S.D.=  2.44318591724170E-07
DEBUG_STATS_RL:               GsNm1 (DYNAMICS)  min= -3.99442527918294E-07
DEBUG_STATS_RL:               GsNm1 (DYNAMICS)  max=  7.26699525007988E-07
DEBUG_STATS_RL:               GsNm1 (DYNAMICS) mean=  3.56506173241442E-10
DEBUG_STATS_RL:               GsNm1 (DYNAMICS) S.D.=  2.10728598622279E-08
DEBUG_STATS_RL:    cg2d_b (SOLVE_FOR_PRESSURE)  min= -2.07025496463045E+04
DEBUG_STATS_RL:    cg2d_b (SOLVE_FOR_PRESSURE)  max=  1.64123102869174E+04
DEBUG_STATS_RL:    cg2d_b (SOLVE_FOR_PRESSURE) mean=  5.18825145572458E-01
DEBUG_STATS_RL:    cg2d_b (SOLVE_FOR_PRESSURE) S.D.=  3.76769416384619E+03
 cg2d: Sum(rhs),rhsMax =   5.80160527336540E-02  1.35979889030800E+00
(PID.TID 0000.0001)  cg2d: iter=     1 ; resid.=  2.45079596950785E-01
(PID.TID 0000.0001)  cg2d: iter=     2 ; resid.=  2.63698356641245E-01
(PID.TID 0000.0001)  cg2d: iter=     3 ; resid.=  3.28401921800896E-01
(PID.TID 0000.0001)  cg2d: iter=     4 ; resid.=  2.63379289843793E-01
(PID.TID 0000.0001)  cg2d: iter=     5 ; resid.=  2.01844197967358E-01
(PID.TID 0000.0001)  cg2d: iter=     6 ; resid.=  1.69712300213812E-01
(PID.TID 0000.0001)  cg2d: iter=     7 ; resid.=  1.23417859910449E-01
(PID.TID 0000.0001)  cg2d: iter=     8 ; resid.=  1.00948113200296E-01
(PID.TID 0000.0001)  cg2d: iter=     9 ; resid.=  9.06784807785981E-02
(PID.TID 0000.0001)  cg2d: iter=    10 ; resid.=  8.10455925858625E-02
(PID.TID 0000.0001)  cg2d: iter=    11 ; resid.=  7.14453739269559E-02
(PID.TID 0000.0001)  cg2d: iter=    12 ; resid.=  5.63690668367807E-02
(PID.TID 0000.0001)  cg2d: iter=    13 ; resid.=  4.06337546701039E-02
(PID.TID 0000.0001)  cg2d: iter=    14 ; resid.=  3.63566658047045E-02
(PID.TID 0000.0001)  cg2d: iter=    15 ; resid.=  3.47270947794395E-02
(PID.TID 0000.0001)  cg2d: iter=    16 ; resid.=  3.15430888993685E-02
(PID.TID 0000.0001)  cg2d: iter=    17 ; resid.=  3.01665516634020E-02
(PID.TID 0000.0001)  cg2d: iter=    18 ; resid.=  2.62017255074089E-02
(PID.TID 0000.0001)  cg2d: iter=    19 ; resid.=  1.89207447162673E-02
(PID.TID 0000.0001)  cg2d: iter=    20 ; resid.=  1.45532292594147E-02
(PID.TID 0000.0001)  cg2d: iter=    21 ; resid.=  1.18609088647191E-02
(PID.TID 0000.0001)  cg2d: iter=    22 ; resid.=  1.08209453692309E-02
(PID.TID 0000.0001)  cg2d: iter=    23 ; resid.=  9.84325492360099E-03
(PID.TID 0000.0001)  cg2d: iter=    24 ; resid.=  8.13012025630431E-03
(PID.TID 0000.0001)  cg2d: iter=    25 ; resid.=  6.39166964376604E-03
(PID.TID 0000.0001)  cg2d: iter=    26 ; resid.=  4.99229662383411E-03
(PID.TID 0000.0001)  cg2d: iter=    27 ; resid.=  4.30376347359177E-03
(PID.TID 0000.0001)  cg2d: iter=    28 ; resid.=  3.71836387429770E-03
(PID.TID 0000.0001)  cg2d: iter=    29 ; resid.=  2.86379442152318E-03
(PID.TID 0000.0001)  cg2d: iter=    30 ; resid.=  2.21136035048315E-03
(PID.TID 0000.0001)  cg2d: iter=    31 ; resid.=  1.82379294921618E-03
(PID.TID 0000.0001)  cg2d: iter=    32 ; resid.=  1.34677700205063E-03
(PID.TID 0000.0001)  cg2d: iter=    33 ; resid.=  1.08920371239777E-03
(PID.TID 0000.0001)  cg2d: iter=    34 ; resid.=  9.19467222614579E-04
(PID.TID 0000.0001)  cg2d: iter=    35 ; resid.=  7.48437425762870E-04
(PID.TID 0000.0001)  cg2d: iter=    36 ; resid.=  6.02036672472576E-04
(PID.TID 0000.0001)  cg2d: iter=    37 ; resid.=  5.30590599906209E-04
(PID.TID 0000.0001)  cg2d: iter=    38 ; resid.=  5.45370078421907E-04
(PID.TID 0000.0001)  cg2d: iter=    39 ; resid.=  4.75767806822066E-04
(PID.TID 0000.0001)  cg2d: iter=    40 ; resid.=  3.76921355246429E-04
(PID.TID 0000.0001)  cg2d: iter=    41 ; resid.=  3.38649649463131E-04
(PID.TID 0000.0001)  cg2d: iter=    42 ; resid.=  3.41727696197361E-04
(PID.TID 0000.0001)  cg2d: iter=    43 ; resid.=  2.91442293828148E-04
(PID.TID 0000.0001)  cg2d: iter=    44 ; resid.=  1.92123239711685E-04
(PID.TID 0000.0001)  cg2d: iter=    45 ; resid.=  1.33307395432015E-04
(PID.TID 0000.0001)  cg2d: iter=    46 ; resid.=  1.09963646750444E-04
(PID.TID 0000.0001)  cg2d: iter=    47 ; resid.=  9.63431585953218E-05
(PID.TID 0000.0001)  cg2d: iter=    48 ; resid.=  7.99744272579387E-05
(PID.TID 0000.0001)  cg2d: iter=    49 ; resid.=  6.23172283666443E-05
(PID.TID 0000.0001)  cg2d: iter=    50 ; resid.=  4.61099722732442E-05
(PID.TID 0000.0001)  cg2d: iter=    51 ; resid.=  3.61932393980078E-05
(PID.TID 0000.0001)  cg2d: iter=    52 ; resid.=  2.82645186070965E-05
(PID.TID 0000.0001)  cg2d: iter=    53 ; resid.=  2.33269892024718E-05
(PID.TID 0000.0001)  cg2d: iter=    54 ; resid.=  1.81770777692015E-05
(PID.TID 0000.0001)  cg2d: iter=    55 ; resid.=  1.39853054284929E-05
(PID.TID 0000.0001)  cg2d: iter=    56 ; resid.=  1.15182517054743E-05
(PID.TID 0000.0001)  cg2d: iter=    57 ; resid.=  9.30138765512804E-06
(PID.TID 0000.0001)  cg2d: iter=    58 ; resid.=  6.77247964039896E-06
(PID.TID 0000.0001)  cg2d: iter=    59 ; resid.=  5.20319280656371E-06
(PID.TID 0000.0001)  cg2d: iter=    60 ; resid.=  4.65850703233674E-06
(PID.TID 0000.0001)  cg2d: iter=    61 ; resid.=  4.24229455713592E-06
(PID.TID 0000.0001)  cg2d: iter=    62 ; resid.=  3.61572171811405E-06
(PID.TID 0000.0001)  cg2d: iter=    63 ; resid.=  3.04025181071657E-06
(PID.TID 0000.0001)  cg2d: iter=    64 ; resid.=  2.72498858000421E-06
(PID.TID 0000.0001)  cg2d: iter=    65 ; resid.=  2.29611453747203E-06
(PID.TID 0000.0001)  cg2d: iter=    66 ; resid.=  1.65832698937181E-06
(PID.TID 0000.0001)  cg2d: iter=    67 ; resid.=  1.24701716921411E-06
(PID.TID 0000.0001)  cg2d: iter=    68 ; resid.=  1.02998374922295E-06
(PID.TID 0000.0001)  cg2d: iter=    69 ; resid.=  8.13579447429378E-07
(PID.TID 0000.0001)  cg2d: iter=    70 ; resid.=  6.25002275805608E-07
(PID.TID 0000.0001)  cg2d: iter=    71 ; resid.=  4.71559215562348E-07
(PID.TID 0000.0001)  cg2d: iter=    72 ; resid.=  3.27572369183337E-07
(PID.TID 0000.0001)  cg2d: iter=    73 ; resid.=  2.57575801212983E-07
(PID.TID 0000.0001)  cg2d: iter=    74 ; resid.=  2.20309960759227E-07
(PID.TID 0000.0001)  cg2d: iter=    75 ; resid.=  1.63410588127964E-07
(PID.TID 0000.0001)  cg2d: iter=    76 ; resid.=  1.23375620790849E-07
(PID.TID 0000.0001)  cg2d: iter=    77 ; resid.=  1.06195063155341E-07
(PID.TID 0000.0001)  cg2d: iter=    78 ; resid.=  9.48554255934139E-08
(PID.TID 0000.0001)  cg2d: iter=    79 ; resid.=  8.80933590971948E-08
(PID.TID 0000.0001)  cg2d: iter=    80 ; resid.=  7.74563717988493E-08
(PID.TID 0000.0001)  cg2d: iter=    81 ; resid.=  6.07763241532411E-08
(PID.TID 0000.0001)  cg2d: iter=    82 ; resid.=  4.81914348230739E-08
(PID.TID 0000.0001)  cg2d: iter=    83 ; resid.=  4.00112230337325E-08
(PID.TID 0000.0001)  cg2d: iter=    84 ; resid.=  3.59539039593993E-08
(PID.TID 0000.0001)  cg2d: iter=    85 ; resid.=  3.03629374895801E-08
(PID.TID 0000.0001)  cg2d: iter=    86 ; resid.=  2.42536881472473E-08
(PID.TID 0000.0001)  cg2d: iter=    87 ; resid.=  1.89676265157932E-08
(PID.TID 0000.0001)  cg2d: iter=    88 ; resid.=  1.63691872527330E-08
(PID.TID 0000.0001)  cg2d: iter=    89 ; resid.=  1.53486148006300E-08
(PID.TID 0000.0001)  cg2d: iter=    90 ; resid.=  1.19928590372710E-08
(PID.TID 0000.0001)  cg2d: iter=    91 ; resid.=  8.34407731236583E-09
(PID.TID 0000.0001)  cg2d: iter=    92 ; resid.=  6.06132472757881E-09
(PID.TID 0000.0001)  cg2d: iter=    93 ; resid.=  4.51376187737204E-09
(PID.TID 0000.0001)  cg2d: iter=    94 ; resid.=  3.49326513499545E-09
(PID.TID 0000.0001)  cg2d: iter=    95 ; resid.=  2.60826580230430E-09
(PID.TID 0000.0001)  cg2d: iter=    96 ; resid.=  1.91756071542113E-09
(PID.TID 0000.0001)  cg2d: iter=    97 ; resid.=  1.36995423145526E-09
(PID.TID 0000.0001)  cg2d: iter=    98 ; resid.=  9.63247891146436E-10
(PID.TID 0000.0001)  cg2d: iter=    99 ; resid.=  7.81320576922891E-10
(PID.TID 0000.0001)  cg2d: iter=   100 ; resid.=  6.24466628094683E-10
(PID.TID 0000.0001)  cg2d: iter=   101 ; resid.=  5.40865263332526E-10
(PID.TID 0000.0001)  cg2d: iter=   102 ; resid.=  4.34523298963540E-10
(PID.TID 0000.0001)  cg2d: iter=   103 ; resid.=  3.22513804832689E-10
(PID.TID 0000.0001)  cg2d: iter=   104 ; resid.=  2.35983695287683E-10
(PID.TID 0000.0001)  cg2d: iter=   105 ; resid.=  1.83735227476025E-10
(PID.TID 0000.0001)  cg2d: iter=   106 ; resid.=  1.53450984073605E-10
(PID.TID 0000.0001)  cg2d: iter=   107 ; resid.=  1.30364349661760E-10
(PID.TID 0000.0001)  cg2d: iter=   108 ; resid.=  1.01287393149589E-10
(PID.TID 0000.0001)  cg2d: iter=   109 ; resid.=  7.47413389530834E-11
(PID.TID 0000.0001)  cg2d: iter=   110 ; resid.=  5.90761064259255E-11
(PID.TID 0000.0001)  cg2d: iter=   111 ; resid.=  4.84227017375647E-11
(PID.TID 0000.0001)  cg2d: iter=   112 ; resid.=  4.02107217814739E-11
(PID.TID 0000.0001)  cg2d: iter=   113 ; resid.=  3.29842930696552E-11
(PID.TID 0000.0001)  cg2d: iter=   114 ; resid.=  2.66867863499352E-11
(PID.TID 0000.0001)  cg2d: iter=   115 ; resid.=  2.21416552547393E-11
(PID.TID 0000.0001)  cg2d: iter=   116 ; resid.=  1.99154082527530E-11
(PID.TID 0000.0001)  cg2d: iter=   117 ; resid.=  1.65406029401471E-11
(PID.TID 0000.0001)  cg2d: iter=   118 ; resid.=  1.23733054851342E-11
(PID.TID 0000.0001)  cg2d: iter=   119 ; resid.=  9.86950201441229E-12
(PID.TID 0000.0001)  cg2d: iter=   120 ; resid.=  8.25770735453131E-12
(PID.TID 0000.0001)  cg2d: iter=   121 ; resid.=  6.52356519629297E-12
(PID.TID 0000.0001)  cg2d: iter=   122 ; resid.=  4.84252379513463E-12
(PID.TID 0000.0001)  cg2d: iter=   123 ; resid.=  3.70990928285673E-12
(PID.TID 0000.0001)  cg2d: iter=   124 ; resid.=  2.78370990605158E-12
(PID.TID 0000.0001)  cg2d: iter=   125 ; resid.=  2.13507162754335E-12
(PID.TID 0000.0001)  cg2d: iter=   126 ; resid.=  1.64424365073453E-12
(PID.TID 0000.0001)  cg2d: iter=   127 ; resid.=  1.30037858556950E-12
(PID.TID 0000.0001)  cg2d: iter=   128 ; resid.=  1.08682001063935E-12
(PID.TID 0000.0001)  cg2d: iter=   129 ; resid.=  8.77845187333819E-13
(PID.TID 0000.0001)  cg2d: iter=   130 ; resid.=  6.94362366647743E-13
(PID.TID 0000.0001)  cg2d: iter=   131 ; resid.=  5.06240128883938E-13
(PID.TID 0000.0001)  cg2d: iter=   132 ; resid.=  3.73164974893796E-13
(PID.TID 0000.0001)  cg2d: iter=   133 ; resid.=  2.95350452133247E-13
(PID.TID 0000.0001)  cg2d: iter=   134 ; resid.=  2.28336180368201E-13
(PID.TID 0000.0001)  cg2d: iter=   135 ; resid.=  1.82061969336361E-13
(PID.TID 0000.0001)  cg2d: iter=   136 ; resid.=  1.36491286858361E-13
(PID.TID 0000.0001)  cg2d: iter=   137 ; resid.=  9.26477344181525E-14
DEBUG_STATS_RL:    cg2d_x (SOLVE_FOR_PRESSURE)  min= -1.39926432383334E+01
DEBUG_STATS_RL:    cg2d_x (SOLVE_FOR_PRESSURE)  max=  1.03599013215038E+01
DEBUG_STATS_RL:    cg2d_x (SOLVE_FOR_PRESSURE) mean= -1.51363052552181E+00
DEBUG_STATS_RL:    cg2d_x (SOLVE_FOR_PRESSURE) S.D.=  5.84647879092201E+00
(PID.TID 0000.0001)      cg2d_init_res =   8.63950628761882E-01
(PID.TID 0000.0001)      cg2d_iters(min,last) =      -1     137
(PID.TID 0000.0001)      cg2d_last_res =   9.26477344181525E-14
(PID.TID 0000.0001) // =======================================================
(PID.TID 0000.0001) // Begin MONITOR dynamic field statistics
(PID.TID 0000.0001) // =======================================================
(PID.TID 0000.0001) %MON time_tsnumber                =                     8
(PID.TID 0000.0001) %MON time_secondsf                =   6.9120000000000E+05
(PID.TID 0000.0001) %MON dynstat_eta_max              =   1.0560551805814E+00
(PID.TID 0000.0001) %MON dynstat_eta_min              =  -1.4263652638463E+00
(PID.TID 0000.0001) %MON dynstat_eta_mean             =  -5.4132970721141E-04
(PID.TID 0000.0001) %MON dynstat_eta_sd               =   5.2426935285259E-01
(PID.TID 0000.0001) %MON dynstat_eta_del2             =   1.9803323837246E-03
(PID.TID 0000.0001) %MON dynstat_uvel_max             =   1.4645307083907E-01
(PID.TID 0000.0001) %MON dynstat_uvel_min             =  -8.7603694078285E-02
(PID.TID 0000.0001) %MON dynstat_uvel_mean            =  -4.3630016400569E-05
(PID.TID 0000.0001) %MON dynstat_uvel_sd              =   9.8282615616376E-03
(PID.TID 0000.0001) %MON dynstat_uvel_del2            =   8.1104115382160E-05
(PID.TID 0000.0001) %MON dynstat_vvel_max             =   9.1983002629604E-02
(PID.TID 0000.0001) %MON dynstat_vvel_min             =  -1.1470071193696E-01
(PID.TID 0000.0001) %MON dynstat_vvel_mean            =  -2.9170605389691E-04
(PID.TID 0000.0001) %MON dynstat_vvel_sd              =   1.0283780242885E-02
(PID.TID 0000.0001) %MON dynstat_vvel_del2            =   1.0596257968452E-04
(PID.TID 0000.0001) %MON dynstat_wvel_max             =   2.3440950992949E-04
(PID.TID 0000.0001) %MON dynstat_wvel_min             =  -1.9228454645626E-04
(PID.TID 0000.0001) %MON dynstat_wvel_mean            =   5.0730452475546E-22
(PID.TID 0000.0001) %MON dynstat_wvel_sd              =   2.4805041773910E-05
(PID.TID 0000.0001) %MON dynstat_wvel_del2            =   3.0794541686355E-07
(PID.TID 0000.0001) %MON dynstat_theta_max            =   2.9671251539534E+01
(PID.TID 0000.0001) %MON dynstat_theta_min            =  -1.9045670275524E+00
(PID.TID 0000.0001) %MON dynstat_theta_mean           =   3.6191260543064E+00
(PID.TID 0000.0001) %MON dynstat_theta_sd             =   4.4142484098128E+00
(PID.TID 0000.0001) %MON dynstat_theta_del2           =   5.1692755998227E-03
(PID.TID 0000.0001) %MON dynstat_salt_max             =   3.7436235437047E+01
(PID.TID 0000.0001) %MON dynstat_salt_min             =   2.9750352917360E+01
(PID.TID 0000.0001) %MON dynstat_salt_mean            =   3.4717961356727E+01
(PID.TID 0000.0001) %MON dynstat_salt_sd              =   2.9611547663715E-01
(PID.TID 0000.0001) %MON dynstat_salt_del2            =   1.0076576738776E-03
(PID.TID 0000.0001) %MON dynstat_sst_max              =   2.9671251539534E+01
(PID.TID 0000.0001) %MON dynstat_sst_min              =  -1.9045670275524E+00
(PID.TID 0000.0001) %MON dynstat_sst_mean             =   1.8557165176175E+01
(PID.TID 0000.0001) %MON dynstat_sst_sd               =   9.1019300446463E+00
(PID.TID 0000.0001) %MON dynstat_sst_del2             =   2.5675981413316E-02
(PID.TID 0000.0001) %MON dynstat_sss_max              =   3.7436235437047E+01
(PID.TID 0000.0001) %MON dynstat_sss_min              =   2.9750352917360E+01
(PID.TID 0000.0001) %MON dynstat_sss_mean             =   3.4853023872575E+01
(PID.TID 0000.0001) %MON dynstat_sss_sd               =   9.6654270145571E-01
(PID.TID 0000.0001) %MON dynstat_sss_del2             =   7.9465760684856E-03
(PID.TID 0000.0001) %MON forcing_qnet_max             =   4.3322811889648E+02
(PID.TID 0000.0001) %MON forcing_qnet_min             =  -1.8375684712728E+02
(PID.TID 0000.0001) %MON forcing_qnet_mean            =  -1.6612621647629E+01
(PID.TID 0000.0001) %MON forcing_qnet_sd              =   1.1139030190430E+02
(PID.TID 0000.0001) %MON forcing_qnet_del2            =   1.0017615545299E+00
(PID.TID 0000.0001) %MON forcing_qsw_max              =   0.0000000000000E+00
(PID.TID 0000.0001) %MON forcing_qsw_min              =   0.0000000000000E+00
(PID.TID 0000.0001) %MON forcing_qsw_mean             =   0.0000000000000E+00
(PID.TID 0000.0001) %MON forcing_qsw_sd               =   0.0000000000000E+00
(PID.TID 0000.0001) %MON forcing_qsw_del2             =   0.0000000000000E+00
(PID.TID 0000.0001) %MON forcing_empmr_max            =   8.1889273909989E-05
(PID.TID 0000.0001) %MON forcing_empmr_min            =  -7.2333472189712E-05
(PID.TID 0000.0001) %MON forcing_empmr_mean           =   8.4477900014659E-07
(PID.TID 0000.0001) %MON forcing_empmr_sd             =   2.8146998273902E-05
(PID.TID 0000.0001) %MON forcing_empmr_del2           =   3.6268469487418E-07
(PID.TID 0000.0001) %MON forcing_fu_max               =   2.6985520720482E-01
(PID.TID 0000.0001) %MON forcing_fu_min               =  -1.6437321007252E-01
(PID.TID 0000.0001) %MON forcing_fu_mean              =   1.6063277720863E-02
(PID.TID 0000.0001) %MON forcing_fu_sd                =   9.0275341241088E-02
(PID.TID 0000.0001) %MON forcing_fu_del2              =   6.7327842425542E-04
(PID.TID 0000.0001) %MON forcing_fv_max               =   2.1808207929134E-01
(PID.TID 0000.0001) %MON forcing_fv_min               =  -1.8281415998936E-01
(PID.TID 0000.0001) %MON forcing_fv_mean              =  -5.8489979543916E-03
(PID.TID 0000.0001) %MON forcing_fv_sd                =   4.6198708258185E-02
(PID.TID 0000.0001) %MON forcing_fv_del2              =   4.5690396795039E-04
(PID.TID 0000.0001) %MON trAdv_CFL_u_max              =   4.0183264324201E-02
(PID.TID 0000.0001) %MON trAdv_CFL_v_max              =   2.0892665998276E-02
(PID.TID 0000.0001) %MON trAdv_CFL_w_max              =   7.0640652541121E-02
(PID.TID 0000.0001) %MON advcfl_uvel_max              =   4.4553859645082E-02
(PID.TID 0000.0001) %MON advcfl_vvel_max              =   2.2284508751097E-02
(PID.TID 0000.0001) %MON advcfl_wvel_max              =   8.0512393194933E-02
(PID.TID 0000.0001) %MON advcfl_W_hf_max              =   9.1106129141635E-02
(PID.TID 0000.0001) %MON pe_b_mean                    =   3.5171476881141E-04
(PID.TID 0000.0001) %MON ke_max                       =   1.1303398259744E-02
(PID.TID 0000.0001) %MON ke_mean                      =   9.1402077910798E-05
(PID.TID 0000.0001) %MON ke_vol                       =   1.3226782436723E+18
(PID.TID 0000.0001) %MON vort_r_min                   =  -2.9533980735535E-07
(PID.TID 0000.0001) %MON vort_r_max                   =   2.4554555394904E-07
(PID.TID 0000.0001) %MON vort_a_mean                  =  -2.5274807051134E-05
(PID.TID 0000.0001) %MON vort_a_sd                    =   7.3604336485989E-05
(PID.TID 0000.0001) %MON vort_p_mean                  =  -3.1845655363121E-05
(PID.TID 0000.0001) %MON vort_p_sd                    =   1.3162445067149E-04
(PID.TID 0000.0001) %MON surfExpan_theta_mean         =  -6.8197827976785E-07
(PID.TID 0000.0001) %MON surfExpan_salt_mean          =  -1.3729334747048E-07
(PID.TID 0000.0001) // =======================================================
(PID.TID 0000.0001) // End MONITOR dynamic field statistics
(PID.TID 0000.0001) // =======================================================
 EXTERNAL_FIELDS_LOAD,         8 : iP,iLd,i0,i1=   12    1   12    1 ; Wght=  0.2333333333  0.7666666667
 EXTERNAL_FIELDS_LOAD: (fu0,1),fu,fv= -4.5368E-02 -3.5633E-02 -3.7904E-02 -6.0288E-02
 EXTERNAL_FIELDS_LOAD: SST,SSS,Q,E-P=  5.3596E-01  3.4551E+01  2.6546E+02  1.1266E-05
DEBUG_STATS_RL:          Uvel (THERMODYNAMICS)  min= -8.76036940782850E-02
DEBUG_STATS_RL:          Uvel (THERMODYNAMICS)  max=  1.46453070839071E-01
DEBUG_STATS_RL:          Uvel (THERMODYNAMICS) mean=  3.56804205160266E-03
DEBUG_STATS_RL:          Uvel (THERMODYNAMICS) S.D.=  1.65916442962073E-02
DEBUG_STATS_RL:          Vvel (THERMODYNAMICS)  min= -1.14700711936963E-01
DEBUG_STATS_RL:          Vvel (THERMODYNAMICS)  max=  9.19830026296036E-02
DEBUG_STATS_RL:          Vvel (THERMODYNAMICS) mean= -2.07561120188693E-03
DEBUG_STATS_RL:          Vvel (THERMODYNAMICS) S.D.=  1.54750166401758E-02
DEBUG_STATS_RL:          Wvel (THERMODYNAMICS)  min= -1.92284546456263E-04
DEBUG_STATS_RL:          Wvel (THERMODYNAMICS)  max=  2.34409509929487E-04
DEBUG_STATS_RL:          Wvel (THERMODYNAMICS) mean= -6.61788948033779E-07
DEBUG_STATS_RL:          Wvel (THERMODYNAMICS) S.D.=  2.31404365689453E-05
DEBUG_STATS_RL:         Theta (THERMODYNAMICS)  min= -1.90564579373470E+00
DEBUG_STATS_RL:         Theta (THERMODYNAMICS)  max=  2.96697630673589E+01
DEBUG_STATS_RL:         Theta (THERMODYNAMICS) mean=  5.89965253037843E+00
DEBUG_STATS_RL:         Theta (THERMODYNAMICS) S.D.=  6.86356626292530E+00
DEBUG_STATS_RL:          Salt (THERMODYNAMICS)  min=  2.97491868345520E+01
DEBUG_STATS_RL:          Salt (THERMODYNAMICS)  max=  3.74346390793521E+01
DEBUG_STATS_RL:          Salt (THERMODYNAMICS) mean=  3.47209654029032E+01
DEBUG_STATS_RL:          Salt (THERMODYNAMICS) S.D.=  4.86775205470000E-01
DEBUG_STATS_RL:         GtNm1 (THERMODYNAMICS)  min= -3.72012227864963E-06
DEBUG_STATS_RL:         GtNm1 (THERMODYNAMICS)  max=  2.85326539674485E-06
DEBUG_STATS_RL:         GtNm1 (THERMODYNAMICS) mean=  2.40698775835052E-08
DEBUG_STATS_RL:         GtNm1 (THERMODYNAMICS) S.D.=  2.48641035402018E-07
DEBUG_STATS_RL:         GsNm1 (THERMODYNAMICS)  min= -4.15919686890810E-07
DEBUG_STATS_RL:         GsNm1 (THERMODYNAMICS)  max=  8.77365179701989E-07
DEBUG_STATS_RL:         GsNm1 (THERMODYNAMICS) mean=  3.39709781482970E-10
DEBUG_STATS_RL:         GsNm1 (THERMODYNAMICS) S.D.=  2.14781709872406E-08
DEBUG_STATS_RL:                EtaN (DYNAMICS)  min= -1.42636526384634E+00
DEBUG_STATS_RL:                EtaN (DYNAMICS)  max=  1.05605518058143E+00
DEBUG_STATS_RL:                EtaN (DYNAMICS) mean= -1.54294650919653E-01
DEBUG_STATS_RL:                EtaN (DYNAMICS) S.D.=  5.95971334446688E-01
DEBUG_STATS_RL:                Uvel (DYNAMICS)  min= -8.76036940782850E-02
DEBUG_STATS_RL:                Uvel (DYNAMICS)  max=  1.46453070839071E-01
DEBUG_STATS_RL:                Uvel (DYNAMICS) mean=  3.56804205160266E-03
DEBUG_STATS_RL:                Uvel (DYNAMICS) S.D.=  1.65916442962073E-02
DEBUG_STATS_RL:                Vvel (DYNAMICS)  min= -1.14700711936963E-01
DEBUG_STATS_RL:                Vvel (DYNAMICS)  max=  9.19830026296036E-02
DEBUG_STATS_RL:                Vvel (DYNAMICS) mean= -2.07561120188693E-03
DEBUG_STATS_RL:                Vvel (DYNAMICS) S.D.=  1.54750166401758E-02
DEBUG_STATS_RL:                Wvel (DYNAMICS)  min= -1.92284546456263E-04
DEBUG_STATS_RL:                Wvel (DYNAMICS)  max=  2.34409509929487E-04
DEBUG_STATS_RL:                Wvel (DYNAMICS) mean= -6.61788948033779E-07
DEBUG_STATS_RL:                Wvel (DYNAMICS) S.D.=  2.31404365689453E-05
DEBUG_STATS_RL:               Theta (DYNAMICS)  min= -1.90564579373470E+00
DEBUG_STATS_RL:               Theta (DYNAMICS)  max=  2.96697630673589E+01
DEBUG_STATS_RL:               Theta (DYNAMICS) mean=  5.89965253037843E+00
DEBUG_STATS_RL:               Theta (DYNAMICS) S.D.=  6.86356626292530E+00
DEBUG_STATS_RL:                Salt (DYNAMICS)  min=  2.97491868345520E+01
DEBUG_STATS_RL:                Salt (DYNAMICS)  max=  3.74346390793521E+01
DEBUG_STATS_RL:                Salt (DYNAMICS) mean=  3.47209654029032E+01
DEBUG_STATS_RL:                Salt (DYNAMICS) S.D.=  4.86775205470000E-01
DEBUG_STATS_RL:                  Gu (DYNAMICS)  min= -8.33289716193719E-02
DEBUG_STATS_RL:                  Gu (DYNAMICS)  max=  1.58439562162197E-01
DEBUG_STATS_RL:                  Gu (DYNAMICS) mean=  4.08375345323838E-03
DEBUG_STATS_RL:                  Gu (DYNAMICS) S.D.=  1.87376428691774E-02
DEBUG_STATS_RL:                  Gv (DYNAMICS)  min= -9.70296905216815E-02
DEBUG_STATS_RL:                  Gv (DYNAMICS)  max=  9.56232581868148E-02
DEBUG_STATS_RL:                  Gv (DYNAMICS) mean=  3.70150814799579E-05
DEBUG_STATS_RL:                  Gv (DYNAMICS) S.D.=  1.45240378999334E-02
DEBUG_STATS_RL:               GuNm1 (DYNAMICS)  min= -6.67587993278648E-06
DEBUG_STATS_RL:               GuNm1 (DYNAMICS)  max=  7.29245696462805E-06
DEBUG_STATS_RL:               GuNm1 (DYNAMICS) mean= -2.80831597120663E-08
DEBUG_STATS_RL:               GuNm1 (DYNAMICS) S.D.=  1.17689291965292E-06
DEBUG_STATS_RL:               GvNm1 (DYNAMICS)  min= -9.94107594901073E-06
DEBUG_STATS_RL:               GvNm1 (DYNAMICS)  max=  1.64038937415977E-05
DEBUG_STATS_RL:               GvNm1 (DYNAMICS) mean=  7.76102055652987E-07
DEBUG_STATS_RL:               GvNm1 (DYNAMICS) S.D.=  2.68312834060328E-06
DEBUG_STATS_RL:               GtNm1 (DYNAMICS)  min= -3.72012227864963E-06
DEBUG_STATS_RL:               GtNm1 (DYNAMICS)  max=  2.85326539674485E-06
DEBUG_STATS_RL:               GtNm1 (DYNAMICS) mean=  2.40698775835052E-08
DEBUG_STATS_RL:               GtNm1 (DYNAMICS) S.D.=  2.48641035402018E-07
DEBUG_STATS_RL:               GsNm1 (DYNAMICS)  min= -4.15919686890810E-07
DEBUG_STATS_RL:               GsNm1 (DYNAMICS)  max=  8.77365179701989E-07
DEBUG_STATS_RL:               GsNm1 (DYNAMICS) mean=  3.39709781482970E-10
DEBUG_STATS_RL:               GsNm1 (DYNAMICS) S.D.=  2.14781709872406E-08
DEBUG_STATS_RL:    cg2d_b (SOLVE_FOR_PRESSURE)  min= -1.79133018800571E+04
DEBUG_STATS_RL:    cg2d_b (SOLVE_FOR_PRESSURE)  max=  1.56100600474427E+04
DEBUG_STATS_RL:    cg2d_b (SOLVE_FOR_PRESSURE) mean=  5.87195746255214E-01
DEBUG_STATS_RL:    cg2d_b (SOLVE_FOR_PRESSURE) S.D.=  3.57600267786242E+03
 cg2d: Sum(rhs),rhsMax =   7.58854041361142E-02  1.17659362901719E+00
(PID.TID 0000.0001)  cg2d: iter=     1 ; resid.=  2.70947143287972E-01
(PID.TID 0000.0001)  cg2d: iter=     2 ; resid.=  2.99966391084596E-01
(PID.TID 0000.0001)  cg2d: iter=     3 ; resid.=  3.92890227013298E-01
(PID.TID 0000.0001)  cg2d: iter=     4 ; resid.=  2.99607891146226E-01
(PID.TID 0000.0001)  cg2d: iter=     5 ; resid.=  2.32510555391940E-01
(PID.TID 0000.0001)  cg2d: iter=     6 ; resid.=  2.00907379770328E-01
(PID.TID 0000.0001)  cg2d: iter=     7 ; resid.=  1.50257570150642E-01
(PID.TID 0000.0001)  cg2d: iter=     8 ; resid.=  1.10917517419957E-01
(PID.TID 0000.0001)  cg2d: iter=     9 ; resid.=  8.68885651341874E-02
(PID.TID 0000.0001)  cg2d: iter=    10 ; resid.=  7.60141278614763E-02
(PID.TID 0000.0001)  cg2d: iter=    11 ; resid.=  7.70181764015653E-02
(PID.TID 0000.0001)  cg2d: iter=    12 ; resid.=  6.67288180463486E-02
(PID.TID 0000.0001)  cg2d: iter=    13 ; resid.=  4.92669045058845E-02
(PID.TID 0000.0001)  cg2d: iter=    14 ; resid.=  4.21468221863354E-02
(PID.TID 0000.0001)  cg2d: iter=    15 ; resid.=  4.09189804442000E-02
(PID.TID 0000.0001)  cg2d: iter=    16 ; resid.=  3.70122767010026E-02
(PID.TID 0000.0001)  cg2d: iter=    17 ; resid.=  3.38324480524181E-02
(PID.TID 0000.0001)  cg2d: iter=    18 ; resid.=  2.78282674435314E-02
(PID.TID 0000.0001)  cg2d: iter=    19 ; resid.=  2.12677890518018E-02
(PID.TID 0000.0001)  cg2d: iter=    20 ; resid.=  1.63891449691122E-02
(PID.TID 0000.0001)  cg2d: iter=    21 ; resid.=  1.20270738762603E-02
(PID.TID 0000.0001)  cg2d: iter=    22 ; resid.=  1.05918373986152E-02
(PID.TID 0000.0001)  cg2d: iter=    23 ; resid.=  1.06515048071975E-02
(PID.TID 0000.0001)  cg2d: iter=    24 ; resid.=  9.32672291371342E-03
(PID.TID 0000.0001)  cg2d: iter=    25 ; resid.=  7.40804681864546E-03
(PID.TID 0000.0001)  cg2d: iter=    26 ; resid.=  5.66128536049865E-03
(PID.TID 0000.0001)  cg2d: iter=    27 ; resid.=  5.09531789106310E-03
(PID.TID 0000.0001)  cg2d: iter=    28 ; resid.=  4.60935953474810E-03
(PID.TID 0000.0001)  cg2d: iter=    29 ; resid.=  3.37339671784968E-03
(PID.TID 0000.0001)  cg2d: iter=    30 ; resid.=  2.26558480279871E-03
(PID.TID 0000.0001)  cg2d: iter=    31 ; resid.=  1.82035386254695E-03
(PID.TID 0000.0001)  cg2d: iter=    32 ; resid.=  1.45708116892782E-03
(PID.TID 0000.0001)  cg2d: iter=    33 ; resid.=  1.15785897264069E-03
(PID.TID 0000.0001)  cg2d: iter=    34 ; resid.=  9.28395655881082E-04
(PID.TID 0000.0001)  cg2d: iter=    35 ; resid.=  8.08567164200433E-04
(PID.TID 0000.0001)  cg2d: iter=    36 ; resid.=  7.87458121766929E-04
(PID.TID 0000.0001)  cg2d: iter=    37 ; resid.=  7.13475224134635E-04
(PID.TID 0000.0001)  cg2d: iter=    38 ; resid.=  6.20373061337946E-04
(PID.TID 0000.0001)  cg2d: iter=    39 ; resid.=  5.05729731370313E-04
(PID.TID 0000.0001)  cg2d: iter=    40 ; resid.=  4.33317022152910E-04
(PID.TID 0000.0001)  cg2d: iter=    41 ; resid.=  4.09777136596247E-04
(PID.TID 0000.0001)  cg2d: iter=    42 ; resid.=  3.83408395524380E-04
(PID.TID 0000.0001)  cg2d: iter=    43 ; resid.=  3.04761777111634E-04
(PID.TID 0000.0001)  cg2d: iter=    44 ; resid.=  2.03696094641116E-04
(PID.TID 0000.0001)  cg2d: iter=    45 ; resid.=  1.48798934734846E-04
(PID.TID 0000.0001)  cg2d: iter=    46 ; resid.=  1.26767297017423E-04
(PID.TID 0000.0001)  cg2d: iter=    47 ; resid.=  1.07428907368286E-04
(PID.TID 0000.0001)  cg2d: iter=    48 ; resid.=  8.64112657794713E-05
(PID.TID 0000.0001)  cg2d: iter=    49 ; resid.=  6.53341270652502E-05
(PID.TID 0000.0001)  cg2d: iter=    50 ; resid.=  4.96948628400163E-05
(PID.TID 0000.0001)  cg2d: iter=    51 ; resid.=  3.95851722074214E-05
(PID.TID 0000.0001)  cg2d: iter=    52 ; resid.=  3.08934576203878E-05
(PID.TID 0000.0001)  cg2d: iter=    53 ; resid.=  2.42387589748274E-05
(PID.TID 0000.0001)  cg2d: iter=    54 ; resid.=  1.83657814697836E-05
(PID.TID 0000.0001)  cg2d: iter=    55 ; resid.=  1.46011667003685E-05
(PID.TID 0000.0001)  cg2d: iter=    56 ; resid.=  1.30564682238283E-05
(PID.TID 0000.0001)  cg2d: iter=    57 ; resid.=  1.09943442719187E-05
(PID.TID 0000.0001)  cg2d: iter=    58 ; resid.=  8.26350496987087E-06
(PID.TID 0000.0001)  cg2d: iter=    59 ; resid.=  6.10673685303387E-06
(PID.TID 0000.0001)  cg2d: iter=    60 ; resid.=  5.14012158088731E-06
(PID.TID 0000.0001)  cg2d: iter=    61 ; resid.=  4.76893170342706E-06
(PID.TID 0000.0001)  cg2d: iter=    62 ; resid.=  4.33239252606627E-06
(PID.TID 0000.0001)  cg2d: iter=    63 ; resid.=  3.61941653166899E-06
(PID.TID 0000.0001)  cg2d: iter=    64 ; resid.=  3.18409029858373E-06
(PID.TID 0000.0001)  cg2d: iter=    65 ; resid.=  2.61360119716412E-06
(PID.TID 0000.0001)  cg2d: iter=    66 ; resid.=  1.81750319163662E-06
(PID.TID 0000.0001)  cg2d: iter=    67 ; resid.=  1.27466717462385E-06
(PID.TID 0000.0001)  cg2d: iter=    68 ; resid.=  1.03515290039795E-06
(PID.TID 0000.0001)  cg2d: iter=    69 ; resid.=  8.18449688512724E-07
(PID.TID 0000.0001)  cg2d: iter=    70 ; resid.=  6.45420442114907E-07
(PID.TID 0000.0001)  cg2d: iter=    71 ; resid.=  4.98485144190644E-07
(PID.TID 0000.0001)  cg2d: iter=    72 ; resid.=  3.71048628163557E-07
(PID.TID 0000.0001)  cg2d: iter=    73 ; resid.=  3.26449457874637E-07
(PID.TID 0000.0001)  cg2d: iter=    74 ; resid.=  3.22514132809335E-07
(PID.TID 0000.0001)  cg2d: iter=    75 ; resid.=  2.47633948738643E-07
(PID.TID 0000.0001)  cg2d: iter=    76 ; resid.=  1.85110195902610E-07
(PID.TID 0000.0001)  cg2d: iter=    77 ; resid.=  1.56971651467443E-07
(PID.TID 0000.0001)  cg2d: iter=    78 ; resid.=  1.40517363897574E-07
(PID.TID 0000.0001)  cg2d: iter=    79 ; resid.=  1.20902112617247E-07
(PID.TID 0000.0001)  cg2d: iter=    80 ; resid.=  9.86098080787799E-08
(PID.TID 0000.0001)  cg2d: iter=    81 ; resid.=  7.91068581311785E-08
(PID.TID 0000.0001)  cg2d: iter=    82 ; resid.=  6.79051667034474E-08
(PID.TID 0000.0001)  cg2d: iter=    83 ; resid.=  6.03408165644713E-08
(PID.TID 0000.0001)  cg2d: iter=    84 ; resid.=  5.17547484449942E-08
(PID.TID 0000.0001)  cg2d: iter=    85 ; resid.=  4.07785611862905E-08
(PID.TID 0000.0001)  cg2d: iter=    86 ; resid.=  3.10882269259967E-08
(PID.TID 0000.0001)  cg2d: iter=    87 ; resid.=  2.44330424443707E-08
(PID.TID 0000.0001)  cg2d: iter=    88 ; resid.=  2.03436654222879E-08
(PID.TID 0000.0001)  cg2d: iter=    89 ; resid.=  1.79319721673450E-08
(PID.TID 0000.0001)  cg2d: iter=    90 ; resid.=  1.35998115862371E-08
(PID.TID 0000.0001)  cg2d: iter=    91 ; resid.=  9.16443925221366E-09
(PID.TID 0000.0001)  cg2d: iter=    92 ; resid.=  6.53624913375246E-09
(PID.TID 0000.0001)  cg2d: iter=    93 ; resid.=  4.96827521293039E-09
(PID.TID 0000.0001)  cg2d: iter=    94 ; resid.=  3.64285020128489E-09
(PID.TID 0000.0001)  cg2d: iter=    95 ; resid.=  2.50905987708521E-09
(PID.TID 0000.0001)  cg2d: iter=    96 ; resid.=  1.82285031395209E-09
(PID.TID 0000.0001)  cg2d: iter=    97 ; resid.=  1.48238658848483E-09
(PID.TID 0000.0001)  cg2d: iter=    98 ; resid.=  1.24287977680766E-09
(PID.TID 0000.0001)  cg2d: iter=    99 ; resid.=  1.11457435966372E-09
(PID.TID 0000.0001)  cg2d: iter=   100 ; resid.=  8.72676610570751E-10
(PID.TID 0000.0001)  cg2d: iter=   101 ; resid.=  7.14820141609875E-10
(PID.TID 0000.0001)  cg2d: iter=   102 ; resid.=  5.96198254175988E-10
(PID.TID 0000.0001)  cg2d: iter=   103 ; resid.=  4.80983311950581E-10
(PID.TID 0000.0001)  cg2d: iter=   104 ; resid.=  3.89408276221336E-10
(PID.TID 0000.0001)  cg2d: iter=   105 ; resid.=  3.28749514027282E-10
(PID.TID 0000.0001)  cg2d: iter=   106 ; resid.=  2.59799916308099E-10
(PID.TID 0000.0001)  cg2d: iter=   107 ; resid.=  2.02631258393839E-10
(PID.TID 0000.0001)  cg2d: iter=   108 ; resid.=  1.65749107958422E-10
(PID.TID 0000.0001)  cg2d: iter=   109 ; resid.=  1.42854070634190E-10
(PID.TID 0000.0001)  cg2d: iter=   110 ; resid.=  1.17962708481225E-10
(PID.TID 0000.0001)  cg2d: iter=   111 ; resid.=  8.87975464852374E-11
(PID.TID 0000.0001)  cg2d: iter=   112 ; resid.=  6.65675720683579E-11
(PID.TID 0000.0001)  cg2d: iter=   113 ; resid.=  5.62337597021890E-11
(PID.TID 0000.0001)  cg2d: iter=   114 ; resid.=  4.92503496954364E-11
(PID.TID 0000.0001)  cg2d: iter=   115 ; resid.=  3.71756398079393E-11
(PID.TID 0000.0001)  cg2d: iter=   116 ; resid.=  2.79449957275711E-11
(PID.TID 0000.0001)  cg2d: iter=   117 ; resid.=  2.08714825294428E-11
(PID.TID 0000.0001)  cg2d: iter=   118 ; resid.=  1.55788542449905E-11
(PID.TID 0000.0001)  cg2d: iter=   119 ; resid.=  1.20643137566316E-11
(PID.TID 0000.0001)  cg2d: iter=   120 ; resid.=  9.93318705451457E-12
(PID.TID 0000.0001)  cg2d: iter=   121 ; resid.=  8.18527453683246E-12
(PID.TID 0000.0001)  cg2d: iter=   122 ; resid.=  6.29233602823070E-12
(PID.TID 0000.0001)  cg2d: iter=   123 ; resid.=  4.67803376558153E-12
(PID.TID 0000.0001)  cg2d: iter=   124 ; resid.=  3.14854923638781E-12
(PID.TID 0000.0001)  cg2d: iter=   125 ; resid.=  2.29304522467588E-12
(PID.TID 0000.0001)  cg2d: iter=   126 ; resid.=  1.71046324307189E-12
(PID.TID 0000.0001)  cg2d: iter=   127 ; resid.=  1.25618685552257E-12
(PID.TID 0000.0001)  cg2d: iter=   128 ; resid.=  9.92153962472406E-13
(PID.TID 0000.0001)  cg2d: iter=   129 ; resid.=  8.11133258130498E-13
(PID.TID 0000.0001)  cg2d: iter=   130 ; resid.=  6.92900432019929E-13
(PID.TID 0000.0001)  cg2d: iter=   131 ; resid.=  5.22022708062797E-13
(PID.TID 0000.0001)  cg2d: iter=   132 ; resid.=  3.92219947049199E-13
(PID.TID 0000.0001)  cg2d: iter=   133 ; resid.=  3.07926509474318E-13
(PID.TID 0000.0001)  cg2d: iter=   134 ; resid.=  2.35468214314008E-13
(PID.TID 0000.0001)  cg2d: iter=   135 ; resid.=  1.74238985533430E-13
(PID.TID 0000.0001)  cg2d: iter=   136 ; resid.=  1.22887461194540E-13
(PID.TID 0000.0001)  cg2d: iter=   137 ; resid.=  8.40003122168461E-14
DEBUG_STATS_RL:    cg2d_x (SOLVE_FOR_PRESSURE)  min= -1.37208275970537E+01
DEBUG_STATS_RL:    cg2d_x (SOLVE_FOR_PRESSURE)  max=  9.56140887498588E+00
DEBUG_STATS_RL:    cg2d_x (SOLVE_FOR_PRESSURE) mean= -1.50268497919637E+00
DEBUG_STATS_RL:    cg2d_x (SOLVE_FOR_PRESSURE) S.D.=  5.80133639827079E+00
(PID.TID 0000.0001)      cg2d_init_res =   9.67422993798417E-01
(PID.TID 0000.0001)      cg2d_iters(min,last) =      -1     137
(PID.TID 0000.0001)      cg2d_last_res =   8.40003122168461E-14
(PID.TID 0000.0001) // =======================================================
(PID.TID 0000.0001) // Begin MONITOR dynamic field statistics
(PID.TID 0000.0001) // =======================================================
(PID.TID 0000.0001) %MON time_tsnumber                =                     9
(PID.TID 0000.0001) %MON time_secondsf                =   7.7760000000000E+05
(PID.TID 0000.0001) %MON dynstat_eta_max              =   9.7465941641039E-01
(PID.TID 0000.0001) %MON dynstat_eta_min              =  -1.3986572474061E+00
(PID.TID 0000.0001) %MON dynstat_eta_mean             =  -6.1266595134823E-04
(PID.TID 0000.0001) %MON dynstat_eta_sd               =   5.2093604316941E-01
(PID.TID 0000.0001) %MON dynstat_eta_del2             =   1.8989142802963E-03
(PID.TID 0000.0001) %MON dynstat_uvel_max             =   1.6070546505444E-01
(PID.TID 0000.0001) %MON dynstat_uvel_min             =  -8.8160909715103E-02
(PID.TID 0000.0001) %MON dynstat_uvel_mean            =   1.4944523764104E-04
(PID.TID 0000.0001) %MON dynstat_uvel_sd              =   1.1086738357995E-02
(PID.TID 0000.0001) %MON dynstat_uvel_del2            =   8.3717734606539E-05
(PID.TID 0000.0001) %MON dynstat_vvel_max             =   9.4683015783764E-02
(PID.TID 0000.0001) %MON dynstat_vvel_min             =  -1.1715877284029E-01
(PID.TID 0000.0001) %MON dynstat_vvel_mean            =  -3.0931831720569E-04
(PID.TID 0000.0001) %MON dynstat_vvel_sd              =   1.0373265690368E-02
(PID.TID 0000.0001) %MON dynstat_vvel_del2            =   1.0579172446914E-04
(PID.TID 0000.0001) %MON dynstat_wvel_max             =   2.2948274873313E-04
(PID.TID 0000.0001) %MON dynstat_wvel_min             =  -1.9651210515610E-04
(PID.TID 0000.0001) %MON dynstat_wvel_mean            =  -2.4649307532279E-22
(PID.TID 0000.0001) %MON dynstat_wvel_sd              =   2.4052377291365E-05
(PID.TID 0000.0001) %MON dynstat_wvel_del2            =   2.8697711678550E-07
(PID.TID 0000.0001) %MON dynstat_theta_max            =   2.9669763067359E+01
(PID.TID 0000.0001) %MON dynstat_theta_min            =  -1.9056457937347E+00
(PID.TID 0000.0001) %MON dynstat_theta_mean           =   3.6191921718227E+00
(PID.TID 0000.0001) %MON dynstat_theta_sd             =   4.4142594950895E+00
(PID.TID 0000.0001) %MON dynstat_theta_del2           =   5.1051329783348E-03
(PID.TID 0000.0001) %MON dynstat_salt_max             =   3.7434639079352E+01
(PID.TID 0000.0001) %MON dynstat_salt_min             =   2.9749186834552E+01
(PID.TID 0000.0001) %MON dynstat_salt_mean            =   3.4717964148856E+01
(PID.TID 0000.0001) %MON dynstat_salt_sd              =   2.9612978870721E-01
(PID.TID 0000.0001) %MON dynstat_salt_del2            =   1.0069113695269E-03
(PID.TID 0000.0001) %MON dynstat_sst_max              =   2.9669763067359E+01
(PID.TID 0000.0001) %MON dynstat_sst_min              =  -1.9056457937347E+00
(PID.TID 0000.0001) %MON dynstat_sst_mean             =   1.8568056506546E+01
(PID.TID 0000.0001) %MON dynstat_sst_sd               =   9.0943523276544E+00
(PID.TID 0000.0001) %MON dynstat_sst_del2             =   2.5600019980200E-02
(PID.TID 0000.0001) %MON dynstat_sss_max              =   3.7434639079352E+01
(PID.TID 0000.0001) %MON dynstat_sss_min              =   2.9749186834552E+01
(PID.TID 0000.0001) %MON dynstat_sss_mean             =   3.4853485018368E+01
(PID.TID 0000.0001) %MON dynstat_sss_sd               =   9.6693113840859E-01
(PID.TID 0000.0001) %MON dynstat_sss_del2             =   7.9415165569823E-03
(PID.TID 0000.0001) %MON forcing_qnet_max             =   4.3427630615234E+02
(PID.TID 0000.0001) %MON forcing_qnet_min             =  -1.8328968454997E+02
(PID.TID 0000.0001) %MON forcing_qnet_mean            =  -1.6600109691805E+01
(PID.TID 0000.0001) %MON forcing_qnet_sd              =   1.1119125063866E+02
(PID.TID 0000.0001) %MON forcing_qnet_del2            =   1.0040237369794E+00
(PID.TID 0000.0001) %MON forcing_qsw_max              =   0.0000000000000E+00
(PID.TID 0000.0001) %MON forcing_qsw_min              =   0.0000000000000E+00
(PID.TID 0000.0001) %MON forcing_qsw_mean             =   0.0000000000000E+00
(PID.TID 0000.0001) %MON forcing_qsw_sd               =   0.0000000000000E+00
(PID.TID 0000.0001) %MON forcing_qsw_del2             =   0.0000000000000E+00
(PID.TID 0000.0001) %MON forcing_empmr_max            =   8.1890940369552E-05
(PID.TID 0000.0001) %MON forcing_empmr_min            =  -7.2715819499081E-05
(PID.TID 0000.0001) %MON forcing_empmr_mean           =   8.5454875789209E-07
(PID.TID 0000.0001) %MON forcing_empmr_sd             =   2.8214283860046E-05
(PID.TID 0000.0001) %MON forcing_empmr_del2           =   3.6290034923196E-07
(PID.TID 0000.0001) %MON forcing_fu_max               =   2.6993649601936E-01
(PID.TID 0000.0001) %MON forcing_fu_min               =  -1.6518663018942E-01
(PID.TID 0000.0001) %MON forcing_fu_mean              =   1.6055584899826E-02
(PID.TID 0000.0001) %MON forcing_fu_sd                =   9.0336157001452E-02
(PID.TID 0000.0001) %MON forcing_fu_del2              =   6.7811877937571E-04
(PID.TID 0000.0001) %MON forcing_fv_max               =   2.1996198445559E-01
(PID.TID 0000.0001) %MON forcing_fv_min               =  -1.8222950249910E-01
(PID.TID 0000.0001) %MON forcing_fv_mean              =  -5.7752354275307E-03
(PID.TID 0000.0001) %MON forcing_fv_sd                =   4.6406538642117E-02
(PID.TID 0000.0001) %MON forcing_fv_del2              =   4.6058148956476E-04
(PID.TID 0000.0001) %MON trAdv_CFL_u_max              =   4.4562908852630E-02
(PID.TID 0000.0001) %MON trAdv_CFL_v_max              =   2.1575054230163E-02
(PID.TID 0000.0001) %MON trAdv_CFL_w_max              =   7.2125685570461E-02
(PID.TID 0000.0001) %MON advcfl_uvel_max              =   4.7880637177526E-02
(PID.TID 0000.0001) %MON advcfl_vvel_max              =   2.2762070562057E-02
(PID.TID 0000.0001) %MON advcfl_wvel_max              =   7.9729812697318E-02
(PID.TID 0000.0001) %MON advcfl_W_hf_max              =   9.0220577525913E-02
(PID.TID 0000.0001) %MON pe_b_mean                    =   3.4725668483066E-04
(PID.TID 0000.0001) %MON ke_max                       =   1.3120795320212E-02
(PID.TID 0000.0001) %MON ke_mean                      =   1.0420403458476E-04
(PID.TID 0000.0001) %MON ke_vol                       =   1.3226782436723E+18
(PID.TID 0000.0001) %MON vort_r_min                   =  -3.3599018997531E-07
(PID.TID 0000.0001) %MON vort_r_max                   =   2.6554170702008E-07
(PID.TID 0000.0001) %MON vort_a_mean                  =  -2.5274807120229E-05
(PID.TID 0000.0001) %MON vort_a_sd                    =   7.3604366960197E-05
(PID.TID 0000.0001) %MON vort_p_mean                  =  -3.1845655450179E-05
(PID.TID 0000.0001) %MON vort_p_sd                    =   1.3162429496112E-04
(PID.TID 0000.0001) %MON surfExpan_theta_mean         =  -2.1288119592280E-08
(PID.TID 0000.0001) %MON surfExpan_salt_mean          =  -9.2708395528735E-08
(PID.TID 0000.0001) // =======================================================
(PID.TID 0000.0001) // End MONITOR dynamic field statistics
(PID.TID 0000.0001) // =======================================================
 EXTERNAL_FIELDS_LOAD,         9 : iP,iLd,i0,i1=   12    1   12    1 ; Wght=  0.2000000000  0.8000000000
 EXTERNAL_FIELDS_LOAD: (fu0,1),fu,fv= -4.5368E-02 -3.5633E-02 -3.7580E-02 -5.9855E-02
 EXTERNAL_FIELDS_LOAD: SST,SSS,Q,E-P=  5.9632E-01  3.4574E+01  2.6550E+02  1.1319E-05
DEBUG_STATS_RL:          Uvel (THERMODYNAMICS)  min= -8.81609097151033E-02
DEBUG_STATS_RL:          Uvel (THERMODYNAMICS)  max=  1.60705465054440E-01
DEBUG_STATS_RL:          Uvel (THERMODYNAMICS) mean=  4.34244707315280E-03
DEBUG_STATS_RL:          Uvel (THERMODYNAMICS) S.D.=  1.86989246769773E-02
DEBUG_STATS_RL:          Vvel (THERMODYNAMICS)  min= -1.17158772840295E-01
DEBUG_STATS_RL:          Vvel (THERMODYNAMICS)  max=  9.46830157837643E-02
DEBUG_STATS_RL:          Vvel (THERMODYNAMICS) mean= -1.93441546945020E-03
DEBUG_STATS_RL:          Vvel (THERMODYNAMICS) S.D.=  1.55380027498003E-02
DEBUG_STATS_RL:          Wvel (THERMODYNAMICS)  min= -1.96512105156096E-04
DEBUG_STATS_RL:          Wvel (THERMODYNAMICS)  max=  2.29482748733133E-04
DEBUG_STATS_RL:          Wvel (THERMODYNAMICS) mean= -6.37474185374854E-07
DEBUG_STATS_RL:          Wvel (THERMODYNAMICS) S.D.=  2.21877971397485E-05
DEBUG_STATS_RL:         Theta (THERMODYNAMICS)  min= -1.91097927367746E+00
DEBUG_STATS_RL:         Theta (THERMODYNAMICS)  max=  2.96688187716021E+01
DEBUG_STATS_RL:         Theta (THERMODYNAMICS) mean=  5.90140742391337E+00
DEBUG_STATS_RL:         Theta (THERMODYNAMICS) S.D.=  6.86397007135546E+00
DEBUG_STATS_RL:          Salt (THERMODYNAMICS)  min=  2.97488284494004E+01
DEBUG_STATS_RL:          Salt (THERMODYNAMICS)  max=  3.74345457955374E+01
DEBUG_STATS_RL:          Salt (THERMODYNAMICS) mean=  3.47209924884018E+01
DEBUG_STATS_RL:          Salt (THERMODYNAMICS) S.D.=  4.86867005134193E-01
DEBUG_STATS_RL:         GtNm1 (THERMODYNAMICS)  min= -3.53435744156580E-06
DEBUG_STATS_RL:         GtNm1 (THERMODYNAMICS)  max=  2.95387125668644E-06
DEBUG_STATS_RL:         GtNm1 (THERMODYNAMICS) mean=  2.26698848246353E-08
DEBUG_STATS_RL:         GtNm1 (THERMODYNAMICS) S.D.=  2.50271895354582E-07
DEBUG_STATS_RL:         GsNm1 (THERMODYNAMICS)  min= -4.26985897477497E-07
DEBUG_STATS_RL:         GsNm1 (THERMODYNAMICS)  max=  9.67844732423151E-07
DEBUG_STATS_RL:         GsNm1 (THERMODYNAMICS) mean=  3.17242657890088E-10
DEBUG_STATS_RL:         GsNm1 (THERMODYNAMICS) S.D.=  2.18359998783713E-08
DEBUG_STATS_RL:                EtaN (DYNAMICS)  min= -1.39865724740615E+00
DEBUG_STATS_RL:                EtaN (DYNAMICS)  max=  9.74659416410388E-01
DEBUG_STATS_RL:                EtaN (DYNAMICS) mean= -1.53178896961913E-01
DEBUG_STATS_RL:                EtaN (DYNAMICS) S.D.=  5.91369663432292E-01
DEBUG_STATS_RL:                Uvel (DYNAMICS)  min= -8.81609097151033E-02
DEBUG_STATS_RL:                Uvel (DYNAMICS)  max=  1.60705465054440E-01
DEBUG_STATS_RL:                Uvel (DYNAMICS) mean=  4.34244707315280E-03
DEBUG_STATS_RL:                Uvel (DYNAMICS) S.D.=  1.86989246769773E-02
DEBUG_STATS_RL:                Vvel (DYNAMICS)  min= -1.17158772840295E-01
DEBUG_STATS_RL:                Vvel (DYNAMICS)  max=  9.46830157837643E-02
DEBUG_STATS_RL:                Vvel (DYNAMICS) mean= -1.93441546945020E-03
DEBUG_STATS_RL:                Vvel (DYNAMICS) S.D.=  1.55380027498003E-02
DEBUG_STATS_RL:                Wvel (DYNAMICS)  min= -1.96512105156096E-04
DEBUG_STATS_RL:                Wvel (DYNAMICS)  max=  2.29482748733133E-04
DEBUG_STATS_RL:                Wvel (DYNAMICS) mean= -6.37474185374854E-07
DEBUG_STATS_RL:                Wvel (DYNAMICS) S.D.=  2.21877971397485E-05
DEBUG_STATS_RL:               Theta (DYNAMICS)  min= -1.91097927367746E+00
DEBUG_STATS_RL:               Theta (DYNAMICS)  max=  2.96688187716021E+01
DEBUG_STATS_RL:               Theta (DYNAMICS) mean=  5.90140742391337E+00
DEBUG_STATS_RL:               Theta (DYNAMICS) S.D.=  6.86397007135546E+00
DEBUG_STATS_RL:                Salt (DYNAMICS)  min=  2.97488284494004E+01
DEBUG_STATS_RL:                Salt (DYNAMICS)  max=  3.74345457955374E+01
DEBUG_STATS_RL:                Salt (DYNAMICS) mean=  3.47209924884018E+01
DEBUG_STATS_RL:                Salt (DYNAMICS) S.D.=  4.86867005134193E-01
DEBUG_STATS_RL:                  Gu (DYNAMICS)  min= -8.29902299450359E-02
DEBUG_STATS_RL:                  Gu (DYNAMICS)  max=  1.70074766127500E-01
DEBUG_STATS_RL:                  Gu (DYNAMICS) mean=  4.82015933689395E-03
DEBUG_STATS_RL:                  Gu (DYNAMICS) S.D.=  2.06941615828089E-02
DEBUG_STATS_RL:                  Gv (DYNAMICS)  min= -9.62070882460918E-02
DEBUG_STATS_RL:                  Gv (DYNAMICS)  max=  1.00175911384658E-01
DEBUG_STATS_RL:                  Gv (DYNAMICS) mean=  2.71753511140371E-04
DEBUG_STATS_RL:                  Gv (DYNAMICS) S.D.=  1.44794422930270E-02
DEBUG_STATS_RL:               GuNm1 (DYNAMICS)  min= -6.57395122804763E-06
DEBUG_STATS_RL:               GuNm1 (DYNAMICS)  max=  7.10974002669912E-06
DEBUG_STATS_RL:               GuNm1 (DYNAMICS) mean= -2.69135640369186E-08
DEBUG_STATS_RL:               GuNm1 (DYNAMICS) S.D.=  1.15026794580067E-06
DEBUG_STATS_RL:               GvNm1 (DYNAMICS)  min= -9.59691246460046E-06
DEBUG_STATS_RL:               GvNm1 (DYNAMICS)  max=  1.64679907431854E-05
DEBUG_STATS_RL:               GvNm1 (DYNAMICS) mean=  7.75706698170641E-07
DEBUG_STATS_RL:               GvNm1 (DYNAMICS) S.D.=  2.65446314749341E-06
DEBUG_STATS_RL:               GtNm1 (DYNAMICS)  min= -3.53435744156580E-06
DEBUG_STATS_RL:               GtNm1 (DYNAMICS)  max=  2.95387125668644E-06
DEBUG_STATS_RL:               GtNm1 (DYNAMICS) mean=  2.26698848246353E-08
DEBUG_STATS_RL:               GtNm1 (DYNAMICS) S.D.=  2.50271895354582E-07
DEBUG_STATS_RL:               GsNm1 (DYNAMICS)  min= -4.26985897477497E-07
DEBUG_STATS_RL:               GsNm1 (DYNAMICS)  max=  9.67844732423151E-07
DEBUG_STATS_RL:               GsNm1 (DYNAMICS) mean=  3.17242657890088E-10
DEBUG_STATS_RL:               GsNm1 (DYNAMICS) S.D.=  2.18359998783713E-08
DEBUG_STATS_RL:    cg2d_b (SOLVE_FOR_PRESSURE)  min= -1.69100913018015E+04
DEBUG_STATS_RL:    cg2d_b (SOLVE_FOR_PRESSURE)  max=  1.48644821495672E+04
DEBUG_STATS_RL:    cg2d_b (SOLVE_FOR_PRESSURE) mean=  6.56348004155806E-01
DEBUG_STATS_RL:    cg2d_b (SOLVE_FOR_PRESSURE) S.D.=  3.41680706127701E+03
 cg2d: Sum(rhs),rhsMax =   8.98543717181999E-02  1.11070007221556E+00
(PID.TID 0000.0001)  cg2d: iter=     1 ; resid.=  2.67670255363287E-01
(PID.TID 0000.0001)  cg2d: iter=     2 ; resid.=  2.72636112783716E-01
(PID.TID 0000.0001)  cg2d: iter=     3 ; resid.=  3.50726233313571E-01
(PID.TID 0000.0001)  cg2d: iter=     4 ; resid.=  2.64068461583083E-01
(PID.TID 0000.0001)  cg2d: iter=     5 ; resid.=  2.29473509926120E-01
(PID.TID 0000.0001)  cg2d: iter=     6 ; resid.=  2.00389256174258E-01
(PID.TID 0000.0001)  cg2d: iter=     7 ; resid.=  1.46260758901371E-01
(PID.TID 0000.0001)  cg2d: iter=     8 ; resid.=  1.01109405793497E-01
(PID.TID 0000.0001)  cg2d: iter=     9 ; resid.=  7.88194979681483E-02
(PID.TID 0000.0001)  cg2d: iter=    10 ; resid.=  6.69290685673850E-02
(PID.TID 0000.0001)  cg2d: iter=    11 ; resid.=  6.63875980136570E-02
(PID.TID 0000.0001)  cg2d: iter=    12 ; resid.=  5.73952553498127E-02
(PID.TID 0000.0001)  cg2d: iter=    13 ; resid.=  4.84925830977294E-02
(PID.TID 0000.0001)  cg2d: iter=    14 ; resid.=  4.24214323569625E-02
(PID.TID 0000.0001)  cg2d: iter=    15 ; resid.=  3.70338115275447E-02
(PID.TID 0000.0001)  cg2d: iter=    16 ; resid.=  3.24314797538617E-02
(PID.TID 0000.0001)  cg2d: iter=    17 ; resid.=  3.03334168809647E-02
(PID.TID 0000.0001)  cg2d: iter=    18 ; resid.=  2.48504071027691E-02
(PID.TID 0000.0001)  cg2d: iter=    19 ; resid.=  1.88618492564297E-02
(PID.TID 0000.0001)  cg2d: iter=    20 ; resid.=  1.43195331061222E-02
(PID.TID 0000.0001)  cg2d: iter=    21 ; resid.=  1.05869017167415E-02
(PID.TID 0000.0001)  cg2d: iter=    22 ; resid.=  9.67360951258639E-03
(PID.TID 0000.0001)  cg2d: iter=    23 ; resid.=  9.19770690051766E-03
(PID.TID 0000.0001)  cg2d: iter=    24 ; resid.=  7.88817343554101E-03
(PID.TID 0000.0001)  cg2d: iter=    25 ; resid.=  6.80606866334545E-03
(PID.TID 0000.0001)  cg2d: iter=    26 ; resid.=  5.45196921274625E-03
(PID.TID 0000.0001)  cg2d: iter=    27 ; resid.=  4.69425126394822E-03
(PID.TID 0000.0001)  cg2d: iter=    28 ; resid.=  4.15469886470739E-03
(PID.TID 0000.0001)  cg2d: iter=    29 ; resid.=  3.04645058510887E-03
(PID.TID 0000.0001)  cg2d: iter=    30 ; resid.=  2.19888463512412E-03
(PID.TID 0000.0001)  cg2d: iter=    31 ; resid.=  1.72688315139904E-03
(PID.TID 0000.0001)  cg2d: iter=    32 ; resid.=  1.26083017313704E-03
(PID.TID 0000.0001)  cg2d: iter=    33 ; resid.=  9.95272614518468E-04
(PID.TID 0000.0001)  cg2d: iter=    34 ; resid.=  8.74870212692148E-04
(PID.TID 0000.0001)  cg2d: iter=    35 ; resid.=  7.85242949281209E-04
(PID.TID 0000.0001)  cg2d: iter=    36 ; resid.=  7.37551609325513E-04
(PID.TID 0000.0001)  cg2d: iter=    37 ; resid.=  6.76651137245179E-04
(PID.TID 0000.0001)  cg2d: iter=    38 ; resid.=  6.32663223478733E-04
(PID.TID 0000.0001)  cg2d: iter=    39 ; resid.=  5.21722036407183E-04
(PID.TID 0000.0001)  cg2d: iter=    40 ; resid.=  4.12997093666722E-04
(PID.TID 0000.0001)  cg2d: iter=    41 ; resid.=  3.51722021385119E-04
(PID.TID 0000.0001)  cg2d: iter=    42 ; resid.=  3.24209151366142E-04
(PID.TID 0000.0001)  cg2d: iter=    43 ; resid.=  2.63464768856435E-04
(PID.TID 0000.0001)  cg2d: iter=    44 ; resid.=  1.78969705106528E-04
(PID.TID 0000.0001)  cg2d: iter=    45 ; resid.=  1.31556029996167E-04
(PID.TID 0000.0001)  cg2d: iter=    46 ; resid.=  1.16276791103391E-04
(PID.TID 0000.0001)  cg2d: iter=    47 ; resid.=  1.01347921563650E-04
(PID.TID 0000.0001)  cg2d: iter=    48 ; resid.=  8.25798439402041E-05
(PID.TID 0000.0001)  cg2d: iter=    49 ; resid.=  6.05917090997131E-05
(PID.TID 0000.0001)  cg2d: iter=    50 ; resid.=  4.58133534133846E-05
(PID.TID 0000.0001)  cg2d: iter=    51 ; resid.=  3.78773218851487E-05
(PID.TID 0000.0001)  cg2d: iter=    52 ; resid.=  3.19086069879690E-05
(PID.TID 0000.0001)  cg2d: iter=    53 ; resid.=  2.69458664042095E-05
(PID.TID 0000.0001)  cg2d: iter=    54 ; resid.=  2.20672567614096E-05
(PID.TID 0000.0001)  cg2d: iter=    55 ; resid.=  1.89284947907775E-05
(PID.TID 0000.0001)  cg2d: iter=    56 ; resid.=  1.76308338635105E-05
(PID.TID 0000.0001)  cg2d: iter=    57 ; resid.=  1.43733853336301E-05
(PID.TID 0000.0001)  cg2d: iter=    58 ; resid.=  1.10471059191919E-05
(PID.TID 0000.0001)  cg2d: iter=    59 ; resid.=  8.59409121609142E-06
(PID.TID 0000.0001)  cg2d: iter=    60 ; resid.=  6.91039633440194E-06
(PID.TID 0000.0001)  cg2d: iter=    61 ; resid.=  5.65524388725121E-06
(PID.TID 0000.0001)  cg2d: iter=    62 ; resid.=  4.55795572060283E-06
(PID.TID 0000.0001)  cg2d: iter=    63 ; resid.=  3.71482865371000E-06
(PID.TID 0000.0001)  cg2d: iter=    64 ; resid.=  3.38184023986621E-06
(PID.TID 0000.0001)  cg2d: iter=    65 ; resid.=  2.81968230947635E-06
(PID.TID 0000.0001)  cg2d: iter=    66 ; resid.=  2.01308589254580E-06
(PID.TID 0000.0001)  cg2d: iter=    67 ; resid.=  1.52263053346182E-06
(PID.TID 0000.0001)  cg2d: iter=    68 ; resid.=  1.30886007354220E-06
(PID.TID 0000.0001)  cg2d: iter=    69 ; resid.=  9.53773841942563E-07
(PID.TID 0000.0001)  cg2d: iter=    70 ; resid.=  7.23570549679115E-07
(PID.TID 0000.0001)  cg2d: iter=    71 ; resid.=  5.69699187937284E-07
(PID.TID 0000.0001)  cg2d: iter=    72 ; resid.=  4.50922505946931E-07
(PID.TID 0000.0001)  cg2d: iter=    73 ; resid.=  3.96653781473642E-07
(PID.TID 0000.0001)  cg2d: iter=    74 ; resid.=  3.72268694466122E-07
(PID.TID 0000.0001)  cg2d: iter=    75 ; resid.=  2.92310221799723E-07
(PID.TID 0000.0001)  cg2d: iter=    76 ; resid.=  2.50190607252881E-07
(PID.TID 0000.0001)  cg2d: iter=    77 ; resid.=  2.14066777405823E-07
(PID.TID 0000.0001)  cg2d: iter=    78 ; resid.=  1.78634276376924E-07
(PID.TID 0000.0001)  cg2d: iter=    79 ; resid.=  1.54869078950999E-07
(PID.TID 0000.0001)  cg2d: iter=    80 ; resid.=  1.30855862995634E-07
(PID.TID 0000.0001)  cg2d: iter=    81 ; resid.=  1.08496138700336E-07
(PID.TID 0000.0001)  cg2d: iter=    82 ; resid.=  8.77405210441370E-08
(PID.TID 0000.0001)  cg2d: iter=    83 ; resid.=  7.11868457631996E-08
(PID.TID 0000.0001)  cg2d: iter=    84 ; resid.=  5.87150307867652E-08
(PID.TID 0000.0001)  cg2d: iter=    85 ; resid.=  4.53415830141711E-08
(PID.TID 0000.0001)  cg2d: iter=    86 ; resid.=  3.36295789979500E-08
(PID.TID 0000.0001)  cg2d: iter=    87 ; resid.=  2.61678596293254E-08
(PID.TID 0000.0001)  cg2d: iter=    88 ; resid.=  1.97549876984987E-08
(PID.TID 0000.0001)  cg2d: iter=    89 ; resid.=  1.63203129878922E-08
(PID.TID 0000.0001)  cg2d: iter=    90 ; resid.=  1.32074448094040E-08
(PID.TID 0000.0001)  cg2d: iter=    91 ; resid.=  1.00711756935264E-08
(PID.TID 0000.0001)  cg2d: iter=    92 ; resid.=  8.01799628557470E-09
(PID.TID 0000.0001)  cg2d: iter=    93 ; resid.=  6.24220966317349E-09
(PID.TID 0000.0001)  cg2d: iter=    94 ; resid.=  4.44774116963455E-09
(PID.TID 0000.0001)  cg2d: iter=    95 ; resid.=  3.22797948987910E-09
(PID.TID 0000.0001)  cg2d: iter=    96 ; resid.=  2.41776906367228E-09
(PID.TID 0000.0001)  cg2d: iter=    97 ; resid.=  1.70632624344220E-09
(PID.TID 0000.0001)  cg2d: iter=    98 ; resid.=  1.22260032448659E-09
(PID.TID 0000.0001)  cg2d: iter=    99 ; resid.=  1.00770086868370E-09
(PID.TID 0000.0001)  cg2d: iter=   100 ; resid.=  7.95535018079754E-10
(PID.TID 0000.0001)  cg2d: iter=   101 ; resid.=  6.52208861343780E-10
(PID.TID 0000.0001)  cg2d: iter=   102 ; resid.=  5.29913629525317E-10
(PID.TID 0000.0001)  cg2d: iter=   103 ; resid.=  4.17744291110023E-10
(PID.TID 0000.0001)  cg2d: iter=   104 ; resid.=  3.25817459350274E-10
(PID.TID 0000.0001)  cg2d: iter=   105 ; resid.=  2.59682624580992E-10
(PID.TID 0000.0001)  cg2d: iter=   106 ; resid.=  1.88318894091333E-10
(PID.TID 0000.0001)  cg2d: iter=   107 ; resid.=  1.36822412343987E-10
(PID.TID 0000.0001)  cg2d: iter=   108 ; resid.=  1.02251471792290E-10
(PID.TID 0000.0001)  cg2d: iter=   109 ; resid.=  8.06156899252174E-11
(PID.TID 0000.0001)  cg2d: iter=   110 ; resid.=  6.57676799975696E-11
(PID.TID 0000.0001)  cg2d: iter=   111 ; resid.=  5.25953576160647E-11
(PID.TID 0000.0001)  cg2d: iter=   112 ; resid.=  4.15632295949515E-11
(PID.TID 0000.0001)  cg2d: iter=   113 ; resid.=  3.27697652782459E-11
(PID.TID 0000.0001)  cg2d: iter=   114 ; resid.=  2.98080795470869E-11
(PID.TID 0000.0001)  cg2d: iter=   115 ; resid.=  2.67554898134560E-11
(PID.TID 0000.0001)  cg2d: iter=   116 ; resid.=  2.38916208838041E-11
(PID.TID 0000.0001)  cg2d: iter=   117 ; resid.=  1.86583212494485E-11
(PID.TID 0000.0001)  cg2d: iter=   118 ; resid.=  1.36530920914050E-11
(PID.TID 0000.0001)  cg2d: iter=   119 ; resid.=  1.07279692385669E-11
(PID.TID 0000.0001)  cg2d: iter=   120 ; resid.=  8.86680350849134E-12
(PID.TID 0000.0001)  cg2d: iter=   121 ; resid.=  7.23997382270716E-12
(PID.TID 0000.0001)  cg2d: iter=   122 ; resid.=  5.61877901495763E-12
(PID.TID 0000.0001)  cg2d: iter=   123 ; resid.=  4.36077818390566E-12
(PID.TID 0000.0001)  cg2d: iter=   124 ; resid.=  3.05006105826686E-12
(PID.TID 0000.0001)  cg2d: iter=   125 ; resid.=  2.22993259918571E-12
(PID.TID 0000.0001)  cg2d: iter=   126 ; resid.=  1.56461465516128E-12
(PID.TID 0000.0001)  cg2d: iter=   127 ; resid.=  1.09081743441665E-12
(PID.TID 0000.0001)  cg2d: iter=   128 ; resid.=  8.48145403382544E-13
(PID.TID 0000.0001)  cg2d: iter=   129 ; resid.=  6.60894569911055E-13
(PID.TID 0000.0001)  cg2d: iter=   130 ; resid.=  5.63301821337335E-13
(PID.TID 0000.0001)  cg2d: iter=   131 ; resid.=  4.59104706917450E-13
(PID.TID 0000.0001)  cg2d: iter=   132 ; resid.=  3.74847981869057E-13
(PID.TID 0000.0001)  cg2d: iter=   133 ; resid.=  2.89474482661902E-13
(PID.TID 0000.0001)  cg2d: iter=   134 ; resid.=  2.13706964855084E-13
(PID.TID 0000.0001)  cg2d: iter=   135 ; resid.=  1.55343170391701E-13
(PID.TID 0000.0001)  cg2d: iter=   136 ; resid.=  1.09829837625706E-13
(PID.TID 0000.0001)  cg2d: iter=   137 ; resid.=  7.61676030373033E-14
DEBUG_STATS_RL:    cg2d_x (SOLVE_FOR_PRESSURE)  min= -1.34856702996382E+01
DEBUG_STATS_RL:    cg2d_x (SOLVE_FOR_PRESSURE)  max=  8.50665555545074E+00
DEBUG_STATS_RL:    cg2d_x (SOLVE_FOR_PRESSURE) mean= -1.50197916695300E+00
DEBUG_STATS_RL:    cg2d_x (SOLVE_FOR_PRESSURE) S.D.=  5.80523075838970E+00
(PID.TID 0000.0001)      cg2d_init_res =   9.64547358510173E-01
(PID.TID 0000.0001)      cg2d_iters(min,last) =      -1     137
(PID.TID 0000.0001)      cg2d_last_res =   7.61676030373033E-14
(PID.TID 0000.0001) // =======================================================
(PID.TID 0000.0001) // Begin MONITOR dynamic field statistics
(PID.TID 0000.0001) // =======================================================
(PID.TID 0000.0001) %MON time_tsnumber                =                    10
(PID.TID 0000.0001) %MON time_secondsf                =   8.6400000000000E+05
(PID.TID 0000.0001) %MON dynstat_eta_max              =   8.6714123908774E-01
(PID.TID 0000.0001) %MON dynstat_eta_min              =  -1.3746860652026E+00
(PID.TID 0000.0001) %MON dynstat_eta_mean             =  -6.8481775787100E-04
(PID.TID 0000.0001) %MON dynstat_eta_sd               =   5.2251368602084E-01
(PID.TID 0000.0001) %MON dynstat_eta_del2             =   1.8314607115439E-03
(PID.TID 0000.0001) %MON dynstat_uvel_max             =   1.7205018431397E-01
(PID.TID 0000.0001) %MON dynstat_uvel_min             =  -8.6241379986482E-02
(PID.TID 0000.0001) %MON dynstat_uvel_mean            =   3.1142131065840E-04
(PID.TID 0000.0001) %MON dynstat_uvel_sd              =   1.2247534238938E-02
(PID.TID 0000.0001) %MON dynstat_uvel_del2            =   8.5885406844475E-05
(PID.TID 0000.0001) %MON dynstat_vvel_max             =   9.7941486111049E-02
(PID.TID 0000.0001) %MON dynstat_vvel_min             =  -1.1618128752202E-01
(PID.TID 0000.0001) %MON dynstat_vvel_mean            =  -2.6698000885076E-04
(PID.TID 0000.0001) %MON dynstat_vvel_sd              =   1.0253878042219E-02
(PID.TID 0000.0001) %MON dynstat_vvel_del2            =   1.0355194398492E-04
(PID.TID 0000.0001) %MON dynstat_wvel_max             =   2.1781552156262E-04
(PID.TID 0000.0001) %MON dynstat_wvel_min             =  -1.9513752702770E-04
(PID.TID 0000.0001) %MON dynstat_wvel_mean            =   3.8702616827093E-22
(PID.TID 0000.0001) %MON dynstat_wvel_sd              =   2.2816117760195E-05
(PID.TID 0000.0001) %MON dynstat_wvel_del2            =   2.6066073117861E-07
(PID.TID 0000.0001) %MON dynstat_theta_max            =   2.9668818771602E+01
(PID.TID 0000.0001) %MON dynstat_theta_min            =  -1.9109792736775E+00
(PID.TID 0000.0001) %MON dynstat_theta_mean           =   3.6192452312220E+00
(PID.TID 0000.0001) %MON dynstat_theta_sd             =   4.4142420869694E+00
(PID.TID 0000.0001) %MON dynstat_theta_del2           =   5.0490996081338E-03
(PID.TID 0000.0001) %MON dynstat_salt_max             =   3.7434545795537E+01
(PID.TID 0000.0001) %MON dynstat_salt_min             =   2.9748828449400E+01
(PID.TID 0000.0001) %MON dynstat_salt_mean            =   3.4717966200898E+01
(PID.TID 0000.0001) %MON dynstat_salt_sd              =   2.9614270185677E-01
(PID.TID 0000.0001) %MON dynstat_salt_del2            =   1.0065209876502E-03
(PID.TID 0000.0001) %MON dynstat_sst_max              =   2.9668818771602E+01
(PID.TID 0000.0001) %MON dynstat_sst_min              =  -1.9109792736775E+00
(PID.TID 0000.0001) %MON dynstat_sst_mean             =   1.8578135197413E+01
(PID.TID 0000.0001) %MON dynstat_sst_sd               =   9.0877344819250E+00
(PID.TID 0000.0001) %MON dynstat_sst_del2             =   2.5551719998094E-02
(PID.TID 0000.0001) %MON dynstat_sss_max              =   3.7433437619109E+01
(PID.TID 0000.0001) %MON dynstat_sss_min              =   2.9748828449400E+01
(PID.TID 0000.0001) %MON dynstat_sss_mean             =   3.4853881341176E+01
(PID.TID 0000.0001) %MON dynstat_sss_sd               =   9.6732353968846E-01
(PID.TID 0000.0001) %MON dynstat_sss_del2             =   7.9377750486112E-03
(PID.TID 0000.0001) %MON forcing_qnet_max             =   4.3532449340820E+02
(PID.TID 0000.0001) %MON forcing_qnet_min             =  -1.8282252197266E+02
(PID.TID 0000.0001) %MON forcing_qnet_mean            =  -1.6587597735982E+01
(PID.TID 0000.0001) %MON forcing_qnet_sd              =   1.1099484968291E+02
(PID.TID 0000.0001) %MON forcing_qnet_del2            =   1.0064568232602E+00
(PID.TID 0000.0001) %MON forcing_qsw_max              =   0.0000000000000E+00
(PID.TID 0000.0001) %MON forcing_qsw_min              =   0.0000000000000E+00
(PID.TID 0000.0001) %MON forcing_qsw_mean             =   0.0000000000000E+00
(PID.TID 0000.0001) %MON forcing_qsw_sd               =   0.0000000000000E+00
(PID.TID 0000.0001) %MON forcing_qsw_del2             =   0.0000000000000E+00
(PID.TID 0000.0001) %MON forcing_empmr_max            =   8.1892606829115E-05
(PID.TID 0000.0001) %MON forcing_empmr_min            =  -7.3098166808450E-05
(PID.TID 0000.0001) %MON forcing_empmr_mean           =   8.6431851563760E-07
(PID.TID 0000.0001) %MON forcing_empmr_sd             =   2.8285734796509E-05
(PID.TID 0000.0001) %MON forcing_empmr_del2           =   3.6322996729435E-07
(PID.TID 0000.0001) %MON forcing_fu_max               =   2.7001778483391E-01
(PID.TID 0000.0001) %MON forcing_fu_min               =  -1.6600005030632E-01
(PID.TID 0000.0001) %MON forcing_fu_mean              =   1.6047892078789E-02
(PID.TID 0000.0001) %MON forcing_fu_sd                =   9.0407764820516E-02
(PID.TID 0000.0001) %MON forcing_fu_del2              =   6.8344110701255E-04
(PID.TID 0000.0001) %MON forcing_fv_max               =   2.2184188961983E-01
(PID.TID 0000.0001) %MON forcing_fv_min               =  -1.8164484500885E-01
(PID.TID 0000.0001) %MON forcing_fv_mean              =  -5.7014729006699E-03
(PID.TID 0000.0001) %MON forcing_fv_sd                =   4.6628624802842E-02
(PID.TID 0000.0001) %MON forcing_fv_del2              =   4.6475770842672E-04
(PID.TID 0000.0001) %MON trAdv_CFL_u_max              =   4.7890362077385E-02
(PID.TID 0000.0001) %MON trAdv_CFL_v_max              =   2.2037412278294E-02
(PID.TID 0000.0001) %MON trAdv_CFL_w_max              =   7.1424623874681E-02
(PID.TID 0000.0001) %MON advcfl_uvel_max              =   5.0058112914483E-02
(PID.TID 0000.0001) %MON advcfl_vvel_max              =   2.2572160841696E-02
(PID.TID 0000.0001) %MON advcfl_wvel_max              =   7.6758595917486E-02
(PID.TID 0000.0001) %MON advcfl_W_hf_max              =   8.6858411169786E-02
(PID.TID 0000.0001) %MON pe_b_mean                    =   3.4936330443570E-04
(PID.TID 0000.0001) %MON ke_max                       =   1.4744207751701E-02
(PID.TID 0000.0001) %MON ke_mean                      =   1.1542714249324E-04
(PID.TID 0000.0001) %MON ke_vol                       =   1.3226782436723E+18
(PID.TID 0000.0001) %MON vort_r_min                   =  -3.6986447885660E-07
(PID.TID 0000.0001) %MON vort_r_max                   =   2.8654635552038E-07
(PID.TID 0000.0001) %MON vort_a_mean                  =  -2.5274807185078E-05
(PID.TID 0000.0001) %MON vort_a_sd                    =   7.3604389246091E-05
(PID.TID 0000.0001) %MON vort_p_mean                  =  -3.1845655531888E-05
(PID.TID 0000.0001) %MON vort_p_sd                    =   1.3162413427287E-04
(PID.TID 0000.0001) %MON surfExpan_theta_mean         =   3.3018952255841E-07
(PID.TID 0000.0001) %MON surfExpan_salt_mean          =  -7.0860791020765E-08
(PID.TID 0000.0001) // =======================================================
(PID.TID 0000.0001) // End MONITOR dynamic field statistics
(PID.TID 0000.0001) // =======================================================
(PID.TID 0000.0001) // =======================================================
(PID.TID 0000.0001) // Field Current uVel   at iteration         10
(PID.TID 0000.0001) // CMIN =         -8.624137998648224E-02
(PID.TID 0000.0001) // CMAX =          1.720501843139698E-01
(PID.TID 0000.0001) // CINT =          9.566354233350075E-03
(PID.TID 0000.0001) // SYMBOLS (CMIN->CMAX): -abcdefghijklmnopqrstuvwxyz+
(PID.TID 0000.0001) //                  0.0: .
(PID.TID 0000.0001) // RANGE I (Lo:Hi:Step):(     1:    90:     1)
(PID.TID 0000.0001) // RANGE J (Lo:Hi:Step):(    40:     1:    -1)
(PID.TID 0000.0001) // RANGE K (Lo:Hi:Step):(   1:   1:   1)
(PID.TID 0000.0001) // =======================================================
(PID.TID 0000.0001) K =   1
(PID.TID 0000.0001)                I=10      I=20      I=30      I=40      I=50      I=60      I=70      I=80      I=90
(PID.TID 0000.0001) |--J--|123456789|123456789|123456789|123456789|123456789|123456789|123456789|123456789|123456789|
(PID.TID 0000.0001)     40 iiihh..ihhiiiiiiiii...................................................................hhhh
(PID.TID 0000.0001)     39 ijjihihhhhiiii....i......................................................iii.........hgffg
(PID.TID 0000.0001)     38 ijkkkkjjjjjjj............................................................iiih.......gggggh
(PID.TID 0000.0001)     37 kkj...................................................................i....gh....ggfg..ijk
(PID.TID 0000.0001)     36 lk..........................................ffg.....................iijjjjigfh..hgijkklmll
(PID.TID 0000.0001)     35 kj..................................hgg...hfeeeh....hhhi............ij.....jjjjjklmnoppqml
(PID.TID 0000.0001)     34 ....................................ihh..ghhgggh..jkjjkki...................kooopqrrrrrn..
(PID.TID 0000.0001)     33 .....................................ijihhhjjijklklnooonmki..................prqtwvutsrok.
(PID.TID 0000.0001)     32 .....................................iklkklmnmmooopqqrrqpom.................oqtqrvvsrqpnk.
(PID.TID 0000.0001)     31 .....................................lnpppoooooqqqrrrrrqppn...............nnsuutttsqonnl..
(PID.TID 0000.0001)     30 ....................................qrttttttsqrssssrrrqooon.............opqqsttusqqommlk..
(PID.TID 0000.0001)     29 ..................................kmqsuwuttvutrrrrrrpoonmmmm............oppoooonmmmlkjji..
(PID.TID 0000.0001)     28 ................................iknmnnprqppqqpoonnoonlllkjjll..........klkkkjkkjiijihihi..
(PID.TID 0000.0001)     27 ...............j...............gghiihijllklllllmljjllkjjihiijk....iij..jkjjkijjhgghhgg....
(PID.TID 0000.0001)     26 ...............ij............faceeeefghhhhiiijiiihhiiihhhghhhiji..ijefgijiiihhihgffffe....
(PID.TID 0000.0001)     25 ...............hhe....ii....gd-bcbcdefedegeffghgfffggeeffdfgfhiih....ffgjhhgfggffcffdd....
(PID.TID 0000.0001)     24 .............hfegef..egi....ef..ebcdedcbcdddefggeeeefedfeddeegggiihh..gdghgfeffeeeffgh....
(PID.TID 0000.0001)     23 .............ffeeef..ggg....df...gegfeedceeffgfhgggghhghgfeffggghhfff.....fgfggddfghil....
(PID.TID 0000.0001)     22 j............gfedeghiihh....g..kjjghgfhgffghgigghihhjjhhhghhhjiiiigghj.......ghdfhihhjiiij
(PID.TID 0000.0001)     21 ifi.........fghghgghijiih......ijkiihiihhhhhhjheijhgjigjihhfhjjiiihhik.........ggiihhhijik
(PID.TID 0000.0001)     20 hfi........hhhjjihhiijjih.........ihijjihihijhigikhhjigijigfijihhhgiik..........ghhhhhiihk
(PID.TID 0000.0001)     19 gfg........kjikliggiiijhgfj....ji......jiijijhjhijhhjjhijiggiihghhfghj............hhgghhjj
(PID.TID 0000.0001)     18 gfg........kkihlggeffgihggihhjkji....ikjiijkkijijjhhijijihghhghghgfehji...........hhhgihhi
(PID.TID 0000.0001)     17 ggh..........ffhegeceehggggijij......hihiiiiihhghihhhiiiiffggggghfediki..........iihghigeg
(PID.TID 0000.0001)     16 ggg.......i..ggffhadhfgggfgiji........hhhhhhhhhhhihhhijhhfghhgfhhfgghjij.........higgghgfg
(PID.TID 0000.0001)     15 gfgg.....ij..jjijl-fnjegghjhh..........hihhhgiiiiighijkhggijffhjjgggghhhh.......ihjhghiggg
(PID.TID 0000.0001)     14 gggd.....ghfgllkljekqkfffijfh..........iihiihjjjiijljkkjhjkiejljigghghfjh......iiikjhiigih
(PID.TID 0000.0001)     13 ijhe.....gikljjjjjimlifgjkjfd..........kkjlkjkkjjjkljjkllmljiooijjjkjjhki.....ijjillijjjlk
(PID.TID 0000.0001)     12 nlkhgdbhlloolhijjkjkjjkkmmjhgijiih.....mmlmkjkjjjlkjijklllmmmpljkmmlljjk......nlkjmmlnmnon
(PID.TID 0000.0001)     11 ppoljiorsrssrmopopppqoopponnmkllkkj...mnmmm..llklmjjjkkjlllnonlkmponmllj.....lqnooppoppopp
(PID.TID 0000.0001)     10 ssrqrrvvvvuwwsvxyzyxvtutttsrqooomlkk..mmnnl..lllkjjjklkjlmmnonmmprrpnmmk...hinrrrqrssstsss
(PID.TID 0000.0001)      9 vvuuwwwvuustuvwz+yxwvvvvwvuuusqqqnnqplmoon..klllkmmmmnmmooqrppooqrqpnoml..jlnprsstuvuuwwuu
(PID.TID 0000.0001)      8 tuwxwwvttsrrttturssstvvwvvuvusstttuxvsssrponnnnoqsssttssuutusrqpqrqpppom..lmoqrsttuuttuuts
(PID.TID 0000.0001)      7 qrssqqqpppqpqpppppqrrqqrrrrqqqrstuwywuvvtrpppppruwvxyxwwwussrqqqqrqrqqqqqnnoqrrqpoqpopqqpp
(PID.TID 0000.0001)      6 mmlkkkklmmmmnnmmmnonmlmoonnnoopqrqqrpprrrqrssrrtuutuutsrqoopqpppprrrrrsrrrrrrqonmmmlmnoonm
(PID.TID 0000.0001)      5 jiihiijjkllkkkjjkllkjjkkkjjklmmmmmmmlmnnnoqrrrrssqqpomlkllnppooopqqqqrsssrpnmlllkkkkklllkj
(PID.TID 0000.0001)      4 hgggghhiiihhhhhhijiiiihhgghhiiiiijjjjjjjjklmmmnnmlkjihhijkmnnmmmnnnnnooomj...jjjjiiiiiihhh
(PID.TID 0000.0001)      3 ggffgggghh.............................hhiijiijiihhgggggijjkkkjjjjjjjjjii...ijiihhhhhhgghg
(PID.TID 0000.0001)      2 ...........................................iiiiihhggggghhiiiiihh...hhh......iiihhhhhhii...
(PID.TID 0000.0001)      1 ..........................................................................................
(PID.TID 0000.0001) // =======================================================
(PID.TID 0000.0001) // END OF FIELD                                          =
(PID.TID 0000.0001) // =======================================================
(PID.TID 0000.0001) 
(PID.TID 0000.0001) // =======================================================
(PID.TID 0000.0001) // Field Current vVel   at iteration         10
(PID.TID 0000.0001) // CMIN =         -1.036464337326409E-01
(PID.TID 0000.0001) // CMAX =          9.099197163285062E-02
(PID.TID 0000.0001) // CINT =          7.208829828351538E-03
(PID.TID 0000.0001) // SYMBOLS (CMIN->CMAX): -abcdefghijklmnopqrstuvwxyz+
(PID.TID 0000.0001) //                  0.0: .
(PID.TID 0000.0001) // RANGE I (Lo:Hi:Step):(     1:    90:     1)
(PID.TID 0000.0001) // RANGE J (Lo:Hi:Step):(    40:     1:    -1)
(PID.TID 0000.0001) // RANGE K (Lo:Hi:Step):(   1:   1:   1)
(PID.TID 0000.0001) // =======================================================
(PID.TID 0000.0001) K =   1
(PID.TID 0000.0001)                I=10      I=20      I=30      I=40      I=50      I=60      I=70      I=80      I=90
(PID.TID 0000.0001) |--J--|123456789|123456789|123456789|123456789|123456789|123456789|123456789|123456789|123456789|
(PID.TID 0000.0001)     40 moqsr.oooooooo...oo..................................................................lkkkl
(PID.TID 0000.0001)     39 oqrrqpoonoopp...........................................................nmmn........lllmnn
(PID.TID 0000.0001)     38 ppp.......................................................................lln......ml.oopo
(PID.TID 0000.0001)     37 op...................................................................nn...kkm...moqrq.ppoo
(PID.TID 0000.0001)     36 no.........................................prrq....................mnn....ighk.kmopqqomnon
(PID.TID 0000.0001)     35 ...................................llnn..pppqqpo...lnqtu...................jiiklmnppnmmq..
(PID.TID 0000.0001)     34 ....................................lkl.nnmlnppo.llnprtus...................ihknnoqrqonn..
(PID.TID 0000.0001)     33 ....................................liiiklllnqpoppopqsssrqo.................nlnqqpqqnkjkm.
(PID.TID 0000.0001)     32 ....................................lhhjkklmoqnnopoprsssroo................rpprrnlmljiil..
(PID.TID 0000.0001)     31 ....................................ppommnollnmnoppqrssspnn..............pvxvwvspoonmmmo..
(PID.TID 0000.0001)     30 ...................................wvtrqqrqooonopqpprssromm............ttwwsomlmnonnnnmo..
(PID.TID 0000.0001)     29 .................................ustqppppqonnoonnooprrrpomlm...........nonmkklmnonnonnoo..
(PID.TID 0000.0001)     28 ...............................monnnmmklmonnnoonnoqrsrqponlll.........onmnmmmmlmmlmmlm....
(PID.TID 0000.0001)     27 ..............nm..............monlmnnmmorrpooonoqqpqrqponnlklm...nnot.qqqqqrrrrqppppon....
(PID.TID 0000.0001)     26 ..............omn...........kkomklmmmmorqopponmmnllmmnonnnmlnnoo....sqqpopoppnnnopnlml....
(PID.TID 0000.0001)     25 ..............knoo...nnm...mmq.geghhhijjjjjjihhhhiihhhihhhjmnnpqo....mjjljkkjjkmolkkif....
(PID.TID 0000.0001)     24 ............pqppsts.ollm...jnq..cbccdeeeghgfghkmmmkjihgghijkjjjihikn.....hkjjkknnllkjj....
(PID.TID 0000.0001)     23 ............nklnoom.oljk...no...jkllnnnnnnnoppqtutsttssuvvtsrpnmmnooo.......npqrponorv....
(PID.TID 0000.0001)     22 p...........moonjhggghjl......oqrrrsrqqqpopqppoqqprsrtusqppqqqpqqrpnnm........pnonpqrtrpoo
(PID.TID 0000.0001)     21 nlk........mmnmkkkkklmnpp......n.nmoononnmnnnppnonnnnooqononmlllmnonlk.........kmoponnmnnl
(PID.TID 0000.0001)     20 mln.......mlkjjhikmnmooon......o......qpoommmnonoqqrsrqqrrrppqqqpoprsr...........pppppppml
(PID.TID 0000.0001)     19 nmn.......rssrtqqopstutrpnm...non.....oonnmllkkkklmnpppopqrqqrrqpompqp...........pponnlmpq
(PID.TID 0000.0001)     18 qnm.......r.xyy+yurrstutrprpnnp.....nnpqqpooonnoonlmoqqqpqrrsstsrrrrrqn..........pppppoors
(PID.TID 0000.0001)     17 srp.......o.wvtvusvrlkonmnoonn.......oonopqqrrpoponmnnmopppqqqsrrrompqo.........kmnqrstsrs
(PID.TID 0000.0001)     16 sts......rn.qpnnoknsnhlopnjlm.........nmkkllmmmmmmmmmmllnoonpqqpnooopssq........kmnnqsssrs
(PID.TID 0000.0001)     15 suur....oss.hjhfggdjkgfjmoonj.........mnljiihiiiijihikmklmmnqqnoooqpquyuq......ljkmkloqssr
(PID.TID 0000.0001)     14 stvu....mprlgiiijiegmmlnopqqq.........kllkihgghigffedghgfgijmonopoppoorsn.....mlklmllnprsr
(PID.TID 0000.0001)     13 prss....jlmlklonnnlmnnllnoqqq.........jjjjkjiijjjjjjihhgfghefjllnmlnopqr.....omlklmlkkklop
(PID.TID 0000.0001)     12 opoommiecflomnqqqqqromnnpqpnmnooqp....kkllm.mmmmmlklllmmljkljkkmppmmnprr.....jkjijljklklmn
(PID.TID 0000.0001)     11 nnnlfegfd-bebcjmmkjmnmmnooonmmnmmpp..kmnnnn.klmnpqponnoqronoomkmqrpmmoqp....fjmjggkjjlkkmm
(PID.TID 0000.0001)     10 nnnnljjkkhhkhbdhiihiknoonmnomlnpoput.lnonm..jknprsrqqpnptvurqpmnqssqpppn..kigjoonkkjjllijm
(PID.TID 0000.0001)      9 lmmmmlklmljnpommoonlkmpqpnmlkiikjimpomnpon.omkmmnpqqrqnnnptsqpnpstssrqon.omnmlnoonmkkmqnij
(PID.TID 0000.0001)      8 nnnmnnlkmnllmprrppqplkmoooonkiiiiijieegikmpqommooljjjjkmljopnmlmpqpqqqom.rprtsqqqqollorspn
(PID.TID 0000.0001)      7 ppoooonllmoonmnoqqrrqooonnnnnmlkjlqphfgfehmppnnqrqonkgfikjnqolklnonnoppqusonpqpppqpmmnqrqp
(PID.TID 0000.0001)      6 ppnmmmmnmlkmnmllnppponnnljjklllmkknqomkifehknnoqqqrrpliihhkonljklmmllmnnpqomnoonnonmmnoooo
(PID.TID 0000.0001)      5 nmlllkklmlklllllmmmmmmmlljjkllllllklmnmlkiijjmpqpoppomlkjjlnnlklmnmmmmnnmo..mnonnnnnnnnnnn
(PID.TID 0000.0001)      4 lkkllkkkkl............................nmnnnmlmoppoonmkklmnnnnmlllmmmnnnmm...oonnnnnnnnmlll
(PID.TID 0000.0001)      3 ..........................................nmmllmmmmmlklnppoonmlm..nmmn.....nnnmllmmnnmm...
(PID.TID 0000.0001)      2 ..........................................................................................
(PID.TID 0000.0001)      1 ..........................................................................................
(PID.TID 0000.0001) // =======================================================
(PID.TID 0000.0001) // END OF FIELD                                          =
(PID.TID 0000.0001) // =======================================================
(PID.TID 0000.0001) 
(PID.TID 0000.0001) // =======================================================
(PID.TID 0000.0001) // Field Current theta  at iteration         10
(PID.TID 0000.0001) // CMIN =         -1.910979273677460E+00
(PID.TID 0000.0001) // CMAX =          2.966881877160206E+01
(PID.TID 0000.0001) // CINT =          1.169622149825167E+00
(PID.TID 0000.0001) // SYMBOLS (CMIN->CMAX): -abcdefghijklmnopqrstuvwxyz+
(PID.TID 0000.0001) //                  0.0: .
(PID.TID 0000.0001) // RANGE I (Lo:Hi:Step):(     1:    90:     1)
(PID.TID 0000.0001) // RANGE J (Lo:Hi:Step):(    40:     1:    -1)
(PID.TID 0000.0001) // RANGE K (Lo:Hi:Step):(   1:   1:   1)
(PID.TID 0000.0001) // =======================================================
(PID.TID 0000.0001) K =   1
(PID.TID 0000.0001)                I=10      I=20      I=30      I=40      I=50      I=60      I=70      I=80      I=90
(PID.TID 0000.0001) |--J--|123456789|123456789|123456789|123456789|123456789|123456789|123456789|123456789|123456789|
(PID.TID 0000.0001)     40 abbcd.baa----abcddd..................................................................abbaa
(PID.TID 0000.0001)     39 bcdddccbbaaaa-...dd.....................................................----........bbbaab
(PID.TID 0000.0001)     38 effffeddddccc...........................................................-----......cbbbbde
(PID.TID 0000.0001)     37 ggh..................................................................bc...bab...edddf.deef
(PID.TID 0000.0001)     36 hh.........................................dcba....................dcccbabbccd.eefgghhhhhh
(PID.TID 0000.0001)     35 gg.................................aaaa..cdddddc...ffffg...........bbb....ccdeeeffgiijjjih
(PID.TID 0000.0001)     34 ...................................aaab.cdedddee.eeffgghh..................cbdefggijjkjj..
(PID.TID 0000.0001)     33 ....................................-bcccdeeeeeeffffggghhhi.................bceijjklllkkk.
(PID.TID 0000.0001)     32 ....................................bcdddeffffgghhhhhiiiijj................cccgkmmmmmlllk.
(PID.TID 0000.0001)     31 ....................................fghhhiiijjjjjkjkkklllkk..............hjkjjmoooonnnmm..
(PID.TID 0000.0001)     30 ...................................mlmmmmmmmmmmmmmmmnnnnnmm............mopqqqqqqqqpppooo..
(PID.TID 0000.0001)     29 .................................ppppppppppppppooopoppppponm...........rrsrrrrrrqqqqqppp..
(PID.TID 0000.0001)     28 ...............................prrrrrrrrrrrrrrrrrrrrrrrrqqpoo.........ttssssssssssrrrqqq..
(PID.TID 0000.0001)     27 ..............vv..............ssttttttttttttttutttttttsssrrqqq...stuu.vuuuuuuuttttsssr....
(PID.TID 0000.0001)     26 ..............vvu...........utuvvvvvwwwwwwvvvvvvvvvvuuttttsssttv.uuvwwwwwwwvvvvvuuttsr....
(PID.TID 0000.0001)     25 ..............wvwx...xwx...uvvwxxxxxxxxxxxxwwwwwwwwvvvvuuuuuuvwwx...xxxxwwwwwwwvvvutsq....
(PID.TID 0000.0001)     24 ............wwwwxyy.xxxy...wxx.yyyyyyyyyxxxxxxxxxwwwwwwwvvvwwwxxxwvw.xxxxwwxxxwwwvvutr....
(PID.TID 0000.0001)     23 ............xxxxyyz.xxyy...xxx..yyyyzyyyyyyyyyxxxxxxxxxwwwwxxxxwwwwww....wwxxxxwwwwwvu....
(PID.TID 0000.0001)     22 w...........xxyyyzyyyyyz...xx.yyzzzzzzzzzzzzzyyyyyyyyyxxwwxxxxxwwwwwxw......yyyyxxxxxxxxxx
(PID.TID 0000.0001)     21 xxx........xxxxyzzzzzzzz+.....zyzzzzzz++++zzzzyyyyyyyyxxwwwwwwvvvvvvvu........yyyyyyyyyyxx
(PID.TID 0000.0001)     20 xww.......yyyyyxyzzzzzzz+......z.zzzzz++++zzzzzzzyyyxxxxwwwxwvvvvvvvut.........yyyyyxyxxwx
(PID.TID 0000.0001)     19 wvv.......yzyyxwwyyzzzzzzzz...zzz.....+++++++++++zzzyyyyxxxxxwwwwwwwvu...........yyyxxxwww
(PID.TID 0000.0001)     18 uut.......zzzyyxxyyzzzzzzzzzzz+zz...z+++++++++++++++zzzyyyyxxwwwvvwvvut..........yyxxwvvwv
(PID.TID 0000.0001)     17 uut.......z.zyyyyyyyzyyyyyyyyzz.....zzzzzzzzzzzzzzzzzzzyyyyxxwwvuuvvuut.........yyyyxwuuvu
(PID.TID 0000.0001)     16 uts......yy.zyyyyxxxxxxxwxxxxy.......yyyyyyyyyyzyyyyyyyyyyyyyxwwvvuuutts........yyyyxwvuuu
(PID.TID 0000.0001)     15 utsr....xxx.xxxxxwwwwvwwvvwww.........xxxxxxxxxxxxxxxxxxxyyyxwwwvvuuttsss......wxxxxxxwvuu
(PID.TID 0000.0001)     14 ttsq....xyxxwxwvwwwvutuuuuuuu.........wwwwwwwwwwwwwwwwwwwxxwwwwvvvuutssrr.....vwwwwwwwwvvu
(PID.TID 0000.0001)     13 ttts....wwwvvvuuuuvuuuttssttt.........vvvvuuuuuuuuttuuvuvvvwwwvuuututssrr....vvvvvvvvvvvuu
(PID.TID 0000.0001)     12 sssssstttutsstsssrrrstsrrrsssqqrrq....uuutsssssrrrrrrrrrrstttssstrsssrrp.....uvuuttttttstt
(PID.TID 0000.0001)     11 qpprssssrrrqqrrqqpoopqpoppppppppppq..ttsrrr.rqqqqqqqqqqqqqrqpppqrqqrrqqp....prssrqqrqqqpqq
(PID.TID 0000.0001)     10 mllnopponnnonoooonnmnnmmmmllmnnnnooo.qqqqqq.pppppppooooooooonnoooooooooo..nnopponnnnoonnmm
(PID.TID 0000.0001)      9 iihijjiiiiiiiijjiijjjjiiiiiiijkklmnmlnoono.mmmnnnonnnnnnnnmlllmmmllllmmm.mmmmmmllkjjkkjiii
(PID.TID 0000.0001)      8 ffffffffeefggggffffghgffggggghijjjkjjklllllkkllllkllllkkkkjjijjkkjjjjkkj.kkkjjiihhggggfeee
(PID.TID 0000.0001)      7 ccddddeeeedeffeeeeeeedddeeffffgggggghhiijjjijjjjiiihhhhhiiihhhhiiiiiiiiiiiiihggfeedddddddc
(PID.TID 0000.0001)      6 bbbccdddddccdddddddddddeddddcdeeeeeeeffgghhhghhigfeedeeefffffefgggggghhhhgggfeedccccccbbbb
(PID.TID 0000.0001)      5 bbccccccccccddddddccccdcccccddddddddddddeeeeeeeeeccbbccccddddddeeeeffeeeeeeddcccbbbbbbbbbb
(PID.TID 0000.0001)      4 bccccbbbbbbbbbcccbccbbbabbabbbbcbbbbbbbcccccbbbbbbbbbbbbbbbbcccccccccccccc..aaaabbbbbbbbbb
(PID.TID 0000.0001)      3 bbbbaaa-aa............................bbaaaaaaaaabbbbaaaaaaaaaaaaaaaaaaab..aaaaaaabbbbbbab
(PID.TID 0000.0001)      2 ..........................................bbbbbaaaaaaaaaaaa--aaa..aaaa.....aaaaaaaabbba...
(PID.TID 0000.0001)      1 ..........................................................................................
(PID.TID 0000.0001) // =======================================================
(PID.TID 0000.0001) // END OF FIELD                                          =
(PID.TID 0000.0001) // =======================================================
(PID.TID 0000.0001) 
(PID.TID 0000.0001) // =======================================================
(PID.TID 0000.0001) // Field Current etaN   at iteration         10
(PID.TID 0000.0001) // CMIN =         -1.374686065202618E+00
(PID.TID 0000.0001) // CMAX =          8.671412390877441E-01
(PID.TID 0000.0001) // CINT =          8.303064089964306E-02
(PID.TID 0000.0001) // SYMBOLS (CMIN->CMAX): -abcdefghijklmnopqrstuvwxyz+
(PID.TID 0000.0001) //                  0.0: .
(PID.TID 0000.0001) // RANGE I (Lo:Hi:Step):(    -1:    92:     1)
(PID.TID 0000.0001) // RANGE J (Lo:Hi:Step):(    42:    -1:    -1)
(PID.TID 0000.0001) // RANGE K (Lo:Hi:Step):(   1:   1:   1)
(PID.TID 0000.0001) // =======================================================
(PID.TID 0000.0001) K =   1
(PID.TID 0000.0001)                I=8       I=18      I=28      I=38      I=48      I=58      I=68      I=78      I=88
(PID.TID 0000.0001) |--J--|101234567|901234567|901234567|901234567|901234567|901234567|901234567|901234567|901234567|9012
(PID.TID 0000.0001)     42 ............................................----aaaabbbccccbbaaaaa..bbbb.....----aaaaaaaa.....
(PID.TID 0000.0001)     41 ..............................................................................................
(PID.TID 0000.0001)     40 hhggggh.iiihhhhhggggg..................................................................hhhhhgg
(PID.TID 0000.0001)     39 hggggghiiihhhhhh...ff.....................................................hhhh........ihhhhggg
(PID.TID 0000.0001)     38 hhhiiiiiiiihhhi...........................................................hhhhh......ihhhhhhhi
(PID.TID 0000.0001)     37 hiiij..................................................................jj...hgg...gffgf.hhhiii
(PID.TID 0000.0001)     36 iijj.........................................mmnn....................jkkkjjigfff.feeffghhhiijj
(PID.TID 0000.0001)     35 ijkk.................................nnnn..mmmmmnn...nnnoo...........kll....gfeeddeeefghhhijkk
(PID.TID 0000.0001)     34 .....................................nmmm.mmmmmmmm.onmmmnop..................ggfeeeefghhij....
(PID.TID 0000.0001)     33 k.....................................nnmmmmmmmmmnnnnnnnooppp.................ggfghhhijjjjk...
(PID.TID 0000.0001)     32 k.....................................nnmmmmnnnnooooooooppppp................iiihikkkkkkkjk...
(PID.TID 0000.0001)     31 ......................................nnnnnnoooppppppppqqqqqp..............jjkkkkkllklkkkj....
(PID.TID 0000.0001)     30 .....................................qqqqqqqqqqqrrrrrrrrrssrq............mlmmoooonnmmmllkk....
(PID.TID 0000.0001)     29 ...................................uvvvvvuuuutttttttssssssssrq...........ppppqppooonnmmlll....
(PID.TID 0000.0001)     28 .................................xxxxyxxxwwwwvvvuuuuttttttsssrq.........rrqqqpppoooonmmmml....
(PID.TID 0000.0001)     27 ................qq..............zyyyyyyyyxxxxwwwvvuvvuuutttssrrq...utrr.srrqqqpponnnnmml......
(PID.TID 0000.0001)     26 ................rqq...........yyzzzzzzzzyyyyyxxxwwvvvvvuutttsrrrrr.utrsttssrrqqqpoonnnmm......
(PID.TID 0000.0001)     25 ................rrrs...vvv...yyyzzzzzzzyyzzyyyyxwwvvvvuuutttsssssss...ttttssrrqqpooonnmm......
(PID.TID 0000.0001)     24 ..............rrrrstu.vvvv...zzz.zyyyyxxxyyyxxxwvvuuuutttsssssssstssss.ttssrqqqppooonnml......
(PID.TID 0000.0001)     23 ..............rrsstuv.vvvv...zz+..wwwwwwwwwwwwwvvvuuuttssrrrrrrrsrrrrss....pqqppoooonnmm......
(PID.TID 0000.0001)     22 poo...........sssttvvvvvuu...++.xwwvvvvwwwwxwwwwwwvvvuuttssssssssrrrrsts......ppppppoooooopoo.
(PID.TID 0000.0001)     21 pooqq........ssssttuuuuuuuv.....xwwwwwwwwwwxxxwwwwwwvvvuuttssttssrrrssss........qqqppppppppooq
(PID.TID 0000.0001)     20 ooopp.......tsstssttuuuuuuv......x.wwwxwwwxxxxxxwxwwwwvuuuttstsrrrrrrrrr.........qqppppppoooop
(PID.TID 0000.0001)     19 nnnoo.......ttsssrrstuuuuuvww...xxx.....xxxxxxxxxxxwwwwvvvuttttsrrrrrssr...........qqpppponnno
(PID.TID 0000.0001)     18 nnnno.......uutttsstuvvvvvvwwwwxwxx...yyxxxxxxwwwwwwwxwwvvuuuutssrrrrssrq..........qqppponnnnn
(PID.TID 0000.0001)     17 onnnn.......v.wwwvvvvwwwwwwwwwwww.....yyxxxxxxwwwwxwwwwwwvvvvuuttssrsssrq.........rrqqppnnonnn
(PID.TID 0000.0001)     16 ooonn......ww.yxxxwwxxwwwwvvvvvw.......xxxxxxxxxwxxwwwwwwvvvvvuuutssssrqqp........rrrqqqpoooon
(PID.TID 0000.0001)     15 ppponn....xww.yyxxwwxwwvvvvuuuu.........xwwwwwxwwwwwwwwwvvwwwvvuutssssrrqpp......rrrrrrrqqpppo
(PID.TID 0000.0001)     14 qqppoo....xxxwxwwvvvvvuttuutsss.........wwvvvvvvvvvvvvvvvvvwvvvvutttsssrrqq.....rrrrrrrrrrqqpp
(PID.TID 0000.0001)     13 rqqqpp....xxxwvvuuttuttttutssss.........vvvuutttttttsstttuuuuuvutttttssrrqq....rrrrrrrrrssrqqq
(PID.TID 0000.0001)     12 rqqqpppruvwwvuuuuuttttttttsssssrrrqq....uuttssssrrrrrrrrsrrssstssttssrrrqp.....sqqqrqqrqrrrqqq
(PID.TID 0000.0001)     11 ppppopqssssttttuuttttsssssrrrrqrrqrqq..tsssrr.rrrrqqqqrrrrrrrrqrrssrqqqqpp....pppppppppppppppp
(PID.TID 0000.0001)     10 nnnnnnnooonoopprrrrqqqqqpppppppppppqqp.rrrrrr.pqqqqqqqqqrrrqqqppqrrqpppppp..ikmnnmmmmmnnnnnnnn
(PID.TID 0000.0001)      9 jkkkkkkkjjjjklllllllllmmmmmmmmmnoopqqpopqppp.nopqqqqqqqqqrrrqpoopppoonnnoo.hijkkkkkjjjjkjijkkk
(PID.TID 0000.0001)      8 efgggggffggghiiihhhhhiijjjiiijjkllmmnnnooononnnnoopppppoooooonnnnoonnnnmmn.hhhhhhhggffggfeefgg
(PID.TID 0000.0001)      7 cccccccccdeeeeeffffffeeeffffffgghhiihghijkklllllmmlkkkjkkkkkkkkkllllllllkkihhhhgfeeddddeddcccc
(PID.TID 0000.0001)      6 bbaaaabbbcccdddddddddccdddcddeeeeeeeedddefgijjiiiihgfeddefghiihhiijjjijiiihgfeedcccccccccbbbaa
(PID.TID 0000.0001)      5 aaaaaaabbbbbbbbbbcccbbbbbbabbcccbbbbcccbbccdefffeedccbbbbcdeffeefffffffffeedcbbbbbbaaaaaaaaaaa
(PID.TID 0000.0001)      4 aa--aaaaaaaabbbbbbbbbbbbbabbbbbbbbbaaaaaaaabbbbbbbaaaaabbccccccccddddccccbbc..aaaaaaaaa---aa--
(PID.TID 0000.0001)      3 aaaaaaaaaaaa............................aaaaaaaaaaaaaaabbbbbbbbabbbbbbbbbbb..aaa-aaaaaaaaaaaaa
(PID.TID 0000.0001)      2 ............................................----aaaabbbccccbbaaaaa..bbbb.....----aaaaaaaa.....
(PID.TID 0000.0001)      1 ..............................................................................................
(PID.TID 0000.0001)      0 hhggggh.iiihhhhhggggg..................................................................hhhhhgg
(PID.TID 0000.0001)     -1 hggggghiiihhhhhh...ff.....................................................hhhh........ihhhhggg
(PID.TID 0000.0001) // =======================================================
(PID.TID 0000.0001) // END OF FIELD                                          =
(PID.TID 0000.0001) // =======================================================
(PID.TID 0000.0001) 
(PID.TID 0000.0001)  MDS_WRITE_FIELD: it,rec,kS,kL,kH=      10     1  15   1  15 file=U.0000000010
(PID.TID 0000.0001)  MDS_WRITE_FIELD: it,rec,kS,kL,kH=      10     1  15   1  15 file=V.0000000010
(PID.TID 0000.0001)  MDS_WRITE_FIELD: it,rec,kS,kL,kH=      10     1  15   1  15 file=T.0000000010
(PID.TID 0000.0001)  MDS_WRITE_FIELD: it,rec,kS,kL,kH=      10     1  15   1  15 file=S.0000000010
(PID.TID 0000.0001)  MDS_WRITE_FIELD: it,rec,kS,kL,kH=      10     1   1   1   1 file=Eta.0000000010
(PID.TID 0000.0001)  MDS_WRITE_FIELD: it,rec,kS,kL,kH=      10     1  15   1  15 file=W.0000000010
(PID.TID 0000.0001)  MDS_WRITE_FIELD: it,rec,kS,kL,kH=      10     1  15   1  15 file=PH.0000000010
(PID.TID 0000.0001)  MDS_WRITE_FIELD: it,rec,kS,kL,kH=      10     1   1   1   1 file=PHL.0000000010
(PID.TID 0000.0001)  MDS_WRITE_FIELD: it,rec,kS,kL,kH=      10     1   1   1   1 file=ETAtave.0000000010
(PID.TID 0000.0001)  MDS_WRITE_FIELD: it,rec,kS,kL,kH=      10     1  15   1  15 file=Ttave.0000000010
(PID.TID 0000.0001)  MDS_WRITE_FIELD: it,rec,kS,kL,kH=      10     1  15   1  15 file=Stave.0000000010
(PID.TID 0000.0001)  MDS_WRITE_FIELD: it,rec,kS,kL,kH=      10     1  15   1  15 file=uVeltave.0000000010
(PID.TID 0000.0001)  MDS_WRITE_FIELD: it,rec,kS,kL,kH=      10     1  15   1  15 file=vVeltave.0000000010
(PID.TID 0000.0001)  MDS_WRITE_FIELD: it,rec,kS,kL,kH=      10     1  15   1  15 file=wVeltave.0000000010
(PID.TID 0000.0001)  MDS_WRITE_FIELD: it,rec,kS,kL,kH=      10     1   1   1   1 file=Eta2tave.0000000010
(PID.TID 0000.0001)  MDS_WRITE_FIELD: it,rec,kS,kL,kH=      10     1  15   1  15 file=UTtave.0000000010
(PID.TID 0000.0001)  MDS_WRITE_FIELD: it,rec,kS,kL,kH=      10     1  15   1  15 file=VTtave.0000000010
(PID.TID 0000.0001)  MDS_WRITE_FIELD: it,rec,kS,kL,kH=      10     1  15   1  15 file=WTtave.0000000010
(PID.TID 0000.0001)  MDS_WRITE_FIELD: it,rec,kS,kL,kH=      10     1  15   1  15 file=UStave.0000000010
(PID.TID 0000.0001)  MDS_WRITE_FIELD: it,rec,kS,kL,kH=      10     1  15   1  15 file=VStave.0000000010
(PID.TID 0000.0001)  MDS_WRITE_FIELD: it,rec,kS,kL,kH=      10     1  15   1  15 file=WStave.0000000010
(PID.TID 0000.0001)  MDS_WRITE_FIELD: it,rec,kS,kL,kH=      10     1  15   1  15 file=TTtave.0000000010
(PID.TID 0000.0001)  MDS_WRITE_FIELD: it,rec,kS,kL,kH=      10     1  15   1  15 file=UUtave.0000000010
(PID.TID 0000.0001)  MDS_WRITE_FIELD: it,rec,kS,kL,kH=      10     1  15   1  15 file=VVtave.0000000010
(PID.TID 0000.0001)  MDS_WRITE_FIELD: it,rec,kS,kL,kH=      10     1  15   1  15 file=UVtave.0000000010
(PID.TID 0000.0001)  MDS_WRITE_FIELD: it,rec,kS,kL,kH=      10     1  15   1  15 file=Tdiftave.0000000010
(PID.TID 0000.0001)  MDS_WRITE_FIELD: it,rec,kS,kL,kH=      10     1  15   1  15 file=PhHytave.0000000010
(PID.TID 0000.0001)  MDS_WRITE_FIELD: it,rec,kS,kL,kH=      10     1   1   1   1 file=PHLtave.0000000010
(PID.TID 0000.0001)  MDS_WRITE_FIELD: it,rec,kS,kL,kH=      10     1   1   1   1 file=uFluxtave.0000000010
(PID.TID 0000.0001)  MDS_WRITE_FIELD: it,rec,kS,kL,kH=      10     1   1   1   1 file=vFluxtave.0000000010
(PID.TID 0000.0001)  MDS_WRITE_FIELD: it,rec,kS,kL,kH=      10     1   1   1   1 file=tFluxtave.0000000010
(PID.TID 0000.0001)  MDS_WRITE_FIELD: it,rec,kS,kL,kH=      10     1   1   1   1 file=sFluxtave.0000000010
(PID.TID 0000.0001)  MDS_WRITE_FIELD: it,rec,kS,kL,kH=      10     1   1   1   1 file=PHL2tave.0000000010
(PID.TID 0000.0001)  MDS_WRITE_FIELD: it,rec,kS,kL,kH=      10     1  15   1  15 file=Convtave.0000000010
(PID.TID 0000.0001) // Time-average data written, t-step        10
(PID.TID 0000.0001) 
(PID.TID 0000.0001)  MDS_WRITE_FIELD: it,rec,kS,kL,kH=      10     1  15   1  15 file=GM_Kwx-T.0000000010
(PID.TID 0000.0001)  MDS_WRITE_FIELD: it,rec,kS,kL,kH=      10     1  15   1  15 file=GM_Kwy-T.0000000010
(PID.TID 0000.0001)  MDS_WRITE_FIELD: it,rec,kS,kL,kH=      10     1  15   1  15 file=GM_Kwz-T.0000000010
(PID.TID 0000.0001)  MDS_WRITE_FIELD: it,rec,kS,kL,kH=      10     1   1   1   1 file=ETAN_forecast.0000000010
(PID.TID 0000.0001)  MDS_WRITE_FIELD: it,rec,kS,kL,kH=      10     1  15   1  15 file=THETA_forecast.0000000010
(PID.TID 0000.0001)  MDS_WRITE_FIELD: it,rec,kS,kL,kH=      10     1  15   1  15 file=SALT_forecast.0000000010
(PID.TID 0000.0001)  MDS_WRITE_FIELD: it,rec,kS,kL,kH=      10     1  15   1  15 file=UVEL_forecast.0000000010
(PID.TID 0000.0001)  MDS_WRITE_FIELD: it,rec,kS,kL,kH=      10     1  15   1  15 file=VVEL_forecast.0000000010
(PID.TID 0000.0001)  MDS_WRITE_FIELD: it,rec,kS,kL,kH=      10     1   1   1   1 file=ETAN_001_forecast.0000000010
(PID.TID 0000.0001)  MDS_WRITE_FIELD: it,rec,kS,kL,kH=      10     1  15   1  15 file=THETA_001_forecast.0000000010
(PID.TID 0000.0001)  MDS_WRITE_FIELD: it,rec,kS,kL,kH=      10     1  15   1  15 file=SALT_001_forecast.0000000010
(PID.TID 0000.0001)  MDS_WRITE_FIELD: it,rec,kS,kL,kH=      10     1  15   1  15 file=UVEL_001_forecast.0000000010
(PID.TID 0000.0001)  MDS_WRITE_FIELD: it,rec,kS,kL,kH=      10     1  15   1  15 file=VVEL_001_forecast.0000000010
(PID.TID 0000.0001)  MDS_WRITE_FIELD: it,rec,kS,kL,kH=      10     1   1   1   1 file=ETAN_002_forecast.0000000010
(PID.TID 0000.0001)  MDS_WRITE_FIELD: it,rec,kS,kL,kH=      10     1  15   1  15 file=THETA_002_forecast.0000000010
(PID.TID 0000.0001)  MDS_WRITE_FIELD: it,rec,kS,kL,kH=      10     1  15   1  15 file=SALT_002_forecast.0000000010
(PID.TID 0000.0001)  MDS_WRITE_FIELD: it,rec,kS,kL,kH=      10     1  15   1  15 file=UVEL_002_forecast.0000000010
(PID.TID 0000.0001)  MDS_WRITE_FIELD: it,rec,kS,kL,kH=      10     1  15   1  15 file=VVEL_002_forecast.0000000010
(PID.TID 0000.0001)  MDS_WRITE_FIELD: it,rec,kS,kL,kH=      10     1   1   1   1 file=ETAN_003_forecast.0000000010
(PID.TID 0000.0001)  MDS_WRITE_FIELD: it,rec,kS,kL,kH=      10     1  15   1  15 file=THETA_003_forecast.0000000010
(PID.TID 0000.0001)  MDS_WRITE_FIELD: it,rec,kS,kL,kH=      10     1  15   1  15 file=SALT_003_forecast.0000000010
(PID.TID 0000.0001)  MDS_WRITE_FIELD: it,rec,kS,kL,kH=      10     1  15   1  15 file=UVEL_003_forecast.0000000010
(PID.TID 0000.0001)  MDS_WRITE_FIELD: it,rec,kS,kL,kH=      10     1  15   1  15 file=VVEL_003_forecast.0000000010
(PID.TID 0000.0001)  MDS_WRITE_FIELD: it,rec,kS,kL,kH=      10     1   1   1   1 file=ETAN_004_forecast.0000000010
(PID.TID 0000.0001)  MDS_WRITE_FIELD: it,rec,kS,kL,kH=      10     1  15   1  15 file=THETA_004_forecast.0000000010
(PID.TID 0000.0001)  MDS_WRITE_FIELD: it,rec,kS,kL,kH=      10     1  15   1  15 file=SALT_004_forecast.0000000010
(PID.TID 0000.0001)  MDS_WRITE_FIELD: it,rec,kS,kL,kH=      10     1  15   1  15 file=UVEL_004_forecast.0000000010
(PID.TID 0000.0001)  MDS_WRITE_FIELD: it,rec,kS,kL,kH=      10     1  15   1  15 file=VVEL_004_forecast.0000000010
(PID.TID 0000.0001)  MDS_WRITE_FIELD: it,rec,kS,kL,kH=      10     1   1   1   1 file=ETAN_analysis.0000000010
(PID.TID 0000.0001)  MDS_WRITE_FIELD: it,rec,kS,kL,kH=      10     1  15   1  15 file=THETA_analysis.0000000010
(PID.TID 0000.0001)  MDS_WRITE_FIELD: it,rec,kS,kL,kH=      10     1  15   1  15 file=SALT_analysis.0000000010
(PID.TID 0000.0001)  MDS_WRITE_FIELD: it,rec,kS,kL,kH=      10     1  15   1  15 file=UVEL_analysis.0000000010
(PID.TID 0000.0001)  MDS_WRITE_FIELD: it,rec,kS,kL,kH=      10     1  15   1  15 file=VVEL_analysis.0000000010
(PID.TID 0000.0001)  MDS_WRITE_FIELD: it,rec,kS,kL,kH=      10     1   1   1   1 file=ETAN_001_analysis.0000000010
(PID.TID 0000.0001)  MDS_WRITE_FIELD: it,rec,kS,kL,kH=      10     1  15   1  15 file=THETA_001_analysis.0000000010
(PID.TID 0000.0001)  MDS_WRITE_FIELD: it,rec,kS,kL,kH=      10     1  15   1  15 file=SALT_001_analysis.0000000010
(PID.TID 0000.0001)  MDS_WRITE_FIELD: it,rec,kS,kL,kH=      10     1  15   1  15 file=UVEL_001_analysis.0000000010
(PID.TID 0000.0001)  MDS_WRITE_FIELD: it,rec,kS,kL,kH=      10     1  15   1  15 file=VVEL_001_analysis.0000000010
(PID.TID 0000.0001)  MDS_WRITE_FIELD: it,rec,kS,kL,kH=      10     1   1   1   1 file=ETAN_002_analysis.0000000010
(PID.TID 0000.0001)  MDS_WRITE_FIELD: it,rec,kS,kL,kH=      10     1  15   1  15 file=THETA_002_analysis.0000000010
(PID.TID 0000.0001)  MDS_WRITE_FIELD: it,rec,kS,kL,kH=      10     1  15   1  15 file=SALT_002_analysis.0000000010
(PID.TID 0000.0001)  MDS_WRITE_FIELD: it,rec,kS,kL,kH=      10     1  15   1  15 file=UVEL_002_analysis.0000000010
(PID.TID 0000.0001)  MDS_WRITE_FIELD: it,rec,kS,kL,kH=      10     1  15   1  15 file=VVEL_002_analysis.0000000010
(PID.TID 0000.0001)  MDS_WRITE_FIELD: it,rec,kS,kL,kH=      10     1   1   1   1 file=ETAN_003_analysis.0000000010
(PID.TID 0000.0001)  MDS_WRITE_FIELD: it,rec,kS,kL,kH=      10     1  15   1  15 file=THETA_003_analysis.0000000010
(PID.TID 0000.0001)  MDS_WRITE_FIELD: it,rec,kS,kL,kH=      10     1  15   1  15 file=SALT_003_analysis.0000000010
(PID.TID 0000.0001)  MDS_WRITE_FIELD: it,rec,kS,kL,kH=      10     1  15   1  15 file=UVEL_003_analysis.0000000010
(PID.TID 0000.0001)  MDS_WRITE_FIELD: it,rec,kS,kL,kH=      10     1  15   1  15 file=VVEL_003_analysis.0000000010
(PID.TID 0000.0001)  MDS_WRITE_FIELD: it,rec,kS,kL,kH=      10     1   1   1   1 file=ETAN_004_analysis.0000000010
(PID.TID 0000.0001)  MDS_WRITE_FIELD: it,rec,kS,kL,kH=      10     1  15   1  15 file=THETA_004_analysis.0000000010
(PID.TID 0000.0001)  MDS_WRITE_FIELD: it,rec,kS,kL,kH=      10     1  15   1  15 file=SALT_004_analysis.0000000010
(PID.TID 0000.0001)  MDS_WRITE_FIELD: it,rec,kS,kL,kH=      10     1  15   1  15 file=UVEL_004_analysis.0000000010
(PID.TID 0000.0001)  MDS_WRITE_FIELD: it,rec,kS,kL,kH=      10     1  15   1  15 file=VVEL_004_analysis.0000000010
 EXTERNAL_FIELDS_LOAD,        10 : iP,iLd,i0,i1=   12    1   12    1 ; Wght=  0.1666666667  0.8333333333
 EXTERNAL_FIELDS_LOAD: (fu0,1),fu,fv= -4.5368E-02 -3.5633E-02 -3.7255E-02 -5.9422E-02
 EXTERNAL_FIELDS_LOAD: SST,SSS,Q,E-P=  6.5667E-01  3.4598E+01  2.6555E+02  1.1372E-05
DEBUG_STATS_RL:          Uvel (THERMODYNAMICS)  min= -8.68971115694082E-02
DEBUG_STATS_RL:          Uvel (THERMODYNAMICS)  max=  1.72295522044533E-01
DEBUG_STATS_RL:          Uvel (THERMODYNAMICS) mean=  4.96897353775426E-03
DEBUG_STATS_RL:          Uvel (THERMODYNAMICS) S.D.=  2.06601259117057E-02
DEBUG_STATS_RL:          Vvel (THERMODYNAMICS)  min= -1.16467612349849E-01
DEBUG_STATS_RL:          Vvel (THERMODYNAMICS)  max=  9.78987917933128E-02
DEBUG_STATS_RL:          Vvel (THERMODYNAMICS) mean= -1.68850006927147E-03
DEBUG_STATS_RL:          Vvel (THERMODYNAMICS) S.D.=  1.53587085938677E-02
DEBUG_STATS_RL:          Wvel (THERMODYNAMICS)  min= -1.95137527027704E-04
DEBUG_STATS_RL:          Wvel (THERMODYNAMICS)  max=  2.17815521562621E-04
DEBUG_STATS_RL:          Wvel (THERMODYNAMICS) mean= -5.84265503849977E-07
DEBUG_STATS_RL:          Wvel (THERMODYNAMICS) S.D.=  2.07598753425704E-05
DEBUG_STATS_RL:         Theta (THERMODYNAMICS)  min= -1.91133081411588E+00
DEBUG_STATS_RL:         Theta (THERMODYNAMICS)  max=  2.96661270547576E+01
DEBUG_STATS_RL:         Theta (THERMODYNAMICS) mean=  3.20315754644309E+00
DEBUG_STATS_RL:         Theta (THERMODYNAMICS) S.D.=  5.84999880250641E+00
DEBUG_STATS_RL:          Salt (THERMODYNAMICS)  min= -7.83495430699523E-04
DEBUG_STATS_RL:          Salt (THERMODYNAMICS)  max=  3.74345501492919E+01
DEBUG_STATS_RL:          Salt (THERMODYNAMICS) mean=  1.88443722528146E+01
DEBUG_STATS_RL:          Salt (THERMODYNAMICS) S.D.=  1.73006316627580E+01
DEBUG_STATS_RL:         GtNm1 (THERMODYNAMICS)  min= -3.40218172835437E-06
DEBUG_STATS_RL:         GtNm1 (THERMODYNAMICS)  max=  2.51777066549778E-06
DEBUG_STATS_RL:         GtNm1 (THERMODYNAMICS) mean=  2.10696420425015E-08
DEBUG_STATS_RL:         GtNm1 (THERMODYNAMICS) S.D.=  2.46421284001887E-07
DEBUG_STATS_RL:         GsNm1 (THERMODYNAMICS)  min= -4.35173760062494E-07
DEBUG_STATS_RL:         GsNm1 (THERMODYNAMICS)  max=  7.22622981235061E-07
DEBUG_STATS_RL:         GsNm1 (THERMODYNAMICS) mean=  3.08435169284962E-10
DEBUG_STATS_RL:         GsNm1 (THERMODYNAMICS) S.D.=  2.12886742521219E-08
DEBUG_STATS_RL:                EtaN (DYNAMICS)  min= -1.40443363311083E+00
DEBUG_STATS_RL:                EtaN (DYNAMICS)  max=  7.66644897254144E-01
DEBUG_STATS_RL:                EtaN (DYNAMICS) mean= -1.52578543791519E-01
DEBUG_STATS_RL:                EtaN (DYNAMICS) S.D.=  5.92636625919322E-01
DEBUG_STATS_RL:                Uvel (DYNAMICS)  min= -8.68971115694082E-02
DEBUG_STATS_RL:                Uvel (DYNAMICS)  max=  1.72295522044533E-01
DEBUG_STATS_RL:                Uvel (DYNAMICS) mean=  4.96897353775426E-03
DEBUG_STATS_RL:                Uvel (DYNAMICS) S.D.=  2.06601259117057E-02
DEBUG_STATS_RL:                Vvel (DYNAMICS)  min= -1.16467612349849E-01
DEBUG_STATS_RL:                Vvel (DYNAMICS)  max=  9.78987917933128E-02
DEBUG_STATS_RL:                Vvel (DYNAMICS) mean= -1.68850006927147E-03
DEBUG_STATS_RL:                Vvel (DYNAMICS) S.D.=  1.53587085938677E-02
DEBUG_STATS_RL:                Wvel (DYNAMICS)  min= -1.95137527027704E-04
DEBUG_STATS_RL:                Wvel (DYNAMICS)  max=  2.17815521562621E-04
DEBUG_STATS_RL:                Wvel (DYNAMICS) mean= -5.84265503849977E-07
DEBUG_STATS_RL:                Wvel (DYNAMICS) S.D.=  2.07598753425704E-05
DEBUG_STATS_RL:               Theta (DYNAMICS)  min= -1.91133081411588E+00
DEBUG_STATS_RL:               Theta (DYNAMICS)  max=  2.96661270547576E+01
DEBUG_STATS_RL:               Theta (DYNAMICS) mean=  3.20315754644309E+00
DEBUG_STATS_RL:               Theta (DYNAMICS) S.D.=  5.84999880250641E+00
DEBUG_STATS_RL:                Salt (DYNAMICS)  min= -7.83495430699523E-04
DEBUG_STATS_RL:                Salt (DYNAMICS)  max=  3.74345501492919E+01
DEBUG_STATS_RL:                Salt (DYNAMICS) mean=  1.88443722528146E+01
DEBUG_STATS_RL:                Salt (DYNAMICS) S.D.=  1.73006316627580E+01
DEBUG_STATS_RL:                  Gu (DYNAMICS)  min= -8.73981744448027E-02
DEBUG_STATS_RL:                  Gu (DYNAMICS)  max=  1.78704027535530E-01
DEBUG_STATS_RL:                  Gu (DYNAMICS) mean=  5.38869788834951E-03
DEBUG_STATS_RL:                  Gu (DYNAMICS) S.D.=  2.24492124181862E-02
DEBUG_STATS_RL:                  Gv (DYNAMICS)  min= -9.23423767320323E-02
DEBUG_STATS_RL:                  Gv (DYNAMICS)  max=  1.02994520782642E-01
DEBUG_STATS_RL:                  Gv (DYNAMICS) mean=  6.03562426839080E-04
DEBUG_STATS_RL:                  Gv (DYNAMICS) S.D.=  1.43353926220684E-02
DEBUG_STATS_RL:               GuNm1 (DYNAMICS)  min= -6.54472381735268E-06
DEBUG_STATS_RL:               GuNm1 (DYNAMICS)  max=  6.94467727219541E-06
DEBUG_STATS_RL:               GuNm1 (DYNAMICS) mean= -2.52609376500278E-08
DEBUG_STATS_RL:               GuNm1 (DYNAMICS) S.D.=  1.12916046307074E-06
DEBUG_STATS_RL:               GvNm1 (DYNAMICS)  min= -9.29642718863929E-06
DEBUG_STATS_RL:               GvNm1 (DYNAMICS)  max=  1.65374393587285E-05
DEBUG_STATS_RL:               GvNm1 (DYNAMICS) mean=  7.75420426730302E-07
DEBUG_STATS_RL:               GvNm1 (DYNAMICS) S.D.=  2.62967195839982E-06
DEBUG_STATS_RL:               GtNm1 (DYNAMICS)  min= -3.40218172835437E-06
DEBUG_STATS_RL:               GtNm1 (DYNAMICS)  max=  2.51777066549778E-06
DEBUG_STATS_RL:               GtNm1 (DYNAMICS) mean=  2.10696420425015E-08
DEBUG_STATS_RL:               GtNm1 (DYNAMICS) S.D.=  2.46421284001887E-07
DEBUG_STATS_RL:               GsNm1 (DYNAMICS)  min= -4.35173760062494E-07
DEBUG_STATS_RL:               GsNm1 (DYNAMICS)  max=  7.22622981235061E-07
DEBUG_STATS_RL:               GsNm1 (DYNAMICS) mean=  3.08435169284962E-10
DEBUG_STATS_RL:               GsNm1 (DYNAMICS) S.D.=  2.12886742521219E-08
DEBUG_STATS_RL:    cg2d_b (SOLVE_FOR_PRESSURE)  min= -1.62249132908261E+04
DEBUG_STATS_RL:    cg2d_b (SOLVE_FOR_PRESSURE)  max=  1.41671121211188E+04
DEBUG_STATS_RL:    cg2d_b (SOLVE_FOR_PRESSURE) mean=  7.25618294216649E-01
DEBUG_STATS_RL:    cg2d_b (SOLVE_FOR_PRESSURE) S.D.=  3.29100610102752E+03
 cg2d: Sum(rhs),rhsMax =   1.03532531792366E-01  1.06569574594147E+00
(PID.TID 0000.0001)  cg2d: iter=     1 ; resid.=  2.67621929069031E-01
(PID.TID 0000.0001)  cg2d: iter=     2 ; resid.=  2.70769981962987E-01
(PID.TID 0000.0001)  cg2d: iter=     3 ; resid.=  3.30784359981946E-01
(PID.TID 0000.0001)  cg2d: iter=     4 ; resid.=  2.86063229684749E-01
(PID.TID 0000.0001)  cg2d: iter=     5 ; resid.=  2.39206962327093E-01
(PID.TID 0000.0001)  cg2d: iter=     6 ; resid.=  1.90845615096179E-01
(PID.TID 0000.0001)  cg2d: iter=     7 ; resid.=  1.40384496752247E-01
(PID.TID 0000.0001)  cg2d: iter=     8 ; resid.=  1.06058439979552E-01
(PID.TID 0000.0001)  cg2d: iter=     9 ; resid.=  8.75536103255911E-02
(PID.TID 0000.0001)  cg2d: iter=    10 ; resid.=  7.52527677460814E-02
(PID.TID 0000.0001)  cg2d: iter=    11 ; resid.=  6.92770743139209E-02
(PID.TID 0000.0001)  cg2d: iter=    12 ; resid.=  6.46102272201894E-02
(PID.TID 0000.0001)  cg2d: iter=    13 ; resid.=  5.66570921298928E-02
(PID.TID 0000.0001)  cg2d: iter=    14 ; resid.=  4.67001007690045E-02
(PID.TID 0000.0001)  cg2d: iter=    15 ; resid.=  3.88844243735004E-02
(PID.TID 0000.0001)  cg2d: iter=    16 ; resid.=  3.25364155184485E-02
(PID.TID 0000.0001)  cg2d: iter=    17 ; resid.=  2.75778386357796E-02
(PID.TID 0000.0001)  cg2d: iter=    18 ; resid.=  2.29344020778572E-02
(PID.TID 0000.0001)  cg2d: iter=    19 ; resid.=  1.86901052945052E-02
(PID.TID 0000.0001)  cg2d: iter=    20 ; resid.=  1.58103963271104E-02
(PID.TID 0000.0001)  cg2d: iter=    21 ; resid.=  1.27746263001247E-02
(PID.TID 0000.0001)  cg2d: iter=    22 ; resid.=  1.09998834987749E-02
(PID.TID 0000.0001)  cg2d: iter=    23 ; resid.=  9.55182493574490E-03
(PID.TID 0000.0001)  cg2d: iter=    24 ; resid.=  8.30373449865214E-03
(PID.TID 0000.0001)  cg2d: iter=    25 ; resid.=  6.68457373230760E-03
(PID.TID 0000.0001)  cg2d: iter=    26 ; resid.=  5.50353655928199E-03
(PID.TID 0000.0001)  cg2d: iter=    27 ; resid.=  5.08838861253583E-03
(PID.TID 0000.0001)  cg2d: iter=    28 ; resid.=  4.12857405327865E-03
(PID.TID 0000.0001)  cg2d: iter=    29 ; resid.=  2.86565152960144E-03
(PID.TID 0000.0001)  cg2d: iter=    30 ; resid.=  2.27437326146093E-03
(PID.TID 0000.0001)  cg2d: iter=    31 ; resid.=  2.01528683102676E-03
(PID.TID 0000.0001)  cg2d: iter=    32 ; resid.=  1.62974006135020E-03
(PID.TID 0000.0001)  cg2d: iter=    33 ; resid.=  1.36133709274744E-03
(PID.TID 0000.0001)  cg2d: iter=    34 ; resid.=  1.14218427955152E-03
(PID.TID 0000.0001)  cg2d: iter=    35 ; resid.=  9.82283409263514E-04
(PID.TID 0000.0001)  cg2d: iter=    36 ; resid.=  8.66728269494433E-04
(PID.TID 0000.0001)  cg2d: iter=    37 ; resid.=  7.96116079672761E-04
(PID.TID 0000.0001)  cg2d: iter=    38 ; resid.=  7.48202183799302E-04
(PID.TID 0000.0001)  cg2d: iter=    39 ; resid.=  6.11469363783122E-04
(PID.TID 0000.0001)  cg2d: iter=    40 ; resid.=  4.61681093817285E-04
(PID.TID 0000.0001)  cg2d: iter=    41 ; resid.=  3.67916504588027E-04
(PID.TID 0000.0001)  cg2d: iter=    42 ; resid.=  3.47328358031041E-04
(PID.TID 0000.0001)  cg2d: iter=    43 ; resid.=  2.92643536659104E-04
(PID.TID 0000.0001)  cg2d: iter=    44 ; resid.=  2.06013664067725E-04
(PID.TID 0000.0001)  cg2d: iter=    45 ; resid.=  1.48901887352878E-04
(PID.TID 0000.0001)  cg2d: iter=    46 ; resid.=  1.14726595480657E-04
(PID.TID 0000.0001)  cg2d: iter=    47 ; resid.=  9.57636871998106E-05
(PID.TID 0000.0001)  cg2d: iter=    48 ; resid.=  8.32770548657800E-05
(PID.TID 0000.0001)  cg2d: iter=    49 ; resid.=  6.67068478911520E-05
(PID.TID 0000.0001)  cg2d: iter=    50 ; resid.=  5.31976694718341E-05
(PID.TID 0000.0001)  cg2d: iter=    51 ; resid.=  4.69993563467640E-05
(PID.TID 0000.0001)  cg2d: iter=    52 ; resid.=  4.03013933601049E-05
(PID.TID 0000.0001)  cg2d: iter=    53 ; resid.=  3.18288789635391E-05
(PID.TID 0000.0001)  cg2d: iter=    54 ; resid.=  2.66139572911714E-05
(PID.TID 0000.0001)  cg2d: iter=    55 ; resid.=  2.32715125372731E-05
(PID.TID 0000.0001)  cg2d: iter=    56 ; resid.=  2.00392783874276E-05
(PID.TID 0000.0001)  cg2d: iter=    57 ; resid.=  1.60920986467107E-05
(PID.TID 0000.0001)  cg2d: iter=    58 ; resid.=  1.28794928519079E-05
(PID.TID 0000.0001)  cg2d: iter=    59 ; resid.=  1.03525717264797E-05
(PID.TID 0000.0001)  cg2d: iter=    60 ; resid.=  8.91470749594912E-06
(PID.TID 0000.0001)  cg2d: iter=    61 ; resid.=  7.72759066594812E-06
(PID.TID 0000.0001)  cg2d: iter=    62 ; resid.=  6.28166742254362E-06
(PID.TID 0000.0001)  cg2d: iter=    63 ; resid.=  5.19971165547401E-06
(PID.TID 0000.0001)  cg2d: iter=    64 ; resid.=  4.41867033257221E-06
(PID.TID 0000.0001)  cg2d: iter=    65 ; resid.=  3.37143086422044E-06
(PID.TID 0000.0001)  cg2d: iter=    66 ; resid.=  2.47507325014906E-06
(PID.TID 0000.0001)  cg2d: iter=    67 ; resid.=  1.94359060433677E-06
(PID.TID 0000.0001)  cg2d: iter=    68 ; resid.=  1.64243138787194E-06
(PID.TID 0000.0001)  cg2d: iter=    69 ; resid.=  1.30880927030996E-06
(PID.TID 0000.0001)  cg2d: iter=    70 ; resid.=  1.10391812234753E-06
(PID.TID 0000.0001)  cg2d: iter=    71 ; resid.=  9.25952084350152E-07
(PID.TID 0000.0001)  cg2d: iter=    72 ; resid.=  8.53328092668521E-07
(PID.TID 0000.0001)  cg2d: iter=    73 ; resid.=  7.73056865170224E-07
(PID.TID 0000.0001)  cg2d: iter=    74 ; resid.=  6.49821573011036E-07
(PID.TID 0000.0001)  cg2d: iter=    75 ; resid.=  4.81100843355027E-07
(PID.TID 0000.0001)  cg2d: iter=    76 ; resid.=  4.02743422239415E-07
(PID.TID 0000.0001)  cg2d: iter=    77 ; resid.=  3.41415458162277E-07
(PID.TID 0000.0001)  cg2d: iter=    78 ; resid.=  2.92973373378613E-07
(PID.TID 0000.0001)  cg2d: iter=    79 ; resid.=  2.45039061879860E-07
(PID.TID 0000.0001)  cg2d: iter=    80 ; resid.=  1.82921634595573E-07
(PID.TID 0000.0001)  cg2d: iter=    81 ; resid.=  1.39678179097531E-07
(PID.TID 0000.0001)  cg2d: iter=    82 ; resid.=  1.00612612914616E-07
(PID.TID 0000.0001)  cg2d: iter=    83 ; resid.=  7.55444671281618E-08
(PID.TID 0000.0001)  cg2d: iter=    84 ; resid.=  6.47461988993788E-08
(PID.TID 0000.0001)  cg2d: iter=    85 ; resid.=  5.16075271805535E-08
(PID.TID 0000.0001)  cg2d: iter=    86 ; resid.=  4.07477523894209E-08
(PID.TID 0000.0001)  cg2d: iter=    87 ; resid.=  3.35109613196796E-08
(PID.TID 0000.0001)  cg2d: iter=    88 ; resid.=  2.60904248011996E-08
(PID.TID 0000.0001)  cg2d: iter=    89 ; resid.=  2.07614690768864E-08
(PID.TID 0000.0001)  cg2d: iter=    90 ; resid.=  1.60273259208967E-08
(PID.TID 0000.0001)  cg2d: iter=    91 ; resid.=  1.10688900402089E-08
(PID.TID 0000.0001)  cg2d: iter=    92 ; resid.=  7.79821460928451E-09
(PID.TID 0000.0001)  cg2d: iter=    93 ; resid.=  5.77585504696013E-09
(PID.TID 0000.0001)  cg2d: iter=    94 ; resid.=  4.64040613257581E-09
(PID.TID 0000.0001)  cg2d: iter=    95 ; resid.=  3.70513950118928E-09
(PID.TID 0000.0001)  cg2d: iter=    96 ; resid.=  2.79803821123318E-09
(PID.TID 0000.0001)  cg2d: iter=    97 ; resid.=  2.04907659905248E-09
(PID.TID 0000.0001)  cg2d: iter=    98 ; resid.=  1.61695139592557E-09
(PID.TID 0000.0001)  cg2d: iter=    99 ; resid.=  1.31280400766278E-09
(PID.TID 0000.0001)  cg2d: iter=   100 ; resid.=  1.10885340253261E-09
(PID.TID 0000.0001)  cg2d: iter=   101 ; resid.=  8.88267281984941E-10
(PID.TID 0000.0001)  cg2d: iter=   102 ; resid.=  6.79375953027551E-10
(PID.TID 0000.0001)  cg2d: iter=   103 ; resid.=  5.76444814113425E-10
(PID.TID 0000.0001)  cg2d: iter=   104 ; resid.=  4.81839201953115E-10
(PID.TID 0000.0001)  cg2d: iter=   105 ; resid.=  3.87075193664336E-10
(PID.TID 0000.0001)  cg2d: iter=   106 ; resid.=  3.22892952848123E-10
(PID.TID 0000.0001)  cg2d: iter=   107 ; resid.=  2.65475530002623E-10
(PID.TID 0000.0001)  cg2d: iter=   108 ; resid.=  2.06339448834200E-10
(PID.TID 0000.0001)  cg2d: iter=   109 ; resid.=  1.68455702352059E-10
(PID.TID 0000.0001)  cg2d: iter=   110 ; resid.=  1.37713320192403E-10
(PID.TID 0000.0001)  cg2d: iter=   111 ; resid.=  1.17222890439823E-10
(PID.TID 0000.0001)  cg2d: iter=   112 ; resid.=  1.02387449959839E-10
(PID.TID 0000.0001)  cg2d: iter=   113 ; resid.=  7.22458856762480E-11
(PID.TID 0000.0001)  cg2d: iter=   114 ; resid.=  5.28394127173024E-11
(PID.TID 0000.0001)  cg2d: iter=   115 ; resid.=  4.41430668379425E-11
(PID.TID 0000.0001)  cg2d: iter=   116 ; resid.=  3.74219723042248E-11
(PID.TID 0000.0001)  cg2d: iter=   117 ; resid.=  2.78684942133380E-11
(PID.TID 0000.0001)  cg2d: iter=   118 ; resid.=  2.14063864385360E-11
(PID.TID 0000.0001)  cg2d: iter=   119 ; resid.=  1.68164974274507E-11
(PID.TID 0000.0001)  cg2d: iter=   120 ; resid.=  1.26564045093653E-11
(PID.TID 0000.0001)  cg2d: iter=   121 ; resid.=  9.14279993776544E-12
(PID.TID 0000.0001)  cg2d: iter=   122 ; resid.=  6.60713781703377E-12
(PID.TID 0000.0001)  cg2d: iter=   123 ; resid.=  5.36227941341710E-12
(PID.TID 0000.0001)  cg2d: iter=   124 ; resid.=  3.98286053232360E-12
(PID.TID 0000.0001)  cg2d: iter=   125 ; resid.=  3.03724287181011E-12
(PID.TID 0000.0001)  cg2d: iter=   126 ; resid.=  2.19494862205486E-12
(PID.TID 0000.0001)  cg2d: iter=   127 ; resid.=  1.38345157028532E-12
(PID.TID 0000.0001)  cg2d: iter=   128 ; resid.=  9.59784775282959E-13
(PID.TID 0000.0001)  cg2d: iter=   129 ; resid.=  8.07812692408864E-13
(PID.TID 0000.0001)  cg2d: iter=   130 ; resid.=  6.87214917873022E-13
(PID.TID 0000.0001)  cg2d: iter=   131 ; resid.=  5.48706692504818E-13
(PID.TID 0000.0001)  cg2d: iter=   132 ; resid.=  4.49836598532956E-13
(PID.TID 0000.0001)  cg2d: iter=   133 ; resid.=  3.27368385420951E-13
(PID.TID 0000.0001)  cg2d: iter=   134 ; resid.=  2.31623115254729E-13
(PID.TID 0000.0001)  cg2d: iter=   135 ; resid.=  1.67848552295038E-13
(PID.TID 0000.0001)  cg2d: iter=   136 ; resid.=  1.24083040617389E-13
(PID.TID 0000.0001)  cg2d: iter=   137 ; resid.=  9.55590769892726E-14
DEBUG_STATS_RL:    cg2d_x (SOLVE_FOR_PRESSURE)  min= -1.33024329610353E+01
DEBUG_STATS_RL:    cg2d_x (SOLVE_FOR_PRESSURE)  max=  7.71120766594005E+00
DEBUG_STATS_RL:    cg2d_x (SOLVE_FOR_PRESSURE) mean= -1.49643568550027E+00
DEBUG_STATS_RL:    cg2d_x (SOLVE_FOR_PRESSURE) S.D.=  5.83133316126334E+00
(PID.TID 0000.0001)      cg2d_init_res =   9.35739989759622E-01
(PID.TID 0000.0001)      cg2d_iters(min,last) =      -1     137
(PID.TID 0000.0001)      cg2d_last_res =   9.55590769892726E-14
(PID.TID 0000.0001) // =======================================================
(PID.TID 0000.0001) // Begin MONITOR dynamic field statistics
(PID.TID 0000.0001) // =======================================================
(PID.TID 0000.0001) %MON time_tsnumber                =                    11
(PID.TID 0000.0001) %MON time_secondsf                =   9.5040000000000E+05
(PID.TID 0000.0001) %MON dynstat_eta_max              =   7.8605582731295E-01
(PID.TID 0000.0001) %MON dynstat_eta_min              =  -1.3560074374145E+00
(PID.TID 0000.0001) %MON dynstat_eta_mean             =  -7.5709271631694E-04
(PID.TID 0000.0001) %MON dynstat_eta_sd               =   5.2684152429020E-01
(PID.TID 0000.0001) %MON dynstat_eta_del2             =   1.7803996929434E-03
(PID.TID 0000.0001) %MON dynstat_uvel_max             =   1.8043949147543E-01
(PID.TID 0000.0001) %MON dynstat_uvel_min             =  -9.1791741539953E-02
(PID.TID 0000.0001) %MON dynstat_uvel_mean            =   3.3983640525320E-04
(PID.TID 0000.0001) %MON dynstat_uvel_sd              =   1.3289043348590E-02
(PID.TID 0000.0001) %MON dynstat_uvel_del2            =   8.7823443200151E-05
(PID.TID 0000.0001) %MON dynstat_vvel_max             =   9.9608845759868E-02
(PID.TID 0000.0001) %MON dynstat_vvel_min             =  -1.1218177652802E-01
(PID.TID 0000.0001) %MON dynstat_vvel_mean            =  -1.9261005968842E-04
(PID.TID 0000.0001) %MON dynstat_vvel_sd              =   1.0004264123336E-02
(PID.TID 0000.0001) %MON dynstat_vvel_del2            =   9.9991357363608E-05
(PID.TID 0000.0001) %MON dynstat_wvel_max             =   2.0665903048175E-04
(PID.TID 0000.0001) %MON dynstat_wvel_min             =  -1.8722516481493E-04
(PID.TID 0000.0001) %MON dynstat_wvel_mean            =  -1.1143216836853E-11
(PID.TID 0000.0001) %MON dynstat_wvel_sd              =   2.1321674701434E-05
(PID.TID 0000.0001) %MON dynstat_wvel_del2            =   2.3295919821285E-07
(PID.TID 0000.0001) %MON dynstat_theta_max            =   2.9666127054758E+01
(PID.TID 0000.0001) %MON dynstat_theta_min            =  -1.9113308141159E+00
(PID.TID 0000.0001) %MON dynstat_theta_mean           =   3.6185187899969E+00
(PID.TID 0000.0001) %MON dynstat_theta_sd             =   4.4142258099108E+00
(PID.TID 0000.0001) %MON dynstat_theta_del2           =   5.0011993434875E-03
(PID.TID 0000.0001) %MON dynstat_salt_max             =   3.7434550149292E+01
(PID.TID 0000.0001) %MON dynstat_salt_min             =   2.9747666644070E+01
(PID.TID 0000.0001) %MON dynstat_salt_mean            =   3.4717184568543E+01
(PID.TID 0000.0001) %MON dynstat_salt_sd              =   2.9615394225951E-01
(PID.TID 0000.0001) %MON dynstat_salt_del2            =   1.0061729094973E-03
(PID.TID 0000.0001) %MON dynstat_sst_max              =   2.9666127054758E+01
(PID.TID 0000.0001) %MON dynstat_sst_min              =  -1.9113308141159E+00
(PID.TID 0000.0001) %MON dynstat_sst_mean             =   1.8586892400231E+01
(PID.TID 0000.0001) %MON dynstat_sst_sd               =   9.0819123302734E+00
(PID.TID 0000.0001) %MON dynstat_sst_del2             =   2.5508103839949E-02
(PID.TID 0000.0001) %MON dynstat_sss_max              =   3.7431755543878E+01
(PID.TID 0000.0001) %MON dynstat_sss_min              =   2.9747666644070E+01
(PID.TID 0000.0001) %MON dynstat_sss_mean             =   3.4853468830470E+01
(PID.TID 0000.0001) %MON dynstat_sss_sd               =   9.6768932648294E-01
(PID.TID 0000.0001) %MON dynstat_sss_del2             =   7.9294231526043E-03
(PID.TID 0000.0001) %MON forcing_qnet_max             =   4.3637268066406E+02
(PID.TID 0000.0001) %MON forcing_qnet_min             =  -1.8235535939535E+02
(PID.TID 0000.0001) %MON forcing_qnet_mean            =  -1.6575085780159E+01
(PID.TID 0000.0001) %MON forcing_qnet_sd              =   1.1080111313050E+02
(PID.TID 0000.0001) %MON forcing_qnet_del2            =   1.0090595771019E+00
(PID.TID 0000.0001) %MON forcing_qsw_max              =   0.0000000000000E+00
(PID.TID 0000.0001) %MON forcing_qsw_min              =   0.0000000000000E+00
(PID.TID 0000.0001) %MON forcing_qsw_mean             =   0.0000000000000E+00
(PID.TID 0000.0001) %MON forcing_qsw_sd               =   0.0000000000000E+00
(PID.TID 0000.0001) %MON forcing_qsw_del2             =   0.0000000000000E+00
(PID.TID 0000.0001) %MON forcing_empmr_max            =   8.1894273288678E-05
(PID.TID 0000.0001) %MON forcing_empmr_min            =  -7.3480514117819E-05
(PID.TID 0000.0001) %MON forcing_empmr_mean           =   8.7408827338311E-07
(PID.TID 0000.0001) %MON forcing_empmr_sd             =   2.8361319601892E-05
(PID.TID 0000.0001) %MON forcing_empmr_del2           =   3.6367323918582E-07
(PID.TID 0000.0001) %MON forcing_fu_max               =   2.7009907364845E-01
(PID.TID 0000.0001) %MON forcing_fu_min               =  -1.6681347042322E-01
(PID.TID 0000.0001) %MON forcing_fu_mean              =   1.6040199257752E-02
(PID.TID 0000.0001) %MON forcing_fu_sd                =   9.0490139077950E-02
(PID.TID 0000.0001) %MON forcing_fu_del2              =   6.8923424175348E-04
(PID.TID 0000.0001) %MON forcing_fv_max               =   2.2372179478407E-01
(PID.TID 0000.0001) %MON forcing_fv_min               =  -1.8106018751860E-01
(PID.TID 0000.0001) %MON forcing_fv_mean              =  -5.6277103738091E-03
(PID.TID 0000.0001) %MON forcing_fv_sd                =   4.6864764071854E-02
(PID.TID 0000.0001) %MON forcing_fv_del2              =   4.6941931464937E-04
(PID.TID 0000.0001) %MON trAdv_CFL_u_max              =   5.0045852817746E-02
(PID.TID 0000.0001) %MON trAdv_CFL_v_max              =   2.1907405892010E-02
(PID.TID 0000.0001) %MON trAdv_CFL_w_max              =   6.8762908842747E-02
(PID.TID 0000.0001) %MON advcfl_uvel_max              =   5.2329173584925E-02
(PID.TID 0000.0001) %MON advcfl_vvel_max              =   2.1795120000007E-02
(PID.TID 0000.0001) %MON advcfl_wvel_max              =   7.1839100890377E-02
(PID.TID 0000.0001) %MON advcfl_W_hf_max              =   8.1291614165426E-02
(PID.TID 0000.0001) %MON pe_b_mean                    =   3.5517475719864E-04
(PID.TID 0000.0001) %MON ke_max                       =   1.6158345722469E-02
(PID.TID 0000.0001) %MON ke_mean                      =   1.2523325226575E-04
(PID.TID 0000.0001) %MON ke_vol                       =   1.3226782436723E+18
(PID.TID 0000.0001) %MON vort_r_min                   =  -3.9540357398540E-07
(PID.TID 0000.0001) %MON vort_r_max                   =   3.1380771205037E-07
(PID.TID 0000.0001) %MON vort_a_mean                  =  -2.5274807231558E-05
(PID.TID 0000.0001) %MON vort_a_sd                    =   7.3604374735875E-05
(PID.TID 0000.0001) %MON vort_p_mean                  =  -3.1845655590451E-05
(PID.TID 0000.0001) %MON vort_p_sd                    =   1.3162402864179E-04
(PID.TID 0000.0001) %MON surfExpan_theta_mean         =   1.7114026073502E-07
(PID.TID 0000.0001) %MON surfExpan_salt_mean          =  -8.2167421253361E-08
(PID.TID 0000.0001) // =======================================================
(PID.TID 0000.0001) // End MONITOR dynamic field statistics
(PID.TID 0000.0001) // =======================================================
 EXTERNAL_FIELDS_LOAD,        11 : iP,iLd,i0,i1=   12    1   12    1 ; Wght=  0.1333333333  0.8666666667
 EXTERNAL_FIELDS_LOAD: (fu0,1),fu,fv= -4.5368E-02 -3.5633E-02 -3.6931E-02 -5.8989E-02
 EXTERNAL_FIELDS_LOAD: SST,SSS,Q,E-P=  7.1702E-01  3.4621E+01  2.6559E+02  1.1425E-05
DEBUG_STATS_RL:          Uvel (THERMODYNAMICS)  min= -9.17917415399530E-02
DEBUG_STATS_RL:          Uvel (THERMODYNAMICS)  max=  1.80439491475428E-01
DEBUG_STATS_RL:          Uvel (THERMODYNAMICS) mean=  5.54741591817163E-03
DEBUG_STATS_RL:          Uvel (THERMODYNAMICS) S.D.=  2.23457994933605E-02
DEBUG_STATS_RL:          Vvel (THERMODYNAMICS)  min= -1.12181776528019E-01
DEBUG_STATS_RL:          Vvel (THERMODYNAMICS)  max=  9.96088457598684E-02
DEBUG_STATS_RL:          Vvel (THERMODYNAMICS) mean= -1.32017413994584E-03
DEBUG_STATS_RL:          Vvel (THERMODYNAMICS) S.D.=  1.49827145619173E-02
DEBUG_STATS_RL:          Wvel (THERMODYNAMICS)  min= -1.87225164814934E-04
DEBUG_STATS_RL:          Wvel (THERMODYNAMICS)  max=  2.06659030481746E-04
DEBUG_STATS_RL:          Wvel (THERMODYNAMICS) mean= -4.99967091533352E-07
DEBUG_STATS_RL:          Wvel (THERMODYNAMICS) S.D.=  1.90876042668385E-05
DEBUG_STATS_RL:         Theta (THERMODYNAMICS)  min= -1.91140015804424E+00
DEBUG_STATS_RL:         Theta (THERMODYNAMICS)  max=  2.96672436262430E+01
DEBUG_STATS_RL:         Theta (THERMODYNAMICS) mean=  3.20393861197660E+00
DEBUG_STATS_RL:         Theta (THERMODYNAMICS) S.D.=  5.85065127248364E+00
DEBUG_STATS_RL:          Salt (THERMODYNAMICS)  min= -7.83495430699523E-04
DEBUG_STATS_RL:          Salt (THERMODYNAMICS)  max=  3.74352788559538E+01
DEBUG_STATS_RL:          Salt (THERMODYNAMICS) mean=  1.88443860027134E+01
DEBUG_STATS_RL:          Salt (THERMODYNAMICS) S.D.=  1.73006453701350E+01
DEBUG_STATS_RL:         GtNm1 (THERMODYNAMICS)  min= -3.18860666591658E-06
DEBUG_STATS_RL:         GtNm1 (THERMODYNAMICS)  max=  2.56329798904949E-06
DEBUG_STATS_RL:         GtNm1 (THERMODYNAMICS) mean=  1.91909415727956E-08
DEBUG_STATS_RL:         GtNm1 (THERMODYNAMICS) S.D.=  2.42679471264946E-07
DEBUG_STATS_RL:         GsNm1 (THERMODYNAMICS)  min= -4.64814599254610E-07
DEBUG_STATS_RL:         GsNm1 (THERMODYNAMICS)  max=  5.49350125704098E-07
DEBUG_STATS_RL:         GsNm1 (THERMODYNAMICS) mean=  2.94821211704354E-10
DEBUG_STATS_RL:         GsNm1 (THERMODYNAMICS) S.D.=  2.07948254226173E-08
DEBUG_STATS_RL:                EtaN (DYNAMICS)  min= -1.35600743741448E+00
DEBUG_STATS_RL:                EtaN (DYNAMICS)  max=  7.86055827312949E-01
DEBUG_STATS_RL:                EtaN (DYNAMICS) mean= -1.52541863965371E-01
DEBUG_STATS_RL:                EtaN (DYNAMICS) S.D.=  5.94427437437652E-01
DEBUG_STATS_RL:                Uvel (DYNAMICS)  min= -9.17917415399530E-02
DEBUG_STATS_RL:                Uvel (DYNAMICS)  max=  1.80439491475428E-01
DEBUG_STATS_RL:                Uvel (DYNAMICS) mean=  5.54741591817163E-03
DEBUG_STATS_RL:                Uvel (DYNAMICS) S.D.=  2.23457994933605E-02
DEBUG_STATS_RL:                Vvel (DYNAMICS)  min= -1.12181776528019E-01
DEBUG_STATS_RL:                Vvel (DYNAMICS)  max=  9.96088457598684E-02
DEBUG_STATS_RL:                Vvel (DYNAMICS) mean= -1.32017413994584E-03
DEBUG_STATS_RL:                Vvel (DYNAMICS) S.D.=  1.49827145619173E-02
DEBUG_STATS_RL:                Wvel (DYNAMICS)  min= -1.87225164814934E-04
DEBUG_STATS_RL:                Wvel (DYNAMICS)  max=  2.06659030481746E-04
DEBUG_STATS_RL:                Wvel (DYNAMICS) mean= -4.99967091533352E-07
DEBUG_STATS_RL:                Wvel (DYNAMICS) S.D.=  1.90876042668385E-05
DEBUG_STATS_RL:               Theta (DYNAMICS)  min= -1.91140015804424E+00
DEBUG_STATS_RL:               Theta (DYNAMICS)  max=  2.96672436262430E+01
DEBUG_STATS_RL:               Theta (DYNAMICS) mean=  3.20393861197660E+00
DEBUG_STATS_RL:               Theta (DYNAMICS) S.D.=  5.85065127248364E+00
DEBUG_STATS_RL:                Salt (DYNAMICS)  min= -7.83495430699523E-04
DEBUG_STATS_RL:                Salt (DYNAMICS)  max=  3.74352788559538E+01
DEBUG_STATS_RL:                Salt (DYNAMICS) mean=  1.88443860027134E+01
DEBUG_STATS_RL:                Salt (DYNAMICS) S.D.=  1.73006453701350E+01
DEBUG_STATS_RL:                  Gu (DYNAMICS)  min= -9.18357179372021E-02
DEBUG_STATS_RL:                  Gu (DYNAMICS)  max=  1.84764657911099E-01
DEBUG_STATS_RL:                  Gu (DYNAMICS) mean=  5.87956386089855E-03
DEBUG_STATS_RL:                  Gu (DYNAMICS) S.D.=  2.38700336333711E-02
DEBUG_STATS_RL:                  Gv (DYNAMICS)  min= -8.95864843255737E-02
DEBUG_STATS_RL:                  Gv (DYNAMICS)  max=  1.04235222356416E-01
DEBUG_STATS_RL:                  Gv (DYNAMICS) mean=  1.03985376659460E-03
DEBUG_STATS_RL:                  Gv (DYNAMICS) S.D.=  1.41853931671394E-02
DEBUG_STATS_RL:               GuNm1 (DYNAMICS)  min= -6.53745572606004E-06
DEBUG_STATS_RL:               GuNm1 (DYNAMICS)  max=  6.85383113965979E-06
DEBUG_STATS_RL:               GuNm1 (DYNAMICS) mean= -2.39058699139608E-08
DEBUG_STATS_RL:               GuNm1 (DYNAMICS) S.D.=  1.11388743021271E-06
DEBUG_STATS_RL:               GvNm1 (DYNAMICS)  min= -9.04347500482875E-06
DEBUG_STATS_RL:               GvNm1 (DYNAMICS)  max=  1.66066667838419E-05
DEBUG_STATS_RL:               GvNm1 (DYNAMICS) mean=  7.75201351976323E-07
DEBUG_STATS_RL:               GvNm1 (DYNAMICS) S.D.=  2.60876253219163E-06
DEBUG_STATS_RL:               GtNm1 (DYNAMICS)  min= -3.18860666591658E-06
DEBUG_STATS_RL:               GtNm1 (DYNAMICS)  max=  2.56329798904949E-06
DEBUG_STATS_RL:               GtNm1 (DYNAMICS) mean=  1.91909415727956E-08
DEBUG_STATS_RL:               GtNm1 (DYNAMICS) S.D.=  2.42679471264946E-07
DEBUG_STATS_RL:               GsNm1 (DYNAMICS)  min= -4.64814599254610E-07
DEBUG_STATS_RL:               GsNm1 (DYNAMICS)  max=  5.49350125704098E-07
DEBUG_STATS_RL:               GsNm1 (DYNAMICS) mean=  2.94821211704354E-10
DEBUG_STATS_RL:               GsNm1 (DYNAMICS) S.D.=  2.07948254226173E-08
DEBUG_STATS_RL:    cg2d_b (SOLVE_FOR_PRESSURE)  min= -1.58959657889347E+04
DEBUG_STATS_RL:    cg2d_b (SOLVE_FOR_PRESSURE)  max=  1.35959912186612E+04
DEBUG_STATS_RL:    cg2d_b (SOLVE_FOR_PRESSURE) mean=  7.96582725951939E-01
DEBUG_STATS_RL:    cg2d_b (SOLVE_FOR_PRESSURE) S.D.=  3.20100088918303E+03
 cg2d: Sum(rhs),rhsMax =   1.16009875402718E-01  1.04408959328475E+00
(PID.TID 0000.0001)  cg2d: iter=     1 ; resid.=  2.21859906522937E-01
(PID.TID 0000.0001)  cg2d: iter=     2 ; resid.=  1.68772146851464E-01
(PID.TID 0000.0001)  cg2d: iter=     3 ; resid.=  2.19121854671519E-01
(PID.TID 0000.0001)  cg2d: iter=     4 ; resid.=  1.78771443807303E-01
(PID.TID 0000.0001)  cg2d: iter=     5 ; resid.=  1.63113956011468E-01
(PID.TID 0000.0001)  cg2d: iter=     6 ; resid.=  1.39269874565470E-01
(PID.TID 0000.0001)  cg2d: iter=     7 ; resid.=  1.10227622830700E-01
(PID.TID 0000.0001)  cg2d: iter=     8 ; resid.=  7.68466209209522E-02
(PID.TID 0000.0001)  cg2d: iter=     9 ; resid.=  6.15034035836408E-02
(PID.TID 0000.0001)  cg2d: iter=    10 ; resid.=  5.25337919547176E-02
(PID.TID 0000.0001)  cg2d: iter=    11 ; resid.=  4.94040749456070E-02
(PID.TID 0000.0001)  cg2d: iter=    12 ; resid.=  3.99188146053072E-02
(PID.TID 0000.0001)  cg2d: iter=    13 ; resid.=  3.33410324129646E-02
(PID.TID 0000.0001)  cg2d: iter=    14 ; resid.=  2.88380333104153E-02
(PID.TID 0000.0001)  cg2d: iter=    15 ; resid.=  2.42935826983347E-02
(PID.TID 0000.0001)  cg2d: iter=    16 ; resid.=  2.08519087975248E-02
(PID.TID 0000.0001)  cg2d: iter=    17 ; resid.=  1.99965105516824E-02
(PID.TID 0000.0001)  cg2d: iter=    18 ; resid.=  1.70620476620035E-02
(PID.TID 0000.0001)  cg2d: iter=    19 ; resid.=  1.34474860536659E-02
(PID.TID 0000.0001)  cg2d: iter=    20 ; resid.=  1.01857702081035E-02
(PID.TID 0000.0001)  cg2d: iter=    21 ; resid.=  7.38271585339109E-03
(PID.TID 0000.0001)  cg2d: iter=    22 ; resid.=  6.45135488532244E-03
(PID.TID 0000.0001)  cg2d: iter=    23 ; resid.=  5.71436100626105E-03
(PID.TID 0000.0001)  cg2d: iter=    24 ; resid.=  4.83164242017606E-03
(PID.TID 0000.0001)  cg2d: iter=    25 ; resid.=  4.03655873768778E-03
(PID.TID 0000.0001)  cg2d: iter=    26 ; resid.=  3.24039154133833E-03
(PID.TID 0000.0001)  cg2d: iter=    27 ; resid.=  2.75192856911030E-03
(PID.TID 0000.0001)  cg2d: iter=    28 ; resid.=  2.55276686075642E-03
(PID.TID 0000.0001)  cg2d: iter=    29 ; resid.=  2.01139916365481E-03
(PID.TID 0000.0001)  cg2d: iter=    30 ; resid.=  1.55563326890297E-03
(PID.TID 0000.0001)  cg2d: iter=    31 ; resid.=  1.25059504381578E-03
(PID.TID 0000.0001)  cg2d: iter=    32 ; resid.=  9.58656735016488E-04
(PID.TID 0000.0001)  cg2d: iter=    33 ; resid.=  7.55510981037843E-04
(PID.TID 0000.0001)  cg2d: iter=    34 ; resid.=  6.43162717626050E-04
(PID.TID 0000.0001)  cg2d: iter=    35 ; resid.=  5.23323249521186E-04
(PID.TID 0000.0001)  cg2d: iter=    36 ; resid.=  4.39392183489262E-04
(PID.TID 0000.0001)  cg2d: iter=    37 ; resid.=  3.86928951368329E-04
(PID.TID 0000.0001)  cg2d: iter=    38 ; resid.=  3.69714126901765E-04
(PID.TID 0000.0001)  cg2d: iter=    39 ; resid.=  3.20407327223647E-04
(PID.TID 0000.0001)  cg2d: iter=    40 ; resid.=  2.61133781545513E-04
(PID.TID 0000.0001)  cg2d: iter=    41 ; resid.=  2.27013912182764E-04
(PID.TID 0000.0001)  cg2d: iter=    42 ; resid.=  2.23151298226337E-04
(PID.TID 0000.0001)  cg2d: iter=    43 ; resid.=  1.96579035602376E-04
(PID.TID 0000.0001)  cg2d: iter=    44 ; resid.=  1.40722078890658E-04
(PID.TID 0000.0001)  cg2d: iter=    45 ; resid.=  1.04758526458459E-04
(PID.TID 0000.0001)  cg2d: iter=    46 ; resid.=  9.25104744555148E-05
(PID.TID 0000.0001)  cg2d: iter=    47 ; resid.=  8.32387161656092E-05
(PID.TID 0000.0001)  cg2d: iter=    48 ; resid.=  6.91707242818607E-05
(PID.TID 0000.0001)  cg2d: iter=    49 ; resid.=  5.03612038361397E-05
(PID.TID 0000.0001)  cg2d: iter=    50 ; resid.=  3.81075953304017E-05
(PID.TID 0000.0001)  cg2d: iter=    51 ; resid.=  3.16856185517101E-05
(PID.TID 0000.0001)  cg2d: iter=    52 ; resid.=  2.92808870321043E-05
(PID.TID 0000.0001)  cg2d: iter=    53 ; resid.=  2.65352500734554E-05
(PID.TID 0000.0001)  cg2d: iter=    54 ; resid.=  2.27297813080578E-05
(PID.TID 0000.0001)  cg2d: iter=    55 ; resid.=  1.92485113606737E-05
(PID.TID 0000.0001)  cg2d: iter=    56 ; resid.=  1.62799774768545E-05
(PID.TID 0000.0001)  cg2d: iter=    57 ; resid.=  1.24764628199495E-05
(PID.TID 0000.0001)  cg2d: iter=    58 ; resid.=  9.35381317726061E-06
(PID.TID 0000.0001)  cg2d: iter=    59 ; resid.=  7.26221285334459E-06
(PID.TID 0000.0001)  cg2d: iter=    60 ; resid.=  5.51757176501656E-06
(PID.TID 0000.0001)  cg2d: iter=    61 ; resid.=  4.65952316057737E-06
(PID.TID 0000.0001)  cg2d: iter=    62 ; resid.=  3.95294252057811E-06
(PID.TID 0000.0001)  cg2d: iter=    63 ; resid.=  3.31355732659770E-06
(PID.TID 0000.0001)  cg2d: iter=    64 ; resid.=  2.93702905889068E-06
(PID.TID 0000.0001)  cg2d: iter=    65 ; resid.=  2.41500009942808E-06
(PID.TID 0000.0001)  cg2d: iter=    66 ; resid.=  1.72047598457544E-06
(PID.TID 0000.0001)  cg2d: iter=    67 ; resid.=  1.29512485515348E-06
(PID.TID 0000.0001)  cg2d: iter=    68 ; resid.=  1.14782434214575E-06
(PID.TID 0000.0001)  cg2d: iter=    69 ; resid.=  9.05840048867921E-07
(PID.TID 0000.0001)  cg2d: iter=    70 ; resid.=  7.44414538452739E-07
(PID.TID 0000.0001)  cg2d: iter=    71 ; resid.=  5.96147570501375E-07
(PID.TID 0000.0001)  cg2d: iter=    72 ; resid.=  5.03533388519747E-07
(PID.TID 0000.0001)  cg2d: iter=    73 ; resid.=  4.43846610814648E-07
(PID.TID 0000.0001)  cg2d: iter=    74 ; resid.=  3.86674215676480E-07
(PID.TID 0000.0001)  cg2d: iter=    75 ; resid.=  2.95231917933143E-07
(PID.TID 0000.0001)  cg2d: iter=    76 ; resid.=  2.51543623854427E-07
(PID.TID 0000.0001)  cg2d: iter=    77 ; resid.=  2.05939114982522E-07
(PID.TID 0000.0001)  cg2d: iter=    78 ; resid.=  1.82315075153830E-07
(PID.TID 0000.0001)  cg2d: iter=    79 ; resid.=  1.64822980654695E-07
(PID.TID 0000.0001)  cg2d: iter=    80 ; resid.=  1.34859171269378E-07
(PID.TID 0000.0001)  cg2d: iter=    81 ; resid.=  1.11468634400909E-07
(PID.TID 0000.0001)  cg2d: iter=    82 ; resid.=  8.55968569724801E-08
(PID.TID 0000.0001)  cg2d: iter=    83 ; resid.=  6.26864197315911E-08
(PID.TID 0000.0001)  cg2d: iter=    84 ; resid.=  4.76801753485273E-08
(PID.TID 0000.0001)  cg2d: iter=    85 ; resid.=  3.54617172207092E-08
(PID.TID 0000.0001)  cg2d: iter=    86 ; resid.=  2.73760792786203E-08
(PID.TID 0000.0001)  cg2d: iter=    87 ; resid.=  2.21829128372506E-08
(PID.TID 0000.0001)  cg2d: iter=    88 ; resid.=  1.74362727764649E-08
(PID.TID 0000.0001)  cg2d: iter=    89 ; resid.=  1.47514500850456E-08
(PID.TID 0000.0001)  cg2d: iter=    90 ; resid.=  1.18223832918534E-08
(PID.TID 0000.0001)  cg2d: iter=    91 ; resid.=  8.50098339133720E-09
(PID.TID 0000.0001)  cg2d: iter=    92 ; resid.=  6.58184941891069E-09
(PID.TID 0000.0001)  cg2d: iter=    93 ; resid.=  5.18585910688630E-09
(PID.TID 0000.0001)  cg2d: iter=    94 ; resid.=  3.92853078273700E-09
(PID.TID 0000.0001)  cg2d: iter=    95 ; resid.=  3.17005431010298E-09
(PID.TID 0000.0001)  cg2d: iter=    96 ; resid.=  2.44570017609829E-09
(PID.TID 0000.0001)  cg2d: iter=    97 ; resid.=  1.79202781660179E-09
(PID.TID 0000.0001)  cg2d: iter=    98 ; resid.=  1.47546380192547E-09
(PID.TID 0000.0001)  cg2d: iter=    99 ; resid.=  1.25719382597598E-09
(PID.TID 0000.0001)  cg2d: iter=   100 ; resid.=  1.05637971717711E-09
(PID.TID 0000.0001)  cg2d: iter=   101 ; resid.=  8.95407713753305E-10
(PID.TID 0000.0001)  cg2d: iter=   102 ; resid.=  7.66302453710800E-10
(PID.TID 0000.0001)  cg2d: iter=   103 ; resid.=  6.61399842193273E-10
(PID.TID 0000.0001)  cg2d: iter=   104 ; resid.=  5.41159859402710E-10
(PID.TID 0000.0001)  cg2d: iter=   105 ; resid.=  4.21656764597211E-10
(PID.TID 0000.0001)  cg2d: iter=   106 ; resid.=  3.28937601508753E-10
(PID.TID 0000.0001)  cg2d: iter=   107 ; resid.=  2.58196685903100E-10
(PID.TID 0000.0001)  cg2d: iter=   108 ; resid.=  2.03510734400981E-10
(PID.TID 0000.0001)  cg2d: iter=   109 ; resid.=  1.57718971116079E-10
(PID.TID 0000.0001)  cg2d: iter=   110 ; resid.=  1.25606231935062E-10
(PID.TID 0000.0001)  cg2d: iter=   111 ; resid.=  9.95775033824948E-11
(PID.TID 0000.0001)  cg2d: iter=   112 ; resid.=  7.57805161913517E-11
(PID.TID 0000.0001)  cg2d: iter=   113 ; resid.=  5.38077862786062E-11
(PID.TID 0000.0001)  cg2d: iter=   114 ; resid.=  4.19383736495820E-11
(PID.TID 0000.0001)  cg2d: iter=   115 ; resid.=  3.33763143725486E-11
(PID.TID 0000.0001)  cg2d: iter=   116 ; resid.=  2.66930305855533E-11
(PID.TID 0000.0001)  cg2d: iter=   117 ; resid.=  2.09653614637119E-11
(PID.TID 0000.0001)  cg2d: iter=   118 ; resid.=  1.61468248240350E-11
(PID.TID 0000.0001)  cg2d: iter=   119 ; resid.=  1.26517689046326E-11
(PID.TID 0000.0001)  cg2d: iter=   120 ; resid.=  9.54711787859598E-12
(PID.TID 0000.0001)  cg2d: iter=   121 ; resid.=  7.15438843078798E-12
(PID.TID 0000.0001)  cg2d: iter=   122 ; resid.=  5.00965322997186E-12
(PID.TID 0000.0001)  cg2d: iter=   123 ; resid.=  3.74768688932409E-12
(PID.TID 0000.0001)  cg2d: iter=   124 ; resid.=  2.55271464901216E-12
(PID.TID 0000.0001)  cg2d: iter=   125 ; resid.=  1.76629154939582E-12
(PID.TID 0000.0001)  cg2d: iter=   126 ; resid.=  1.22030750431194E-12
(PID.TID 0000.0001)  cg2d: iter=   127 ; resid.=  8.11678439871033E-13
(PID.TID 0000.0001)  cg2d: iter=   128 ; resid.=  5.84500927155219E-13
(PID.TID 0000.0001)  cg2d: iter=   129 ; resid.=  4.42419730096928E-13
(PID.TID 0000.0001)  cg2d: iter=   130 ; resid.=  3.54891896870874E-13
(PID.TID 0000.0001)  cg2d: iter=   131 ; resid.=  2.90036895042052E-13
(PID.TID 0000.0001)  cg2d: iter=   132 ; resid.=  2.40805597750612E-13
(PID.TID 0000.0001)  cg2d: iter=   133 ; resid.=  1.79008668138774E-13
(PID.TID 0000.0001)  cg2d: iter=   134 ; resid.=  1.39546388059729E-13
(PID.TID 0000.0001)  cg2d: iter=   135 ; resid.=  1.07890860023052E-13
(PID.TID 0000.0001)  cg2d: iter=   136 ; resid.=  7.71397792730256E-14
DEBUG_STATS_RL:    cg2d_x (SOLVE_FOR_PRESSURE)  min= -1.35094652100735E+01
DEBUG_STATS_RL:    cg2d_x (SOLVE_FOR_PRESSURE)  max=  7.41671063594908E+00
DEBUG_STATS_RL:    cg2d_x (SOLVE_FOR_PRESSURE) mean= -1.50440057133181E+00
DEBUG_STATS_RL:    cg2d_x (SOLVE_FOR_PRESSURE) S.D.=  5.90584113676762E+00
(PID.TID 0000.0001)      cg2d_init_res =   8.55989049075608E-01
(PID.TID 0000.0001)      cg2d_iters(min,last) =      -1     136
(PID.TID 0000.0001)      cg2d_last_res =   7.71397792730256E-14
(PID.TID 0000.0001) // =======================================================
(PID.TID 0000.0001) // Begin MONITOR dynamic field statistics
(PID.TID 0000.0001) // =======================================================
(PID.TID 0000.0001) %MON time_tsnumber                =                    12
(PID.TID 0000.0001) %MON time_secondsf                =   1.0368000000000E+06
(PID.TID 0000.0001) %MON dynstat_eta_max              =   7.5603574270624E-01
(PID.TID 0000.0001) %MON dynstat_eta_min              =  -1.3771116422097E+00
(PID.TID 0000.0001) %MON dynstat_eta_mean             =  -8.3113530153390E-04
(PID.TID 0000.0001) %MON dynstat_eta_sd               =   5.3502575691592E-01
(PID.TID 0000.0001) %MON dynstat_eta_del2             =   1.7450824347452E-03
(PID.TID 0000.0001) %MON dynstat_uvel_max             =   1.8514337324948E-01
(PID.TID 0000.0001) %MON dynstat_uvel_min             =  -9.6470146195183E-02
(PID.TID 0000.0001) %MON dynstat_uvel_mean            =   4.4869835818710E-04
(PID.TID 0000.0001) %MON dynstat_uvel_sd              =   1.4154380017578E-02
(PID.TID 0000.0001) %MON dynstat_uvel_del2            =   8.9787100827370E-05
(PID.TID 0000.0001) %MON dynstat_vvel_max             =   1.0410447024341E-01
(PID.TID 0000.0001) %MON dynstat_vvel_min             =  -1.0485469343486E-01
(PID.TID 0000.0001) %MON dynstat_vvel_mean            =  -9.5505697138064E-05
(PID.TID 0000.0001) %MON dynstat_vvel_sd              =   9.6534025599956E-03
(PID.TID 0000.0001) %MON dynstat_vvel_del2            =   9.5846333397575E-05
(PID.TID 0000.0001) %MON dynstat_wvel_max             =   1.9362336260266E-04
(PID.TID 0000.0001) %MON dynstat_wvel_min             =  -1.8775834836320E-04
(PID.TID 0000.0001) %MON dynstat_wvel_mean            =   4.1787063139234E-12
(PID.TID 0000.0001) %MON dynstat_wvel_sd              =   1.9830243889857E-05
(PID.TID 0000.0001) %MON dynstat_wvel_del2            =   2.0917309744636E-07
(PID.TID 0000.0001) %MON dynstat_theta_max            =   2.9667243626243E+01
(PID.TID 0000.0001) %MON dynstat_theta_min            =  -1.9114001580442E+00
(PID.TID 0000.0001) %MON dynstat_theta_mean           =   3.6185768313389E+00
(PID.TID 0000.0001) %MON dynstat_theta_sd             =   4.4142379004835E+00
(PID.TID 0000.0001) %MON dynstat_theta_del2           =   4.9611985766380E-03
(PID.TID 0000.0001) %MON dynstat_salt_max             =   3.7435278855954E+01
(PID.TID 0000.0001) %MON dynstat_salt_min             =   2.9748933621711E+01
(PID.TID 0000.0001) %MON dynstat_salt_mean            =   3.4717187153718E+01
(PID.TID 0000.0001) %MON dynstat_salt_sd              =   2.9616337072142E-01
(PID.TID 0000.0001) %MON dynstat_salt_del2            =   1.0061690522115E-03
(PID.TID 0000.0001) %MON dynstat_sst_max              =   2.9667243626243E+01
(PID.TID 0000.0001) %MON dynstat_sst_min              =  -1.9114001580442E+00
(PID.TID 0000.0001) %MON dynstat_sst_mean             =   1.8595330758620E+01
(PID.TID 0000.0001) %MON dynstat_sst_sd               =   9.0776865886777E+00
(PID.TID 0000.0001) %MON dynstat_sst_del2             =   2.5481628543237E-02
(PID.TID 0000.0001) %MON dynstat_sss_max              =   3.7431085205877E+01
(PID.TID 0000.0001) %MON dynstat_sss_min              =   2.9748933621711E+01
(PID.TID 0000.0001) %MON dynstat_sss_mean             =   3.4853684861170E+01
(PID.TID 0000.0001) %MON dynstat_sss_sd               =   9.6804601789367E-01
(PID.TID 0000.0001) %MON dynstat_sss_del2             =   7.9229024027776E-03
(PID.TID 0000.0001) %MON forcing_qnet_max             =   4.3742086791992E+02
(PID.TID 0000.0001) %MON forcing_qnet_min             =  -1.8188829345703E+02
(PID.TID 0000.0001) %MON forcing_qnet_mean            =  -1.6562573824336E+01
(PID.TID 0000.0001) %MON forcing_qnet_sd              =   1.1061005498176E+02
(PID.TID 0000.0001) %MON forcing_qnet_del2            =   1.0118306891868E+00
(PID.TID 0000.0001) %MON forcing_qsw_max              =   0.0000000000000E+00
(PID.TID 0000.0001) %MON forcing_qsw_min              =   0.0000000000000E+00
(PID.TID 0000.0001) %MON forcing_qsw_mean             =   0.0000000000000E+00
(PID.TID 0000.0001) %MON forcing_qsw_sd               =   0.0000000000000E+00
(PID.TID 0000.0001) %MON forcing_qsw_del2             =   0.0000000000000E+00
(PID.TID 0000.0001) %MON forcing_empmr_max            =   8.1895939748241E-05
(PID.TID 0000.0001) %MON forcing_empmr_min            =  -7.3862861427187E-05
(PID.TID 0000.0001) %MON forcing_empmr_mean           =   8.8385803112860E-07
(PID.TID 0000.0001) %MON forcing_empmr_sd             =   2.8441005317708E-05
(PID.TID 0000.0001) %MON forcing_empmr_del2           =   3.6422974995246E-07
(PID.TID 0000.0001) %MON forcing_fu_max               =   2.7018036246300E-01
(PID.TID 0000.0001) %MON forcing_fu_min               =  -1.6762689054012E-01
(PID.TID 0000.0001) %MON forcing_fu_mean              =   1.6032506436715E-02
(PID.TID 0000.0001) %MON forcing_fu_sd                =   9.0583250401530E-02
(PID.TID 0000.0001) %MON forcing_fu_del2              =   6.9548641877095E-04
(PID.TID 0000.0001) %MON forcing_fv_max               =   2.2560169994831E-01
(PID.TID 0000.0001) %MON forcing_fv_min               =  -1.8047553002834E-01
(PID.TID 0000.0001) %MON forcing_fv_mean              =  -5.5539478469483E-03
(PID.TID 0000.0001) %MON forcing_fv_sd                =   4.7114745146942E-02
(PID.TID 0000.0001) %MON forcing_fv_del2              =   4.7455200431690E-04
(PID.TID 0000.0001) %MON trAdv_CFL_u_max              =   5.2339802014345E-02
(PID.TID 0000.0001) %MON trAdv_CFL_v_max              =   2.1101245766967E-02
(PID.TID 0000.0001) %MON trAdv_CFL_w_max              =   6.4355861214296E-02
(PID.TID 0000.0001) %MON advcfl_uvel_max              =   5.3709967957224E-02
(PID.TID 0000.0001) %MON advcfl_vvel_max              =   2.0371585267290E-02
(PID.TID 0000.0001) %MON advcfl_wvel_max              =   6.6878024946779E-02
(PID.TID 0000.0001) %MON advcfl_W_hf_max              =   7.5677765071355E-02
(PID.TID 0000.0001) %MON pe_b_mean                    =   3.6629553801619E-04
(PID.TID 0000.0001) %MON ke_max                       =   1.7248095720817E-02
(PID.TID 0000.0001) %MON ke_mean                      =   1.3295225681981E-04
(PID.TID 0000.0001) %MON ke_vol                       =   1.3226782436723E+18
(PID.TID 0000.0001) %MON vort_r_min                   =  -4.1242558510356E-07
(PID.TID 0000.0001) %MON vort_r_max                   =   3.3520522034422E-07
(PID.TID 0000.0001) %MON vort_a_mean                  =  -2.5274807194722E-05
(PID.TID 0000.0001) %MON vort_a_sd                    =   7.3604386154431E-05
(PID.TID 0000.0001) %MON vort_p_mean                  =  -3.1845655544039E-05
(PID.TID 0000.0001) %MON vort_p_sd                    =   1.3162389227480E-04
(PID.TID 0000.0001) %MON surfExpan_theta_mean         =   3.7938240472660E-07
(PID.TID 0000.0001) %MON surfExpan_salt_mean          =  -6.9422430084083E-08
(PID.TID 0000.0001) // =======================================================
(PID.TID 0000.0001) // End MONITOR dynamic field statistics
(PID.TID 0000.0001) // =======================================================
 EXTERNAL_FIELDS_LOAD,        12 : iP,iLd,i0,i1=   12    1   12    1 ; Wght=  0.1000000000  0.9000000000
 EXTERNAL_FIELDS_LOAD: (fu0,1),fu,fv= -4.5368E-02 -3.5633E-02 -3.6606E-02 -5.8556E-02
 EXTERNAL_FIELDS_LOAD: SST,SSS,Q,E-P=  7.7737E-01  3.4644E+01  2.6564E+02  1.1478E-05
DEBUG_STATS_RL:          Uvel (THERMODYNAMICS)  min= -9.64701461951832E-02
DEBUG_STATS_RL:          Uvel (THERMODYNAMICS)  max=  1.85143373249482E-01
DEBUG_STATS_RL:          Uvel (THERMODYNAMICS) mean=  5.99611826245812E-03
DEBUG_STATS_RL:          Uvel (THERMODYNAMICS) S.D.=  2.37415952418138E-02
DEBUG_STATS_RL:          Vvel (THERMODYNAMICS)  min= -1.04854693434859E-01
DEBUG_STATS_RL:          Vvel (THERMODYNAMICS)  max=  1.04104470243412E-01
DEBUG_STATS_RL:          Vvel (THERMODYNAMICS) mean= -8.92687920514024E-04
DEBUG_STATS_RL:          Vvel (THERMODYNAMICS) S.D.=  1.45599806426655E-02
DEBUG_STATS_RL:          Wvel (THERMODYNAMICS)  min= -1.87758348363202E-04
DEBUG_STATS_RL:          Wvel (THERMODYNAMICS)  max=  1.93623362602662E-04
DEBUG_STATS_RL:          Wvel (THERMODYNAMICS) mean= -4.08163185096563E-07
DEBUG_STATS_RL:          Wvel (THERMODYNAMICS) S.D.=  1.74617955108781E-05
DEBUG_STATS_RL:         Theta (THERMODYNAMICS)  min= -1.91117927215105E+00
DEBUG_STATS_RL:         Theta (THERMODYNAMICS)  max=  2.96686653160520E+01
DEBUG_STATS_RL:         Theta (THERMODYNAMICS) mean=  3.20460293747126E+00
DEBUG_STATS_RL:         Theta (THERMODYNAMICS) S.D.=  5.85122686568112E+00
DEBUG_STATS_RL:          Salt (THERMODYNAMICS)  min= -7.83495430699523E-04
DEBUG_STATS_RL:          Salt (THERMODYNAMICS)  max=  3.74359610991253E+01
DEBUG_STATS_RL:          Salt (THERMODYNAMICS) mean=  1.88443976943777E+01
DEBUG_STATS_RL:          Salt (THERMODYNAMICS) S.D.=  1.73006570710369E+01
DEBUG_STATS_RL:         GtNm1 (THERMODYNAMICS)  min= -2.89738544527789E-06
DEBUG_STATS_RL:         GtNm1 (THERMODYNAMICS)  max=  2.57112199783530E-06
DEBUG_STATS_RL:         GtNm1 (THERMODYNAMICS) mean=  1.68706879638437E-08
DEBUG_STATS_RL:         GtNm1 (THERMODYNAMICS) S.D.=  2.36783569066165E-07
DEBUG_STATS_RL:         GsNm1 (THERMODYNAMICS)  min= -4.88257760423192E-07
DEBUG_STATS_RL:         GsNm1 (THERMODYNAMICS)  max=  6.69886565604676E-07
DEBUG_STATS_RL:         GsNm1 (THERMODYNAMICS) mean=  2.55611033730463E-10
DEBUG_STATS_RL:         GsNm1 (THERMODYNAMICS) S.D.=  2.03257717925573E-08
DEBUG_STATS_RL:                EtaN (DYNAMICS)  min= -1.37711164220974E+00
DEBUG_STATS_RL:                EtaN (DYNAMICS)  max=  7.56035742706240E-01
DEBUG_STATS_RL:                EtaN (DYNAMICS) mean= -1.53353778932908E-01
DEBUG_STATS_RL:                EtaN (DYNAMICS) S.D.=  6.02022541974273E-01
DEBUG_STATS_RL:                Uvel (DYNAMICS)  min= -9.64701461951832E-02
DEBUG_STATS_RL:                Uvel (DYNAMICS)  max=  1.85143373249482E-01
DEBUG_STATS_RL:                Uvel (DYNAMICS) mean=  5.99611826245812E-03
DEBUG_STATS_RL:                Uvel (DYNAMICS) S.D.=  2.37415952418138E-02
DEBUG_STATS_RL:                Vvel (DYNAMICS)  min= -1.04854693434859E-01
DEBUG_STATS_RL:                Vvel (DYNAMICS)  max=  1.04104470243412E-01
DEBUG_STATS_RL:                Vvel (DYNAMICS) mean= -8.92687920514024E-04
DEBUG_STATS_RL:                Vvel (DYNAMICS) S.D.=  1.45599806426655E-02
DEBUG_STATS_RL:                Wvel (DYNAMICS)  min= -1.87758348363202E-04
DEBUG_STATS_RL:                Wvel (DYNAMICS)  max=  1.93623362602662E-04
DEBUG_STATS_RL:                Wvel (DYNAMICS) mean= -4.08163185096563E-07
DEBUG_STATS_RL:                Wvel (DYNAMICS) S.D.=  1.74617955108781E-05
DEBUG_STATS_RL:               Theta (DYNAMICS)  min= -1.91117927215105E+00
DEBUG_STATS_RL:               Theta (DYNAMICS)  max=  2.96686653160520E+01
DEBUG_STATS_RL:               Theta (DYNAMICS) mean=  3.20460293747126E+00
DEBUG_STATS_RL:               Theta (DYNAMICS) S.D.=  5.85122686568112E+00
DEBUG_STATS_RL:                Salt (DYNAMICS)  min= -7.83495430699523E-04
DEBUG_STATS_RL:                Salt (DYNAMICS)  max=  3.74359610991253E+01
DEBUG_STATS_RL:                Salt (DYNAMICS) mean=  1.88443976943777E+01
DEBUG_STATS_RL:                Salt (DYNAMICS) S.D.=  1.73006570710369E+01
DEBUG_STATS_RL:                  Gu (DYNAMICS)  min= -9.60487628866400E-02
DEBUG_STATS_RL:                  Gu (DYNAMICS)  max=  1.90252268124959E-01
DEBUG_STATS_RL:                  Gu (DYNAMICS) mean=  6.22844463392605E-03
DEBUG_STATS_RL:                  Gu (DYNAMICS) S.D.=  2.49648683617419E-02
DEBUG_STATS_RL:                  Gv (DYNAMICS)  min= -9.32809509019411E-02
DEBUG_STATS_RL:                  Gv (DYNAMICS)  max=  1.03985599801628E-01
DEBUG_STATS_RL:                  Gv (DYNAMICS) mean=  1.52081681465035E-03
DEBUG_STATS_RL:                  Gv (DYNAMICS) S.D.=  1.41590847195473E-02
DEBUG_STATS_RL:               GuNm1 (DYNAMICS)  min= -6.57243455812885E-06
DEBUG_STATS_RL:               GuNm1 (DYNAMICS)  max=  6.80828879788613E-06
DEBUG_STATS_RL:               GuNm1 (DYNAMICS) mean= -2.24190235176584E-08
DEBUG_STATS_RL:               GuNm1 (DYNAMICS) S.D.=  1.10397284780924E-06
DEBUG_STATS_RL:               GvNm1 (DYNAMICS)  min= -8.85121457035128E-06
DEBUG_STATS_RL:               GvNm1 (DYNAMICS)  max=  1.66745069517426E-05
DEBUG_STATS_RL:               GvNm1 (DYNAMICS) mean=  7.75024722631207E-07
DEBUG_STATS_RL:               GvNm1 (DYNAMICS) S.D.=  2.59211700967891E-06
DEBUG_STATS_RL:               GtNm1 (DYNAMICS)  min= -2.89738544527789E-06
DEBUG_STATS_RL:               GtNm1 (DYNAMICS)  max=  2.57112199783530E-06
DEBUG_STATS_RL:               GtNm1 (DYNAMICS) mean=  1.68706879638437E-08
DEBUG_STATS_RL:               GtNm1 (DYNAMICS) S.D.=  2.36783569066165E-07
DEBUG_STATS_RL:               GsNm1 (DYNAMICS)  min= -4.88257760423192E-07
DEBUG_STATS_RL:               GsNm1 (DYNAMICS)  max=  6.69886565604676E-07
DEBUG_STATS_RL:               GsNm1 (DYNAMICS) mean=  2.55611033730463E-10
DEBUG_STATS_RL:               GsNm1 (DYNAMICS) S.D.=  2.03257717925573E-08
DEBUG_STATS_RL:    cg2d_b (SOLVE_FOR_PRESSURE)  min= -1.59189375589922E+04
DEBUG_STATS_RL:    cg2d_b (SOLVE_FOR_PRESSURE)  max=  1.31295975493978E+04
DEBUG_STATS_RL:    cg2d_b (SOLVE_FOR_PRESSURE) mean=  8.68079955511513E-01
DEBUG_STATS_RL:    cg2d_b (SOLVE_FOR_PRESSURE) S.D.=  3.14285684837449E+03
 cg2d: Sum(rhs),rhsMax =   1.26239900719556E-01  1.04559844064733E+00
(PID.TID 0000.0001)  cg2d: iter=     1 ; resid.=  1.99175226947898E-01
(PID.TID 0000.0001)  cg2d: iter=     2 ; resid.=  1.34264458649965E-01
(PID.TID 0000.0001)  cg2d: iter=     3 ; resid.=  1.68937194724547E-01
(PID.TID 0000.0001)  cg2d: iter=     4 ; resid.=  1.51621021465632E-01
(PID.TID 0000.0001)  cg2d: iter=     5 ; resid.=  1.33495722648285E-01
(PID.TID 0000.0001)  cg2d: iter=     6 ; resid.=  1.09755803856982E-01
(PID.TID 0000.0001)  cg2d: iter=     7 ; resid.=  9.18078778851581E-02
(PID.TID 0000.0001)  cg2d: iter=     8 ; resid.=  6.76596214071089E-02
(PID.TID 0000.0001)  cg2d: iter=     9 ; resid.=  5.26133420896680E-02
(PID.TID 0000.0001)  cg2d: iter=    10 ; resid.=  4.36820940629303E-02
(PID.TID 0000.0001)  cg2d: iter=    11 ; resid.=  4.17702846283039E-02
(PID.TID 0000.0001)  cg2d: iter=    12 ; resid.=  3.49815986712103E-02
(PID.TID 0000.0001)  cg2d: iter=    13 ; resid.=  2.68533508479777E-02
(PID.TID 0000.0001)  cg2d: iter=    14 ; resid.=  2.16599794057591E-02
(PID.TID 0000.0001)  cg2d: iter=    15 ; resid.=  1.83665954686339E-02
(PID.TID 0000.0001)  cg2d: iter=    16 ; resid.=  1.52603129647762E-02
(PID.TID 0000.0001)  cg2d: iter=    17 ; resid.=  1.43309672794699E-02
(PID.TID 0000.0001)  cg2d: iter=    18 ; resid.=  1.26353466572893E-02
(PID.TID 0000.0001)  cg2d: iter=    19 ; resid.=  1.06854328066027E-02
(PID.TID 0000.0001)  cg2d: iter=    20 ; resid.=  8.52343891726458E-03
(PID.TID 0000.0001)  cg2d: iter=    21 ; resid.=  6.23658347631203E-03
(PID.TID 0000.0001)  cg2d: iter=    22 ; resid.=  5.08446861648688E-03
(PID.TID 0000.0001)  cg2d: iter=    23 ; resid.=  4.29064722146884E-03
(PID.TID 0000.0001)  cg2d: iter=    24 ; resid.=  3.63181223784103E-03
(PID.TID 0000.0001)  cg2d: iter=    25 ; resid.=  2.92152740841796E-03
(PID.TID 0000.0001)  cg2d: iter=    26 ; resid.=  2.31487141661157E-03
(PID.TID 0000.0001)  cg2d: iter=    27 ; resid.=  2.03754490961978E-03
(PID.TID 0000.0001)  cg2d: iter=    28 ; resid.=  1.96625572422765E-03
(PID.TID 0000.0001)  cg2d: iter=    29 ; resid.=  1.58722057492860E-03
(PID.TID 0000.0001)  cg2d: iter=    30 ; resid.=  1.16080708939213E-03
(PID.TID 0000.0001)  cg2d: iter=    31 ; resid.=  9.06029137700367E-04
(PID.TID 0000.0001)  cg2d: iter=    32 ; resid.=  7.15100592491173E-04
(PID.TID 0000.0001)  cg2d: iter=    33 ; resid.=  5.55074832307575E-04
(PID.TID 0000.0001)  cg2d: iter=    34 ; resid.=  4.57323716584257E-04
(PID.TID 0000.0001)  cg2d: iter=    35 ; resid.=  3.66052931483061E-04
(PID.TID 0000.0001)  cg2d: iter=    36 ; resid.=  3.04147178296745E-04
(PID.TID 0000.0001)  cg2d: iter=    37 ; resid.=  2.49989458798795E-04
(PID.TID 0000.0001)  cg2d: iter=    38 ; resid.=  2.10427188874552E-04
(PID.TID 0000.0001)  cg2d: iter=    39 ; resid.=  1.63192258221248E-04
(PID.TID 0000.0001)  cg2d: iter=    40 ; resid.=  1.20611604605475E-04
(PID.TID 0000.0001)  cg2d: iter=    41 ; resid.=  9.47221379429960E-05
(PID.TID 0000.0001)  cg2d: iter=    42 ; resid.=  9.03503695145112E-05
(PID.TID 0000.0001)  cg2d: iter=    43 ; resid.=  8.60863654826091E-05
(PID.TID 0000.0001)  cg2d: iter=    44 ; resid.=  6.71447656943201E-05
(PID.TID 0000.0001)  cg2d: iter=    45 ; resid.=  4.88333525201937E-05
(PID.TID 0000.0001)  cg2d: iter=    46 ; resid.=  3.91362098825013E-05
(PID.TID 0000.0001)  cg2d: iter=    47 ; resid.=  3.42972201252696E-05
(PID.TID 0000.0001)  cg2d: iter=    48 ; resid.=  3.01045351791189E-05
(PID.TID 0000.0001)  cg2d: iter=    49 ; resid.=  2.35438308737270E-05
(PID.TID 0000.0001)  cg2d: iter=    50 ; resid.=  1.82286281048100E-05
(PID.TID 0000.0001)  cg2d: iter=    51 ; resid.=  1.47333678824641E-05
(PID.TID 0000.0001)  cg2d: iter=    52 ; resid.=  1.30412197812906E-05
(PID.TID 0000.0001)  cg2d: iter=    53 ; resid.=  1.14048917440221E-05
(PID.TID 0000.0001)  cg2d: iter=    54 ; resid.=  9.87328786711709E-06
(PID.TID 0000.0001)  cg2d: iter=    55 ; resid.=  8.58231429449776E-06
(PID.TID 0000.0001)  cg2d: iter=    56 ; resid.=  7.33025587481856E-06
(PID.TID 0000.0001)  cg2d: iter=    57 ; resid.=  5.95456564493145E-06
(PID.TID 0000.0001)  cg2d: iter=    58 ; resid.=  4.78480046200519E-06
(PID.TID 0000.0001)  cg2d: iter=    59 ; resid.=  4.06194633354618E-06
(PID.TID 0000.0001)  cg2d: iter=    60 ; resid.=  3.28416617313329E-06
(PID.TID 0000.0001)  cg2d: iter=    61 ; resid.=  2.79561684698306E-06
(PID.TID 0000.0001)  cg2d: iter=    62 ; resid.=  2.39014827626482E-06
(PID.TID 0000.0001)  cg2d: iter=    63 ; resid.=  2.06474984148681E-06
(PID.TID 0000.0001)  cg2d: iter=    64 ; resid.=  1.87626393597753E-06
(PID.TID 0000.0001)  cg2d: iter=    65 ; resid.=  1.59268282158148E-06
(PID.TID 0000.0001)  cg2d: iter=    66 ; resid.=  1.15357208790408E-06
(PID.TID 0000.0001)  cg2d: iter=    67 ; resid.=  8.62769153018031E-07
(PID.TID 0000.0001)  cg2d: iter=    68 ; resid.=  7.65187079092301E-07
(PID.TID 0000.0001)  cg2d: iter=    69 ; resid.=  6.65925729562706E-07
(PID.TID 0000.0001)  cg2d: iter=    70 ; resid.=  5.81575690094059E-07
(PID.TID 0000.0001)  cg2d: iter=    71 ; resid.=  4.60665599206606E-07
(PID.TID 0000.0001)  cg2d: iter=    72 ; resid.=  3.81230185562769E-07
(PID.TID 0000.0001)  cg2d: iter=    73 ; resid.=  3.45966577536927E-07
(PID.TID 0000.0001)  cg2d: iter=    74 ; resid.=  3.16561004532883E-07
(PID.TID 0000.0001)  cg2d: iter=    75 ; resid.=  2.54359857398695E-07
(PID.TID 0000.0001)  cg2d: iter=    76 ; resid.=  2.19347299637571E-07
(PID.TID 0000.0001)  cg2d: iter=    77 ; resid.=  1.82086452859372E-07
(PID.TID 0000.0001)  cg2d: iter=    78 ; resid.=  1.63776750635161E-07
(PID.TID 0000.0001)  cg2d: iter=    79 ; resid.=  1.50142861444488E-07
(PID.TID 0000.0001)  cg2d: iter=    80 ; resid.=  1.24701081274781E-07
(PID.TID 0000.0001)  cg2d: iter=    81 ; resid.=  9.93044301348554E-08
(PID.TID 0000.0001)  cg2d: iter=    82 ; resid.=  7.40105293477108E-08
(PID.TID 0000.0001)  cg2d: iter=    83 ; resid.=  5.33516473828647E-08
(PID.TID 0000.0001)  cg2d: iter=    84 ; resid.=  4.10518493306004E-08
(PID.TID 0000.0001)  cg2d: iter=    85 ; resid.=  3.19906303150716E-08
(PID.TID 0000.0001)  cg2d: iter=    86 ; resid.=  2.59551597901395E-08
(PID.TID 0000.0001)  cg2d: iter=    87 ; resid.=  2.18584929593875E-08
(PID.TID 0000.0001)  cg2d: iter=    88 ; resid.=  1.74536787237591E-08
(PID.TID 0000.0001)  cg2d: iter=    89 ; resid.=  1.42878347563216E-08
(PID.TID 0000.0001)  cg2d: iter=    90 ; resid.=  1.09939987715655E-08
(PID.TID 0000.0001)  cg2d: iter=    91 ; resid.=  7.43087433612703E-09
(PID.TID 0000.0001)  cg2d: iter=    92 ; resid.=  5.49172084834867E-09
(PID.TID 0000.0001)  cg2d: iter=    93 ; resid.=  4.32130636700621E-09
(PID.TID 0000.0001)  cg2d: iter=    94 ; resid.=  3.23072180345001E-09
(PID.TID 0000.0001)  cg2d: iter=    95 ; resid.=  2.43142712453585E-09
(PID.TID 0000.0001)  cg2d: iter=    96 ; resid.=  1.81751052150670E-09
(PID.TID 0000.0001)  cg2d: iter=    97 ; resid.=  1.34973470328438E-09
(PID.TID 0000.0001)  cg2d: iter=    98 ; resid.=  1.11456926152195E-09
(PID.TID 0000.0001)  cg2d: iter=    99 ; resid.=  9.25054222237401E-10
(PID.TID 0000.0001)  cg2d: iter=   100 ; resid.=  7.55665367604386E-10
(PID.TID 0000.0001)  cg2d: iter=   101 ; resid.=  6.35669667778361E-10
(PID.TID 0000.0001)  cg2d: iter=   102 ; resid.=  5.42326424485080E-10
(PID.TID 0000.0001)  cg2d: iter=   103 ; resid.=  4.77716722841469E-10
(PID.TID 0000.0001)  cg2d: iter=   104 ; resid.=  4.03630054890639E-10
(PID.TID 0000.0001)  cg2d: iter=   105 ; resid.=  3.22996042059987E-10
(PID.TID 0000.0001)  cg2d: iter=   106 ; resid.=  2.57322948551904E-10
(PID.TID 0000.0001)  cg2d: iter=   107 ; resid.=  2.13598249899059E-10
(PID.TID 0000.0001)  cg2d: iter=   108 ; resid.=  1.76184409844199E-10
(PID.TID 0000.0001)  cg2d: iter=   109 ; resid.=  1.37537956102562E-10
(PID.TID 0000.0001)  cg2d: iter=   110 ; resid.=  1.02367352914379E-10
(PID.TID 0000.0001)  cg2d: iter=   111 ; resid.=  7.65498474319740E-11
(PID.TID 0000.0001)  cg2d: iter=   112 ; resid.=  5.88987301909749E-11
(PID.TID 0000.0001)  cg2d: iter=   113 ; resid.=  4.18217988546027E-11
(PID.TID 0000.0001)  cg2d: iter=   114 ; resid.=  3.03501305925798E-11
(PID.TID 0000.0001)  cg2d: iter=   115 ; resid.=  2.35955905566386E-11
(PID.TID 0000.0001)  cg2d: iter=   116 ; resid.=  1.92892458475374E-11
(PID.TID 0000.0001)  cg2d: iter=   117 ; resid.=  1.60890910097408E-11
(PID.TID 0000.0001)  cg2d: iter=   118 ; resid.=  1.28359915606852E-11
(PID.TID 0000.0001)  cg2d: iter=   119 ; resid.=  1.01532781220614E-11
(PID.TID 0000.0001)  cg2d: iter=   120 ; resid.=  7.63999299624789E-12
(PID.TID 0000.0001)  cg2d: iter=   121 ; resid.=  5.57526039159539E-12
(PID.TID 0000.0001)  cg2d: iter=   122 ; resid.=  3.82854483719321E-12
(PID.TID 0000.0001)  cg2d: iter=   123 ; resid.=  2.80807462315618E-12
(PID.TID 0000.0001)  cg2d: iter=   124 ; resid.=  2.00995762905910E-12
(PID.TID 0000.0001)  cg2d: iter=   125 ; resid.=  1.42367652354152E-12
(PID.TID 0000.0001)  cg2d: iter=   126 ; resid.=  1.02489060824775E-12
(PID.TID 0000.0001)  cg2d: iter=   127 ; resid.=  7.10629935953120E-13
(PID.TID 0000.0001)  cg2d: iter=   128 ; resid.=  5.26456372776620E-13
(PID.TID 0000.0001)  cg2d: iter=   129 ; resid.=  4.12106274491250E-13
(PID.TID 0000.0001)  cg2d: iter=   130 ; resid.=  3.39511267343571E-13
(PID.TID 0000.0001)  cg2d: iter=   131 ; resid.=  2.77253742898201E-13
(PID.TID 0000.0001)  cg2d: iter=   132 ; resid.=  2.25052341268995E-13
(PID.TID 0000.0001)  cg2d: iter=   133 ; resid.=  1.64912906903876E-13
(PID.TID 0000.0001)  cg2d: iter=   134 ; resid.=  1.25916079732545E-13
(PID.TID 0000.0001)  cg2d: iter=   135 ; resid.=  9.44398848073340E-14
DEBUG_STATS_RL:    cg2d_x (SOLVE_FOR_PRESSURE)  min= -1.37913669104281E+01
DEBUG_STATS_RL:    cg2d_x (SOLVE_FOR_PRESSURE)  max=  7.42808240595337E+00
DEBUG_STATS_RL:    cg2d_x (SOLVE_FOR_PRESSURE) mean= -1.52320897952469E+00
DEBUG_STATS_RL:    cg2d_x (SOLVE_FOR_PRESSURE) S.D.=  6.01038466191777E+00
(PID.TID 0000.0001)      cg2d_init_res =   7.75371635319562E-01
(PID.TID 0000.0001)      cg2d_iters(min,last) =      -1     135
(PID.TID 0000.0001)      cg2d_last_res =   9.44398848073340E-14
(PID.TID 0000.0001) // =======================================================
(PID.TID 0000.0001) // Begin MONITOR dynamic field statistics
(PID.TID 0000.0001) // =======================================================
(PID.TID 0000.0001) %MON time_tsnumber                =                    13
(PID.TID 0000.0001) %MON time_secondsf                =   1.1232000000000E+06
(PID.TID 0000.0001) %MON dynstat_eta_max              =   7.5719494454165E-01
(PID.TID 0000.0001) %MON dynstat_eta_min              =  -1.4058477992282E+00
(PID.TID 0000.0001) %MON dynstat_eta_mean             =  -9.0573379521437E-04
(PID.TID 0000.0001) %MON dynstat_eta_sd               =   5.4532892035661E-01
(PID.TID 0000.0001) %MON dynstat_eta_del2             =   1.7235376009166E-03
(PID.TID 0000.0001) %MON dynstat_uvel_max             =   1.9045498365078E-01
(PID.TID 0000.0001) %MON dynstat_uvel_min             =  -1.0070587883003E-01
(PID.TID 0000.0001) %MON dynstat_uvel_mean            =   5.3786830138102E-04
(PID.TID 0000.0001) %MON dynstat_uvel_sd              =   1.4836111718234E-02
(PID.TID 0000.0001) %MON dynstat_uvel_del2            =   9.1691999461726E-05
(PID.TID 0000.0001) %MON dynstat_vvel_max             =   1.0980610694788E-01
(PID.TID 0000.0001) %MON dynstat_vvel_min             =  -9.8968389886604E-02
(PID.TID 0000.0001) %MON dynstat_vvel_mean            =  -1.0875189982607E-05
(PID.TID 0000.0001) %MON dynstat_vvel_sd              =   9.2986965269975E-03
(PID.TID 0000.0001) %MON dynstat_vvel_del2            =   9.1884444530451E-05
(PID.TID 0000.0001) %MON dynstat_wvel_max             =   1.7598636162911E-04
(PID.TID 0000.0001) %MON dynstat_wvel_min             =  -1.9190651519916E-04
(PID.TID 0000.0001) %MON dynstat_wvel_mean            =   3.3205353190812E-22
(PID.TID 0000.0001) %MON dynstat_wvel_sd              =   1.8565588063427E-05
(PID.TID 0000.0001) %MON dynstat_wvel_del2            =   1.9295273683856E-07
(PID.TID 0000.0001) %MON dynstat_theta_max            =   2.9668665316052E+01
(PID.TID 0000.0001) %MON dynstat_theta_min            =  -1.9111792721510E+00
(PID.TID 0000.0001) %MON dynstat_theta_mean           =   3.6186264393248E+00
(PID.TID 0000.0001) %MON dynstat_theta_sd             =   4.4142325873742E+00
(PID.TID 0000.0001) %MON dynstat_theta_del2           =   4.9280323420180E-03
(PID.TID 0000.0001) %MON dynstat_salt_max             =   3.7435961099125E+01
(PID.TID 0000.0001) %MON dynstat_salt_min             =   2.9750585190294E+01
(PID.TID 0000.0001) %MON dynstat_salt_mean            =   3.4717189169853E+01
(PID.TID 0000.0001) %MON dynstat_salt_sd              =   2.9617012450509E-01
(PID.TID 0000.0001) %MON dynstat_salt_del2            =   1.0063989103675E-03
(PID.TID 0000.0001) %MON dynstat_sst_max              =   2.9668665316052E+01
(PID.TID 0000.0001) %MON dynstat_sst_min              =  -1.9111792721510E+00
(PID.TID 0000.0001) %MON dynstat_sst_mean             =   1.8602869111765E+01
(PID.TID 0000.0001) %MON dynstat_sst_sd               =   9.0744478868718E+00
(PID.TID 0000.0001) %MON dynstat_sst_del2             =   2.5471999913990E-02
(PID.TID 0000.0001) %MON dynstat_sss_max              =   3.7430591427797E+01
(PID.TID 0000.0001) %MON dynstat_sss_min              =   2.9750585190294E+01
(PID.TID 0000.0001) %MON dynstat_sss_mean             =   3.4853831959811E+01
(PID.TID 0000.0001) %MON dynstat_sss_sd               =   9.6842406083240E-01
(PID.TID 0000.0001) %MON dynstat_sss_del2             =   7.9203849240992E-03
(PID.TID 0000.0001) %MON forcing_qnet_max             =   4.3846905517578E+02
(PID.TID 0000.0001) %MON forcing_qnet_min             =  -1.8174754943848E+02
(PID.TID 0000.0001) %MON forcing_qnet_mean            =  -1.6550061868513E+01
(PID.TID 0000.0001) %MON forcing_qnet_sd              =   1.1042168913970E+02
(PID.TID 0000.0001) %MON forcing_qnet_del2            =   1.0147687802669E+00
(PID.TID 0000.0001) %MON forcing_qsw_max              =   0.0000000000000E+00
(PID.TID 0000.0001) %MON forcing_qsw_min              =   0.0000000000000E+00
(PID.TID 0000.0001) %MON forcing_qsw_mean             =   0.0000000000000E+00
(PID.TID 0000.0001) %MON forcing_qsw_sd               =   0.0000000000000E+00
(PID.TID 0000.0001) %MON forcing_qsw_del2             =   0.0000000000000E+00
(PID.TID 0000.0001) %MON forcing_empmr_max            =   8.1897606207804E-05
(PID.TID 0000.0001) %MON forcing_empmr_min            =  -7.4245208736556E-05
(PID.TID 0000.0001) %MON forcing_empmr_mean           =   8.9362778887410E-07
(PID.TID 0000.0001) %MON forcing_empmr_sd             =   2.8524757575518E-05
(PID.TID 0000.0001) %MON forcing_empmr_del2           =   3.6489898148972E-07
(PID.TID 0000.0001) %MON forcing_fu_max               =   2.7026165127754E-01
(PID.TID 0000.0001) %MON forcing_fu_min               =  -1.6844031065702E-01
(PID.TID 0000.0001) %MON forcing_fu_mean              =   1.6024813615678E-02
(PID.TID 0000.0001) %MON forcing_fu_sd                =   9.0687065718989E-02
(PID.TID 0000.0001) %MON forcing_fu_del2              =   7.0218537639472E-04
(PID.TID 0000.0001) %MON forcing_fv_max               =   2.2748160511255E-01
(PID.TID 0000.0001) %MON forcing_fv_min               =  -1.7989087253809E-01
(PID.TID 0000.0001) %MON forcing_fv_mean              =  -5.4801853200875E-03
(PID.TID 0000.0001) %MON forcing_fv_sd                =   4.7378348929193E-02
(PID.TID 0000.0001) %MON forcing_fv_del2              =   4.8014067006239E-04
(PID.TID 0000.0001) %MON trAdv_CFL_u_max              =   5.3720876835857E-02
(PID.TID 0000.0001) %MON trAdv_CFL_v_max              =   2.0393642627448E-02
(PID.TID 0000.0001) %MON trAdv_CFL_w_max              =   6.3341144410905E-02
(PID.TID 0000.0001) %MON advcfl_uvel_max              =   5.4741581809013E-02
(PID.TID 0000.0001) %MON advcfl_vvel_max              =   2.1333565501744E-02
(PID.TID 0000.0001) %MON advcfl_wvel_max              =   6.1616958809482E-02
(PID.TID 0000.0001) %MON advcfl_W_hf_max              =   6.9724453389677E-02
(PID.TID 0000.0001) %MON pe_b_mean                    =   3.8053925057963E-04
(PID.TID 0000.0001) %MON ke_max                       =   1.8024465080003E-02
(PID.TID 0000.0001) %MON ke_mean                      =   1.3894915606870E-04
(PID.TID 0000.0001) %MON ke_vol                       =   1.3226782436723E+18
(PID.TID 0000.0001) %MON vort_r_min                   =  -4.2031845946278E-07
(PID.TID 0000.0001) %MON vort_r_max                   =   3.5089684406031E-07
(PID.TID 0000.0001) %MON vort_a_mean                  =  -2.5274807130069E-05
(PID.TID 0000.0001) %MON vort_a_sd                    =   7.3604394305952E-05
(PID.TID 0000.0001) %MON vort_p_mean                  =  -3.1845655462577E-05
(PID.TID 0000.0001) %MON vort_p_sd                    =   1.3162378914380E-04
(PID.TID 0000.0001) %MON surfExpan_theta_mean         =   5.3003669855963E-07
(PID.TID 0000.0001) %MON surfExpan_salt_mean          =  -5.5932523747519E-08
(PID.TID 0000.0001) // =======================================================
(PID.TID 0000.0001) // End MONITOR dynamic field statistics
(PID.TID 0000.0001) // =======================================================
 EXTERNAL_FIELDS_LOAD,        13 : iP,iLd,i0,i1=   12    1   12    1 ; Wght=  0.0666666667  0.9333333333
 EXTERNAL_FIELDS_LOAD: (fu0,1),fu,fv= -4.5368E-02 -3.5633E-02 -3.6282E-02 -5.8123E-02
 EXTERNAL_FIELDS_LOAD: SST,SSS,Q,E-P=  8.3772E-01  3.4668E+01  2.6568E+02  1.1531E-05
DEBUG_STATS_RL:          Uvel (THERMODYNAMICS)  min= -1.00705878830031E-01
DEBUG_STATS_RL:          Uvel (THERMODYNAMICS)  max=  1.90454983650782E-01
DEBUG_STATS_RL:          Uvel (THERMODYNAMICS) mean=  6.31370602119150E-03
DEBUG_STATS_RL:          Uvel (THERMODYNAMICS) S.D.=  2.48135149561826E-02
DEBUG_STATS_RL:          Vvel (THERMODYNAMICS)  min= -9.89683898866040E-02
DEBUG_STATS_RL:          Vvel (THERMODYNAMICS)  max=  1.09806106947877E-01
DEBUG_STATS_RL:          Vvel (THERMODYNAMICS) mean= -4.40479008036673E-04
DEBUG_STATS_RL:          Vvel (THERMODYNAMICS) S.D.=  1.42143712853329E-02
DEBUG_STATS_RL:          Wvel (THERMODYNAMICS)  min= -1.91906515199159E-04
DEBUG_STATS_RL:          Wvel (THERMODYNAMICS)  max=  1.75986361629110E-04
DEBUG_STATS_RL:          Wvel (THERMODYNAMICS) mean= -3.01722732898860E-07
DEBUG_STATS_RL:          Wvel (THERMODYNAMICS) S.D.=  1.61288128288830E-05
DEBUG_STATS_RL:         Theta (THERMODYNAMICS)  min= -1.91193063415015E+00
DEBUG_STATS_RL:         Theta (THERMODYNAMICS)  max=  2.96708501354351E+01
DEBUG_STATS_RL:         Theta (THERMODYNAMICS) mean=  3.20515367600143E+00
DEBUG_STATS_RL:         Theta (THERMODYNAMICS) S.D.=  5.85174236049045E+00
DEBUG_STATS_RL:          Salt (THERMODYNAMICS)  min= -7.83495430699523E-04
DEBUG_STATS_RL:          Salt (THERMODYNAMICS)  max=  3.74366621742446E+01
DEBUG_STATS_RL:          Salt (THERMODYNAMICS) mean=  1.88444081942715E+01
DEBUG_STATS_RL:          Salt (THERMODYNAMICS) S.D.=  1.73006675775727E+01
DEBUG_STATS_RL:         GtNm1 (THERMODYNAMICS)  min= -2.95647471914195E-06
DEBUG_STATS_RL:         GtNm1 (THERMODYNAMICS)  max=  3.14306749565164E-06
DEBUG_STATS_RL:         GtNm1 (THERMODYNAMICS) mean=  1.44062760047158E-08
DEBUG_STATS_RL:         GtNm1 (THERMODYNAMICS) S.D.=  2.31677796919707E-07
DEBUG_STATS_RL:         GsNm1 (THERMODYNAMICS)  min= -6.03380643726594E-07
DEBUG_STATS_RL:         GsNm1 (THERMODYNAMICS)  max=  8.87698628152246E-07
DEBUG_STATS_RL:         GsNm1 (THERMODYNAMICS) mean=  2.07063276728019E-10
DEBUG_STATS_RL:         GsNm1 (THERMODYNAMICS) S.D.=  2.06716083439361E-08
DEBUG_STATS_RL:                EtaN (DYNAMICS)  min= -1.40584779922824E+00
DEBUG_STATS_RL:                EtaN (DYNAMICS)  max=  7.57194944541655E-01
DEBUG_STATS_RL:                EtaN (DYNAMICS) mean= -1.55271047861845E-01
DEBUG_STATS_RL:                EtaN (DYNAMICS) S.D.=  6.12679374303546E-01
DEBUG_STATS_RL:                Uvel (DYNAMICS)  min= -1.00705878830031E-01
DEBUG_STATS_RL:                Uvel (DYNAMICS)  max=  1.90454983650782E-01
DEBUG_STATS_RL:                Uvel (DYNAMICS) mean=  6.31370602119150E-03
DEBUG_STATS_RL:                Uvel (DYNAMICS) S.D.=  2.48135149561826E-02
DEBUG_STATS_RL:                Vvel (DYNAMICS)  min= -9.89683898866040E-02
DEBUG_STATS_RL:                Vvel (DYNAMICS)  max=  1.09806106947877E-01
DEBUG_STATS_RL:                Vvel (DYNAMICS) mean= -4.40479008036673E-04
DEBUG_STATS_RL:                Vvel (DYNAMICS) S.D.=  1.42143712853329E-02
DEBUG_STATS_RL:                Wvel (DYNAMICS)  min= -1.91906515199159E-04
DEBUG_STATS_RL:                Wvel (DYNAMICS)  max=  1.75986361629110E-04
DEBUG_STATS_RL:                Wvel (DYNAMICS) mean= -3.01722732898860E-07
DEBUG_STATS_RL:                Wvel (DYNAMICS) S.D.=  1.61288128288830E-05
DEBUG_STATS_RL:               Theta (DYNAMICS)  min= -1.91193063415015E+00
DEBUG_STATS_RL:               Theta (DYNAMICS)  max=  2.96708501354351E+01
DEBUG_STATS_RL:               Theta (DYNAMICS) mean=  3.20515367600143E+00
DEBUG_STATS_RL:               Theta (DYNAMICS) S.D.=  5.85174236049045E+00
DEBUG_STATS_RL:                Salt (DYNAMICS)  min= -7.83495430699523E-04
DEBUG_STATS_RL:                Salt (DYNAMICS)  max=  3.74366621742446E+01
DEBUG_STATS_RL:                Salt (DYNAMICS) mean=  1.88444081942715E+01
DEBUG_STATS_RL:                Salt (DYNAMICS) S.D.=  1.73006675775727E+01
DEBUG_STATS_RL:                  Gu (DYNAMICS)  min= -9.98089150075503E-02
DEBUG_STATS_RL:                  Gu (DYNAMICS)  max=  1.92178327826518E-01
DEBUG_STATS_RL:                  Gu (DYNAMICS) mean=  6.43657551190315E-03
DEBUG_STATS_RL:                  Gu (DYNAMICS) S.D.=  2.57157968795744E-02
DEBUG_STATS_RL:                  Gv (DYNAMICS)  min= -9.70850482107812E-02
DEBUG_STATS_RL:                  Gv (DYNAMICS)  max=  1.06389838851426E-01
DEBUG_STATS_RL:                  Gv (DYNAMICS) mean=  2.00865421975683E-03
DEBUG_STATS_RL:                  Gv (DYNAMICS) S.D.=  1.43350694883654E-02
DEBUG_STATS_RL:               GuNm1 (DYNAMICS)  min= -6.64590744473040E-06
DEBUG_STATS_RL:               GuNm1 (DYNAMICS)  max=  6.81429105162274E-06
DEBUG_STATS_RL:               GuNm1 (DYNAMICS) mean= -2.09285630617797E-08
DEBUG_STATS_RL:               GuNm1 (DYNAMICS) S.D.=  1.09893502674912E-06
DEBUG_STATS_RL:               GvNm1 (DYNAMICS)  min= -8.72043544987947E-06
DEBUG_STATS_RL:               GvNm1 (DYNAMICS)  max=  1.67390686056733E-05
DEBUG_STATS_RL:               GvNm1 (DYNAMICS) mean=  7.74837215015076E-07
DEBUG_STATS_RL:               GvNm1 (DYNAMICS) S.D.=  2.57972776678238E-06
DEBUG_STATS_RL:               GtNm1 (DYNAMICS)  min= -2.95647471914195E-06
DEBUG_STATS_RL:               GtNm1 (DYNAMICS)  max=  3.14306749565164E-06
DEBUG_STATS_RL:               GtNm1 (DYNAMICS) mean=  1.44062760047158E-08
DEBUG_STATS_RL:               GtNm1 (DYNAMICS) S.D.=  2.31677796919707E-07
DEBUG_STATS_RL:               GsNm1 (DYNAMICS)  min= -6.03380643726594E-07
DEBUG_STATS_RL:               GsNm1 (DYNAMICS)  max=  8.87698628152246E-07
DEBUG_STATS_RL:               GsNm1 (DYNAMICS) mean=  2.07063276728019E-10
DEBUG_STATS_RL:               GsNm1 (DYNAMICS) S.D.=  2.06716083439361E-08
DEBUG_STATS_RL:    cg2d_b (SOLVE_FOR_PRESSURE)  min= -1.62010444653896E+04
DEBUG_STATS_RL:    cg2d_b (SOLVE_FOR_PRESSURE)  max=  1.29662420884090E+04
DEBUG_STATS_RL:    cg2d_b (SOLVE_FOR_PRESSURE) mean=  9.40358842287295E-01
DEBUG_STATS_RL:    cg2d_b (SOLVE_FOR_PRESSURE) S.D.=  3.11240687171964E+03
 cg2d: Sum(rhs),rhsMax =   1.34369776253986E-01  1.06412797757980E+00
(PID.TID 0000.0001)  cg2d: iter=     1 ; resid.=  1.83533566419884E-01
(PID.TID 0000.0001)  cg2d: iter=     2 ; resid.=  1.13621171584254E-01
(PID.TID 0000.0001)  cg2d: iter=     3 ; resid.=  1.29770720551858E-01
(PID.TID 0000.0001)  cg2d: iter=     4 ; resid.=  1.32054269635333E-01
(PID.TID 0000.0001)  cg2d: iter=     5 ; resid.=  1.18799196437839E-01
(PID.TID 0000.0001)  cg2d: iter=     6 ; resid.=  9.65623818387257E-02
(PID.TID 0000.0001)  cg2d: iter=     7 ; resid.=  8.12584287203973E-02
(PID.TID 0000.0001)  cg2d: iter=     8 ; resid.=  6.37745547070459E-02
(PID.TID 0000.0001)  cg2d: iter=     9 ; resid.=  5.00489073098706E-02
(PID.TID 0000.0001)  cg2d: iter=    10 ; resid.=  4.02169257364196E-02
(PID.TID 0000.0001)  cg2d: iter=    11 ; resid.=  3.66045451978836E-02
(PID.TID 0000.0001)  cg2d: iter=    12 ; resid.=  3.15741371023323E-02
(PID.TID 0000.0001)  cg2d: iter=    13 ; resid.=  2.38712151336227E-02
(PID.TID 0000.0001)  cg2d: iter=    14 ; resid.=  1.84810065175418E-02
(PID.TID 0000.0001)  cg2d: iter=    15 ; resid.=  1.56712952171953E-02
(PID.TID 0000.0001)  cg2d: iter=    16 ; resid.=  1.34059605326703E-02
(PID.TID 0000.0001)  cg2d: iter=    17 ; resid.=  1.24786116429040E-02
(PID.TID 0000.0001)  cg2d: iter=    18 ; resid.=  1.08300935955108E-02
(PID.TID 0000.0001)  cg2d: iter=    19 ; resid.=  9.21695918286365E-03
(PID.TID 0000.0001)  cg2d: iter=    20 ; resid.=  7.80298599513022E-03
(PID.TID 0000.0001)  cg2d: iter=    21 ; resid.=  6.23332775408760E-03
(PID.TID 0000.0001)  cg2d: iter=    22 ; resid.=  5.03161159475494E-03
(PID.TID 0000.0001)  cg2d: iter=    23 ; resid.=  4.05125669750078E-03
(PID.TID 0000.0001)  cg2d: iter=    24 ; resid.=  3.44585826929212E-03
(PID.TID 0000.0001)  cg2d: iter=    25 ; resid.=  2.84323392425810E-03
(PID.TID 0000.0001)  cg2d: iter=    26 ; resid.=  2.28548788472623E-03
(PID.TID 0000.0001)  cg2d: iter=    27 ; resid.=  2.01330300692787E-03
(PID.TID 0000.0001)  cg2d: iter=    28 ; resid.=  1.95766406159274E-03
(PID.TID 0000.0001)  cg2d: iter=    29 ; resid.=  1.66664898358777E-03
(PID.TID 0000.0001)  cg2d: iter=    30 ; resid.=  1.24013528587271E-03
(PID.TID 0000.0001)  cg2d: iter=    31 ; resid.=  9.75583938296653E-04
(PID.TID 0000.0001)  cg2d: iter=    32 ; resid.=  7.87423744143131E-04
(PID.TID 0000.0001)  cg2d: iter=    33 ; resid.=  6.42642591344252E-04
(PID.TID 0000.0001)  cg2d: iter=    34 ; resid.=  5.41047841679293E-04
(PID.TID 0000.0001)  cg2d: iter=    35 ; resid.=  4.49675667102385E-04
(PID.TID 0000.0001)  cg2d: iter=    36 ; resid.=  3.92203291451086E-04
(PID.TID 0000.0001)  cg2d: iter=    37 ; resid.=  3.39260019861827E-04
(PID.TID 0000.0001)  cg2d: iter=    38 ; resid.=  2.93133794712431E-04
(PID.TID 0000.0001)  cg2d: iter=    39 ; resid.=  2.34036634829451E-04
(PID.TID 0000.0001)  cg2d: iter=    40 ; resid.=  1.81840860938239E-04
(PID.TID 0000.0001)  cg2d: iter=    41 ; resid.=  1.52778313959657E-04
(PID.TID 0000.0001)  cg2d: iter=    42 ; resid.=  1.48042075211159E-04
(PID.TID 0000.0001)  cg2d: iter=    43 ; resid.=  1.41213190796341E-04
(PID.TID 0000.0001)  cg2d: iter=    44 ; resid.=  1.15860692466211E-04
(PID.TID 0000.0001)  cg2d: iter=    45 ; resid.=  9.25217443477427E-05
(PID.TID 0000.0001)  cg2d: iter=    46 ; resid.=  7.53933822400879E-05
(PID.TID 0000.0001)  cg2d: iter=    47 ; resid.=  6.17161316441591E-05
(PID.TID 0000.0001)  cg2d: iter=    48 ; resid.=  5.22789789238939E-05
(PID.TID 0000.0001)  cg2d: iter=    49 ; resid.=  4.38181208072973E-05
(PID.TID 0000.0001)  cg2d: iter=    50 ; resid.=  3.65389652076452E-05
(PID.TID 0000.0001)  cg2d: iter=    51 ; resid.=  2.91481669713231E-05
(PID.TID 0000.0001)  cg2d: iter=    52 ; resid.=  2.36137390165720E-05
(PID.TID 0000.0001)  cg2d: iter=    53 ; resid.=  1.90805203481576E-05
(PID.TID 0000.0001)  cg2d: iter=    54 ; resid.=  1.59361470109483E-05
(PID.TID 0000.0001)  cg2d: iter=    55 ; resid.=  1.31367041581195E-05
(PID.TID 0000.0001)  cg2d: iter=    56 ; resid.=  1.04308074032812E-05
(PID.TID 0000.0001)  cg2d: iter=    57 ; resid.=  8.09898079974231E-06
(PID.TID 0000.0001)  cg2d: iter=    58 ; resid.=  6.34806314095667E-06
(PID.TID 0000.0001)  cg2d: iter=    59 ; resid.=  5.24725336638042E-06
(PID.TID 0000.0001)  cg2d: iter=    60 ; resid.=  4.13977033548019E-06
(PID.TID 0000.0001)  cg2d: iter=    61 ; resid.=  3.48180880731220E-06
(PID.TID 0000.0001)  cg2d: iter=    62 ; resid.=  3.06285291381745E-06
(PID.TID 0000.0001)  cg2d: iter=    63 ; resid.=  2.69342663569610E-06
(PID.TID 0000.0001)  cg2d: iter=    64 ; resid.=  2.33949350760528E-06
(PID.TID 0000.0001)  cg2d: iter=    65 ; resid.=  1.93745985107905E-06
(PID.TID 0000.0001)  cg2d: iter=    66 ; resid.=  1.46387964730566E-06
(PID.TID 0000.0001)  cg2d: iter=    67 ; resid.=  1.09285885869819E-06
(PID.TID 0000.0001)  cg2d: iter=    68 ; resid.=  8.79364649015161E-07
(PID.TID 0000.0001)  cg2d: iter=    69 ; resid.=  7.61484677689362E-07
(PID.TID 0000.0001)  cg2d: iter=    70 ; resid.=  6.85842311267947E-07
(PID.TID 0000.0001)  cg2d: iter=    71 ; resid.=  5.29344528494768E-07
(PID.TID 0000.0001)  cg2d: iter=    72 ; resid.=  4.04665166224729E-07
(PID.TID 0000.0001)  cg2d: iter=    73 ; resid.=  3.58205524727352E-07
(PID.TID 0000.0001)  cg2d: iter=    74 ; resid.=  3.47076388541948E-07
(PID.TID 0000.0001)  cg2d: iter=    75 ; resid.=  2.91413295971748E-07
(PID.TID 0000.0001)  cg2d: iter=    76 ; resid.=  2.32614242316350E-07
(PID.TID 0000.0001)  cg2d: iter=    77 ; resid.=  1.79883352614185E-07
(PID.TID 0000.0001)  cg2d: iter=    78 ; resid.=  1.55457591948140E-07
(PID.TID 0000.0001)  cg2d: iter=    79 ; resid.=  1.37263768036873E-07
(PID.TID 0000.0001)  cg2d: iter=    80 ; resid.=  1.09222156210490E-07
(PID.TID 0000.0001)  cg2d: iter=    81 ; resid.=  8.48244529299543E-08
(PID.TID 0000.0001)  cg2d: iter=    82 ; resid.=  6.49616713675068E-08
(PID.TID 0000.0001)  cg2d: iter=    83 ; resid.=  4.58718016197307E-08
(PID.TID 0000.0001)  cg2d: iter=    84 ; resid.=  3.08088267027289E-08
(PID.TID 0000.0001)  cg2d: iter=    85 ; resid.=  2.03279826376319E-08
(PID.TID 0000.0001)  cg2d: iter=    86 ; resid.=  1.48744172626419E-08
(PID.TID 0000.0001)  cg2d: iter=    87 ; resid.=  1.26081370097927E-08
(PID.TID 0000.0001)  cg2d: iter=    88 ; resid.=  9.95960538826915E-09
(PID.TID 0000.0001)  cg2d: iter=    89 ; resid.=  7.41055331050243E-09
(PID.TID 0000.0001)  cg2d: iter=    90 ; resid.=  5.69527475567724E-09
(PID.TID 0000.0001)  cg2d: iter=    91 ; resid.=  4.30802016907347E-09
(PID.TID 0000.0001)  cg2d: iter=    92 ; resid.=  3.41840130887627E-09
(PID.TID 0000.0001)  cg2d: iter=    93 ; resid.=  2.65360555525189E-09
(PID.TID 0000.0001)  cg2d: iter=    94 ; resid.=  1.96145856393762E-09
(PID.TID 0000.0001)  cg2d: iter=    95 ; resid.=  1.49186697488889E-09
(PID.TID 0000.0001)  cg2d: iter=    96 ; resid.=  1.15180692866143E-09
(PID.TID 0000.0001)  cg2d: iter=    97 ; resid.=  8.38683076519873E-10
(PID.TID 0000.0001)  cg2d: iter=    98 ; resid.=  6.00578080765050E-10
(PID.TID 0000.0001)  cg2d: iter=    99 ; resid.=  4.48340429332978E-10
(PID.TID 0000.0001)  cg2d: iter=   100 ; resid.=  3.46317740224836E-10
(PID.TID 0000.0001)  cg2d: iter=   101 ; resid.=  2.69679335619208E-10
(PID.TID 0000.0001)  cg2d: iter=   102 ; resid.=  2.03683025518908E-10
(PID.TID 0000.0001)  cg2d: iter=   103 ; resid.=  1.53875821488080E-10
(PID.TID 0000.0001)  cg2d: iter=   104 ; resid.=  1.13469970685769E-10
(PID.TID 0000.0001)  cg2d: iter=   105 ; resid.=  8.27864844050982E-11
(PID.TID 0000.0001)  cg2d: iter=   106 ; resid.=  5.87382716033333E-11
(PID.TID 0000.0001)  cg2d: iter=   107 ; resid.=  4.43296099225947E-11
(PID.TID 0000.0001)  cg2d: iter=   108 ; resid.=  3.58215492808588E-11
(PID.TID 0000.0001)  cg2d: iter=   109 ; resid.=  2.90304494666461E-11
(PID.TID 0000.0001)  cg2d: iter=   110 ; resid.=  2.22557061875349E-11
(PID.TID 0000.0001)  cg2d: iter=   111 ; resid.=  1.74061622957096E-11
(PID.TID 0000.0001)  cg2d: iter=   112 ; resid.=  1.56074530123058E-11
(PID.TID 0000.0001)  cg2d: iter=   113 ; resid.=  1.31934617298480E-11
(PID.TID 0000.0001)  cg2d: iter=   114 ; resid.=  9.58336198855076E-12
(PID.TID 0000.0001)  cg2d: iter=   115 ; resid.=  6.89603595989769E-12
(PID.TID 0000.0001)  cg2d: iter=   116 ; resid.=  5.32260615094639E-12
(PID.TID 0000.0001)  cg2d: iter=   117 ; resid.=  4.59170915334519E-12
(PID.TID 0000.0001)  cg2d: iter=   118 ; resid.=  3.86218208781246E-12
(PID.TID 0000.0001)  cg2d: iter=   119 ; resid.=  3.18147304305490E-12
(PID.TID 0000.0001)  cg2d: iter=   120 ; resid.=  2.77738076793066E-12
(PID.TID 0000.0001)  cg2d: iter=   121 ; resid.=  2.67750011353152E-12
(PID.TID 0000.0001)  cg2d: iter=   122 ; resid.=  2.33353661104626E-12
(PID.TID 0000.0001)  cg2d: iter=   123 ; resid.=  1.79810790519737E-12
(PID.TID 0000.0001)  cg2d: iter=   124 ; resid.=  1.30255731555312E-12
(PID.TID 0000.0001)  cg2d: iter=   125 ; resid.=  9.89031440138055E-13
(PID.TID 0000.0001)  cg2d: iter=   126 ; resid.=  7.78643861415987E-13
(PID.TID 0000.0001)  cg2d: iter=   127 ; resid.=  5.35908046062164E-13
(PID.TID 0000.0001)  cg2d: iter=   128 ; resid.=  3.45075406998489E-13
(PID.TID 0000.0001)  cg2d: iter=   129 ; resid.=  2.25579299573326E-13
(PID.TID 0000.0001)  cg2d: iter=   130 ; resid.=  1.74383189664050E-13
(PID.TID 0000.0001)  cg2d: iter=   131 ; resid.=  1.38178480783939E-13
(PID.TID 0000.0001)  cg2d: iter=   132 ; resid.=  1.02998927952492E-13
(PID.TID 0000.0001)  cg2d: iter=   133 ; resid.=  7.49255198367230E-14
DEBUG_STATS_RL:    cg2d_x (SOLVE_FOR_PRESSURE)  min= -1.41510136936387E+01
DEBUG_STATS_RL:    cg2d_x (SOLVE_FOR_PRESSURE)  max=  7.64312470504217E+00
DEBUG_STATS_RL:    cg2d_x (SOLVE_FOR_PRESSURE) mean= -1.54885396912407E+00
DEBUG_STATS_RL:    cg2d_x (SOLVE_FOR_PRESSURE) S.D.=  6.12592284108769E+00
(PID.TID 0000.0001)      cg2d_init_res =   6.99005032158028E-01
(PID.TID 0000.0001)      cg2d_iters(min,last) =      -1     133
(PID.TID 0000.0001)      cg2d_last_res =   7.49255198367230E-14
(PID.TID 0000.0001) // =======================================================
(PID.TID 0000.0001) // Begin MONITOR dynamic field statistics
(PID.TID 0000.0001) // =======================================================
(PID.TID 0000.0001) %MON time_tsnumber                =                    14
(PID.TID 0000.0001) %MON time_secondsf                =   1.2096000000000E+06
(PID.TID 0000.0001) %MON dynstat_eta_max              =   7.7911566819995E-01
(PID.TID 0000.0001) %MON dynstat_eta_min              =  -1.4425090411457E+00
(PID.TID 0000.0001) %MON dynstat_eta_mean             =  -9.8114785128019E-04
(PID.TID 0000.0001) %MON dynstat_eta_sd               =   5.5609246785977E-01
(PID.TID 0000.0001) %MON dynstat_eta_del2             =   1.7136907967745E-03
(PID.TID 0000.0001) %MON dynstat_uvel_max             =   1.9223569235827E-01
(PID.TID 0000.0001) %MON dynstat_uvel_min             =  -1.0426862287182E-01
(PID.TID 0000.0001) %MON dynstat_uvel_mean            =   6.1752531264319E-04
(PID.TID 0000.0001) %MON dynstat_uvel_sd              =   1.5320104629321E-02
(PID.TID 0000.0001) %MON dynstat_uvel_del2            =   9.3414345576680E-05
(PID.TID 0000.0001) %MON dynstat_vvel_max             =   1.1482019233042E-01
(PID.TID 0000.0001) %MON dynstat_vvel_min             =  -1.0244537965661E-01
(PID.TID 0000.0001) %MON dynstat_vvel_mean            =   4.8815667072271E-05
(PID.TID 0000.0001) %MON dynstat_vvel_sd              =   9.0121608015933E-03
(PID.TID 0000.0001) %MON dynstat_vvel_del2            =   8.8718578390652E-05
(PID.TID 0000.0001) %MON dynstat_wvel_max             =   1.5445557655908E-04
(PID.TID 0000.0001) %MON dynstat_wvel_min             =  -1.9406820369541E-04
(PID.TID 0000.0001) %MON dynstat_wvel_mean            =  -6.1336915684076E-23
(PID.TID 0000.0001) %MON dynstat_wvel_sd              =   1.7696513970926E-05
(PID.TID 0000.0001) %MON dynstat_wvel_del2            =   1.8625154160658E-07
(PID.TID 0000.0001) %MON dynstat_theta_max            =   2.9670850135435E+01
(PID.TID 0000.0001) %MON dynstat_theta_min            =  -1.9119306341501E+00
(PID.TID 0000.0001) %MON dynstat_theta_mean           =   3.6186735857162E+00
(PID.TID 0000.0001) %MON dynstat_theta_sd             =   4.4142243317533E+00
(PID.TID 0000.0001) %MON dynstat_theta_del2           =   4.9010212401055E-03
(PID.TID 0000.0001) %MON dynstat_salt_max             =   3.7436662174245E+01
(PID.TID 0000.0001) %MON dynstat_salt_min             =   2.9752548092219E+01
(PID.TID 0000.0001) %MON dynstat_salt_mean            =   3.4717190896759E+01
(PID.TID 0000.0001) %MON dynstat_salt_sd              =   2.9617496908149E-01
(PID.TID 0000.0001) %MON dynstat_salt_del2            =   1.0069439016052E-03
(PID.TID 0000.0001) %MON dynstat_sst_max              =   2.9670850135435E+01
(PID.TID 0000.0001) %MON dynstat_sst_min              =  -1.9119306341501E+00
(PID.TID 0000.0001) %MON dynstat_sst_mean             =   1.8609831862849E+01
(PID.TID 0000.0001) %MON dynstat_sst_sd               =   9.0720846117319E+00
(PID.TID 0000.0001) %MON dynstat_sst_del2             =   2.5475544591106E-02
(PID.TID 0000.0001) %MON dynstat_sss_max              =   3.7430242770470E+01
(PID.TID 0000.0001) %MON dynstat_sss_min              =   2.9752548092219E+01
(PID.TID 0000.0001) %MON dynstat_sss_mean             =   3.4853958622361E+01
(PID.TID 0000.0001) %MON dynstat_sss_sd               =   9.6884286529512E-01
(PID.TID 0000.0001) %MON dynstat_sss_del2             =   7.9213591054590E-03
(PID.TID 0000.0001) %MON forcing_qnet_max             =   4.3951724243164E+02
(PID.TID 0000.0001) %MON forcing_qnet_min             =  -1.8160680541992E+02
(PID.TID 0000.0001) %MON forcing_qnet_mean            =  -1.6537549912690E+01
(PID.TID 0000.0001) %MON forcing_qnet_sd              =   1.1023602940575E+02
(PID.TID 0000.0001) %MON forcing_qnet_del2            =   1.0178724043875E+00
(PID.TID 0000.0001) %MON forcing_qsw_max              =   0.0000000000000E+00
(PID.TID 0000.0001) %MON forcing_qsw_min              =   0.0000000000000E+00
(PID.TID 0000.0001) %MON forcing_qsw_mean             =   0.0000000000000E+00
(PID.TID 0000.0001) %MON forcing_qsw_sd               =   0.0000000000000E+00
(PID.TID 0000.0001) %MON forcing_qsw_del2             =   0.0000000000000E+00
(PID.TID 0000.0001) %MON forcing_empmr_max            =   8.1966015841317E-05
(PID.TID 0000.0001) %MON forcing_empmr_min            =  -7.4627556045925E-05
(PID.TID 0000.0001) %MON forcing_empmr_mean           =   9.0339754661961E-07
(PID.TID 0000.0001) %MON forcing_empmr_sd             =   2.8612540665613E-05
(PID.TID 0000.0001) %MON forcing_empmr_del2           =   3.6568031492728E-07
(PID.TID 0000.0001) %MON forcing_fu_max               =   2.7213588953018E-01
(PID.TID 0000.0001) %MON forcing_fu_min               =  -1.6925373077393E-01
(PID.TID 0000.0001) %MON forcing_fu_mean              =   1.6017120794640E-02
(PID.TID 0000.0001) %MON forcing_fu_sd                =   9.0801548316031E-02
(PID.TID 0000.0001) %MON forcing_fu_del2              =   7.0931845625836E-04
(PID.TID 0000.0001) %MON forcing_fv_max               =   2.2936151027679E-01
(PID.TID 0000.0001) %MON forcing_fv_min               =  -1.7930621504784E-01
(PID.TID 0000.0001) %MON forcing_fv_mean              =  -5.4064227932267E-03
(PID.TID 0000.0001) %MON forcing_fv_sd                =   4.7655349358660E-02
(PID.TID 0000.0001) %MON forcing_fv_del2              =   4.8616958739333E-04
(PID.TID 0000.0001) %MON trAdv_CFL_u_max              =   5.4752700215797E-02
(PID.TID 0000.0001) %MON trAdv_CFL_v_max              =   2.1510570085707E-02
(PID.TID 0000.0001) %MON trAdv_CFL_w_max              =   6.4695439717213E-02
(PID.TID 0000.0001) %MON advcfl_uvel_max              =   5.4534234239140E-02
(PID.TID 0000.0001) %MON advcfl_vvel_max              =   2.2307721875311E-02
(PID.TID 0000.0001) %MON advcfl_wvel_max              =   5.9199483990881E-02
(PID.TID 0000.0001) %MON advcfl_W_hf_max              =   6.5366096906598E-02
(PID.TID 0000.0001) %MON pe_b_mean                    =   3.9570959184090E-04
(PID.TID 0000.0001) %MON ke_max                       =   1.8473503804452E-02
(PID.TID 0000.0001) %MON ke_mean                      =   1.4326741424770E-04
(PID.TID 0000.0001) %MON ke_vol                       =   1.3226782436723E+18
(PID.TID 0000.0001) %MON vort_r_min                   =  -4.1925893987990E-07
(PID.TID 0000.0001) %MON vort_r_max                   =   3.6051664464236E-07
(PID.TID 0000.0001) %MON vort_a_mean                  =  -2.5274807041839E-05
(PID.TID 0000.0001) %MON vort_a_sd                    =   7.3604401843941E-05
(PID.TID 0000.0001) %MON vort_p_mean                  =  -3.1845655351410E-05
(PID.TID 0000.0001) %MON vort_p_sd                    =   1.3162373354237E-04
(PID.TID 0000.0001) %MON surfExpan_theta_mean         =   6.1505546110912E-07
(PID.TID 0000.0001) %MON surfExpan_salt_mean          =  -4.0769974469858E-08
(PID.TID 0000.0001) // =======================================================
(PID.TID 0000.0001) // End MONITOR dynamic field statistics
(PID.TID 0000.0001) // =======================================================
 EXTERNAL_FIELDS_LOAD,        14 : iP,iLd,i0,i1=   12    1   12    1 ; Wght=  0.0333333333  0.9666666667
 EXTERNAL_FIELDS_LOAD: (fu0,1),fu,fv= -4.5368E-02 -3.5633E-02 -3.5957E-02 -5.7690E-02
 EXTERNAL_FIELDS_LOAD: SST,SSS,Q,E-P=  8.9807E-01  3.4691E+01  2.6573E+02  1.1584E-05
DEBUG_STATS_RL:          Uvel (THERMODYNAMICS)  min= -1.04268622871817E-01
DEBUG_STATS_RL:          Uvel (THERMODYNAMICS)  max=  1.92235692358266E-01
DEBUG_STATS_RL:          Uvel (THERMODYNAMICS) mean=  6.50446835771640E-03
DEBUG_STATS_RL:          Uvel (THERMODYNAMICS) S.D.=  2.55416664698911E-02
DEBUG_STATS_RL:          Vvel (THERMODYNAMICS)  min= -1.02445379656615E-01
DEBUG_STATS_RL:          Vvel (THERMODYNAMICS)  max=  1.14820192330418E-01
DEBUG_STATS_RL:          Vvel (THERMODYNAMICS) mean=  8.11020505203037E-06
DEBUG_STATS_RL:          Vvel (THERMODYNAMICS) S.D.=  1.40455002736256E-02
DEBUG_STATS_RL:          Wvel (THERMODYNAMICS)  min= -1.94068203695406E-04
DEBUG_STATS_RL:          Wvel (THERMODYNAMICS)  max=  1.54455576559083E-04
DEBUG_STATS_RL:          Wvel (THERMODYNAMICS) mean= -1.85209804418253E-07
DEBUG_STATS_RL:          Wvel (THERMODYNAMICS) S.D.=  1.52830979648145E-05
DEBUG_STATS_RL:         Theta (THERMODYNAMICS)  min= -1.91254544745561E+00
DEBUG_STATS_RL:         Theta (THERMODYNAMICS)  max=  2.96740767387539E+01
DEBUG_STATS_RL:         Theta (THERMODYNAMICS) mean=  3.20558339984831E+00
DEBUG_STATS_RL:         Theta (THERMODYNAMICS) S.D.=  5.85219081270342E+00
DEBUG_STATS_RL:          Salt (THERMODYNAMICS)  min= -7.83495430699523E-04
DEBUG_STATS_RL:          Salt (THERMODYNAMICS)  max=  3.74374289650983E+01
DEBUG_STATS_RL:          Salt (THERMODYNAMICS) mean=  1.88444161518668E+01
DEBUG_STATS_RL:          Salt (THERMODYNAMICS) S.D.=  1.73006756732325E+01
DEBUG_STATS_RL:         GtNm1 (THERMODYNAMICS)  min= -4.57756679550291E-06
DEBUG_STATS_RL:         GtNm1 (THERMODYNAMICS)  max=  4.11572077569125E-06
DEBUG_STATS_RL:         GtNm1 (THERMODYNAMICS) mean=  1.18005710080942E-08
DEBUG_STATS_RL:         GtNm1 (THERMODYNAMICS) S.D.=  2.29154149642394E-07
DEBUG_STATS_RL:         GsNm1 (THERMODYNAMICS)  min= -1.06032970570869E-06
DEBUG_STATS_RL:         GsNm1 (THERMODYNAMICS)  max=  1.17719647344717E-06
DEBUG_STATS_RL:         GsNm1 (THERMODYNAMICS) mean=  1.46581175416685E-10
DEBUG_STATS_RL:         GsNm1 (THERMODYNAMICS) S.D.=  2.20636808441006E-08
DEBUG_STATS_RL:                EtaN (DYNAMICS)  min= -1.44250904114573E+00
DEBUG_STATS_RL:                EtaN (DYNAMICS)  max=  7.79115668199953E-01
DEBUG_STATS_RL:                EtaN (DYNAMICS) mean= -1.57885216016725E-01
DEBUG_STATS_RL:                EtaN (DYNAMICS) S.D.=  6.24456966471731E-01
DEBUG_STATS_RL:                Uvel (DYNAMICS)  min= -1.04268622871817E-01
DEBUG_STATS_RL:                Uvel (DYNAMICS)  max=  1.92235692358266E-01
DEBUG_STATS_RL:                Uvel (DYNAMICS) mean=  6.50446835771640E-03
DEBUG_STATS_RL:                Uvel (DYNAMICS) S.D.=  2.55416664698911E-02
DEBUG_STATS_RL:                Vvel (DYNAMICS)  min= -1.02445379656615E-01
DEBUG_STATS_RL:                Vvel (DYNAMICS)  max=  1.14820192330418E-01
DEBUG_STATS_RL:                Vvel (DYNAMICS) mean=  8.11020505203037E-06
DEBUG_STATS_RL:                Vvel (DYNAMICS) S.D.=  1.40455002736256E-02
DEBUG_STATS_RL:                Wvel (DYNAMICS)  min= -1.94068203695406E-04
DEBUG_STATS_RL:                Wvel (DYNAMICS)  max=  1.54455576559083E-04
DEBUG_STATS_RL:                Wvel (DYNAMICS) mean= -1.85209804418253E-07
DEBUG_STATS_RL:                Wvel (DYNAMICS) S.D.=  1.52830979648145E-05
DEBUG_STATS_RL:               Theta (DYNAMICS)  min= -1.91254544745561E+00
DEBUG_STATS_RL:               Theta (DYNAMICS)  max=  2.96740767387539E+01
DEBUG_STATS_RL:               Theta (DYNAMICS) mean=  3.20558339984831E+00
DEBUG_STATS_RL:               Theta (DYNAMICS) S.D.=  5.85219081270342E+00
DEBUG_STATS_RL:                Salt (DYNAMICS)  min= -7.83495430699523E-04
DEBUG_STATS_RL:                Salt (DYNAMICS)  max=  3.74374289650983E+01
DEBUG_STATS_RL:                Salt (DYNAMICS) mean=  1.88444161518668E+01
DEBUG_STATS_RL:                Salt (DYNAMICS) S.D.=  1.73006756732325E+01
DEBUG_STATS_RL:                  Gu (DYNAMICS)  min= -1.02889876110314E-01
DEBUG_STATS_RL:                  Gu (DYNAMICS)  max=  1.90550047311705E-01
DEBUG_STATS_RL:                  Gu (DYNAMICS) mean=  6.51342425328630E-03
DEBUG_STATS_RL:                  Gu (DYNAMICS) S.D.=  2.61195173155646E-02
DEBUG_STATS_RL:                  Gv (DYNAMICS)  min= -1.00196725728465E-01
DEBUG_STATS_RL:                  Gv (DYNAMICS)  max=  1.11104028772660E-01
DEBUG_STATS_RL:                  Gv (DYNAMICS) mean=  2.47389632558402E-03
DEBUG_STATS_RL:                  Gv (DYNAMICS) S.D.=  1.47378416699003E-02
DEBUG_STATS_RL:               GuNm1 (DYNAMICS)  min= -6.74995964788106E-06
DEBUG_STATS_RL:               GuNm1 (DYNAMICS)  max=  6.90496899543221E-06
DEBUG_STATS_RL:               GuNm1 (DYNAMICS) mean= -1.94707879508641E-08
DEBUG_STATS_RL:               GuNm1 (DYNAMICS) S.D.=  1.09810675112450E-06
DEBUG_STATS_RL:               GvNm1 (DYNAMICS)  min= -8.65287983012654E-06
DEBUG_STATS_RL:               GvNm1 (DYNAMICS)  max=  1.67980987806382E-05
DEBUG_STATS_RL:               GvNm1 (DYNAMICS) mean=  7.74647137751889E-07
DEBUG_STATS_RL:               GvNm1 (DYNAMICS) S.D.=  2.57142934829087E-06
DEBUG_STATS_RL:               GtNm1 (DYNAMICS)  min= -4.57756679550291E-06
DEBUG_STATS_RL:               GtNm1 (DYNAMICS)  max=  4.11572077569125E-06
DEBUG_STATS_RL:               GtNm1 (DYNAMICS) mean=  1.18005710080942E-08
DEBUG_STATS_RL:               GtNm1 (DYNAMICS) S.D.=  2.29154149642394E-07
DEBUG_STATS_RL:               GsNm1 (DYNAMICS)  min= -1.06032970570869E-06
DEBUG_STATS_RL:               GsNm1 (DYNAMICS)  max=  1.17719647344717E-06
DEBUG_STATS_RL:               GsNm1 (DYNAMICS) mean=  1.46581175416685E-10
DEBUG_STATS_RL:               GsNm1 (DYNAMICS) S.D.=  2.20636808441006E-08
DEBUG_STATS_RL:    cg2d_b (SOLVE_FOR_PRESSURE)  min= -1.67287920895476E+04
DEBUG_STATS_RL:    cg2d_b (SOLVE_FOR_PRESSURE)  max=  1.30984618199753E+04
DEBUG_STATS_RL:    cg2d_b (SOLVE_FOR_PRESSURE) mean=  1.01341938628392E+00
DEBUG_STATS_RL:    cg2d_b (SOLVE_FOR_PRESSURE) S.D.=  3.10645874506483E+03
 cg2d: Sum(rhs),rhsMax =   1.40241200122994E-01  1.09879185453956E+00
(PID.TID 0000.0001)  cg2d: iter=     1 ; resid.=  1.76165815457601E-01
(PID.TID 0000.0001)  cg2d: iter=     2 ; resid.=  1.06474117948297E-01
(PID.TID 0000.0001)  cg2d: iter=     3 ; resid.=  1.08534512095114E-01
(PID.TID 0000.0001)  cg2d: iter=     4 ; resid.=  1.13025015578767E-01
(PID.TID 0000.0001)  cg2d: iter=     5 ; resid.=  1.03974950896589E-01
(PID.TID 0000.0001)  cg2d: iter=     6 ; resid.=  8.92150973504922E-02
(PID.TID 0000.0001)  cg2d: iter=     7 ; resid.=  7.58572052963054E-02
(PID.TID 0000.0001)  cg2d: iter=     8 ; resid.=  6.11417577499278E-02
(PID.TID 0000.0001)  cg2d: iter=     9 ; resid.=  4.99526300584821E-02
(PID.TID 0000.0001)  cg2d: iter=    10 ; resid.=  4.15197905244665E-02
(PID.TID 0000.0001)  cg2d: iter=    11 ; resid.=  3.51733501118713E-02
(PID.TID 0000.0001)  cg2d: iter=    12 ; resid.=  2.84506470223748E-02
(PID.TID 0000.0001)  cg2d: iter=    13 ; resid.=  2.12119062419573E-02
(PID.TID 0000.0001)  cg2d: iter=    14 ; resid.=  1.73493434690425E-02
(PID.TID 0000.0001)  cg2d: iter=    15 ; resid.=  1.53537719909543E-02
(PID.TID 0000.0001)  cg2d: iter=    16 ; resid.=  1.38461399161302E-02
(PID.TID 0000.0001)  cg2d: iter=    17 ; resid.=  1.29235360395520E-02
(PID.TID 0000.0001)  cg2d: iter=    18 ; resid.=  1.09687689305088E-02
(PID.TID 0000.0001)  cg2d: iter=    19 ; resid.=  8.71186214865286E-03
(PID.TID 0000.0001)  cg2d: iter=    20 ; resid.=  7.03586319853758E-03
(PID.TID 0000.0001)  cg2d: iter=    21 ; resid.=  5.80954252245758E-03
(PID.TID 0000.0001)  cg2d: iter=    22 ; resid.=  4.95423351837561E-03
(PID.TID 0000.0001)  cg2d: iter=    23 ; resid.=  4.04123989732806E-03
(PID.TID 0000.0001)  cg2d: iter=    24 ; resid.=  3.52408230734174E-03
(PID.TID 0000.0001)  cg2d: iter=    25 ; resid.=  3.03407302581358E-03
(PID.TID 0000.0001)  cg2d: iter=    26 ; resid.=  2.59208021476604E-03
(PID.TID 0000.0001)  cg2d: iter=    27 ; resid.=  2.22880594452323E-03
(PID.TID 0000.0001)  cg2d: iter=    28 ; resid.=  1.95357327218702E-03
(PID.TID 0000.0001)  cg2d: iter=    29 ; resid.=  1.57430469705842E-03
(PID.TID 0000.0001)  cg2d: iter=    30 ; resid.=  1.23616276680374E-03
(PID.TID 0000.0001)  cg2d: iter=    31 ; resid.=  1.06638052355433E-03
(PID.TID 0000.0001)  cg2d: iter=    32 ; resid.=  8.44333599141543E-04
(PID.TID 0000.0001)  cg2d: iter=    33 ; resid.=  6.43051482944844E-04
(PID.TID 0000.0001)  cg2d: iter=    34 ; resid.=  5.09933710313907E-04
(PID.TID 0000.0001)  cg2d: iter=    35 ; resid.=  4.16753693105535E-04
(PID.TID 0000.0001)  cg2d: iter=    36 ; resid.=  3.41295129203871E-04
(PID.TID 0000.0001)  cg2d: iter=    37 ; resid.=  2.88798741927424E-04
(PID.TID 0000.0001)  cg2d: iter=    38 ; resid.=  2.66778982350309E-04
(PID.TID 0000.0001)  cg2d: iter=    39 ; resid.=  2.38412224881704E-04
(PID.TID 0000.0001)  cg2d: iter=    40 ; resid.=  2.01534652297872E-04
(PID.TID 0000.0001)  cg2d: iter=    41 ; resid.=  1.68907730816364E-04
(PID.TID 0000.0001)  cg2d: iter=    42 ; resid.=  1.49746057792575E-04
(PID.TID 0000.0001)  cg2d: iter=    43 ; resid.=  1.31125357955068E-04
(PID.TID 0000.0001)  cg2d: iter=    44 ; resid.=  1.05923486002004E-04
(PID.TID 0000.0001)  cg2d: iter=    45 ; resid.=  8.78859100545866E-05
(PID.TID 0000.0001)  cg2d: iter=    46 ; resid.=  7.08559798775515E-05
(PID.TID 0000.0001)  cg2d: iter=    47 ; resid.=  5.62164293940388E-05
(PID.TID 0000.0001)  cg2d: iter=    48 ; resid.=  4.68315616481615E-05
(PID.TID 0000.0001)  cg2d: iter=    49 ; resid.=  4.03660768837622E-05
(PID.TID 0000.0001)  cg2d: iter=    50 ; resid.=  3.33736100763605E-05
(PID.TID 0000.0001)  cg2d: iter=    51 ; resid.=  2.56056599986281E-05
(PID.TID 0000.0001)  cg2d: iter=    52 ; resid.=  1.89881981881148E-05
(PID.TID 0000.0001)  cg2d: iter=    53 ; resid.=  1.44414835358181E-05
(PID.TID 0000.0001)  cg2d: iter=    54 ; resid.=  1.20557507847971E-05
(PID.TID 0000.0001)  cg2d: iter=    55 ; resid.=  1.04796287038252E-05
(PID.TID 0000.0001)  cg2d: iter=    56 ; resid.=  8.90698065868624E-06
(PID.TID 0000.0001)  cg2d: iter=    57 ; resid.=  7.17540795592897E-06
(PID.TID 0000.0001)  cg2d: iter=    58 ; resid.=  5.34367066367148E-06
(PID.TID 0000.0001)  cg2d: iter=    59 ; resid.=  3.98118858323945E-06
(PID.TID 0000.0001)  cg2d: iter=    60 ; resid.=  2.89216571477733E-06
(PID.TID 0000.0001)  cg2d: iter=    61 ; resid.=  2.38354049709498E-06
(PID.TID 0000.0001)  cg2d: iter=    62 ; resid.=  2.20913297059048E-06
(PID.TID 0000.0001)  cg2d: iter=    63 ; resid.=  2.05993079673558E-06
(PID.TID 0000.0001)  cg2d: iter=    64 ; resid.=  1.78318114527383E-06
(PID.TID 0000.0001)  cg2d: iter=    65 ; resid.=  1.52255886989502E-06
(PID.TID 0000.0001)  cg2d: iter=    66 ; resid.=  1.26220964183183E-06
(PID.TID 0000.0001)  cg2d: iter=    67 ; resid.=  1.03635340143288E-06
(PID.TID 0000.0001)  cg2d: iter=    68 ; resid.=  8.40615832813157E-07
(PID.TID 0000.0001)  cg2d: iter=    69 ; resid.=  6.91413012634703E-07
(PID.TID 0000.0001)  cg2d: iter=    70 ; resid.=  5.70010828583145E-07
(PID.TID 0000.0001)  cg2d: iter=    71 ; resid.=  4.22096558138385E-07
(PID.TID 0000.0001)  cg2d: iter=    72 ; resid.=  3.26848275493702E-07
(PID.TID 0000.0001)  cg2d: iter=    73 ; resid.=  2.87016887832946E-07
(PID.TID 0000.0001)  cg2d: iter=    74 ; resid.=  2.60726510658127E-07
(PID.TID 0000.0001)  cg2d: iter=    75 ; resid.=  2.10649490421740E-07
(PID.TID 0000.0001)  cg2d: iter=    76 ; resid.=  1.64525151400593E-07
(PID.TID 0000.0001)  cg2d: iter=    77 ; resid.=  1.26268148935232E-07
(PID.TID 0000.0001)  cg2d: iter=    78 ; resid.=  1.05222443385020E-07
(PID.TID 0000.0001)  cg2d: iter=    79 ; resid.=  8.71031166505517E-08
(PID.TID 0000.0001)  cg2d: iter=    80 ; resid.=  7.10395376424638E-08
(PID.TID 0000.0001)  cg2d: iter=    81 ; resid.=  6.07991772566497E-08
(PID.TID 0000.0001)  cg2d: iter=    82 ; resid.=  5.23583385051216E-08
(PID.TID 0000.0001)  cg2d: iter=    83 ; resid.=  3.98913193819213E-08
(PID.TID 0000.0001)  cg2d: iter=    84 ; resid.=  2.83823741657678E-08
(PID.TID 0000.0001)  cg2d: iter=    85 ; resid.=  2.01147958797126E-08
(PID.TID 0000.0001)  cg2d: iter=    86 ; resid.=  1.58366018153469E-08
(PID.TID 0000.0001)  cg2d: iter=    87 ; resid.=  1.36639284047353E-08
(PID.TID 0000.0001)  cg2d: iter=    88 ; resid.=  1.04304256064227E-08
(PID.TID 0000.0001)  cg2d: iter=    89 ; resid.=  7.82001784294495E-09
(PID.TID 0000.0001)  cg2d: iter=    90 ; resid.=  6.61700835879074E-09
(PID.TID 0000.0001)  cg2d: iter=    91 ; resid.=  5.51797036832986E-09
(PID.TID 0000.0001)  cg2d: iter=    92 ; resid.=  4.47113961270245E-09
(PID.TID 0000.0001)  cg2d: iter=    93 ; resid.=  3.39424515650733E-09
(PID.TID 0000.0001)  cg2d: iter=    94 ; resid.=  2.52168747839765E-09
(PID.TID 0000.0001)  cg2d: iter=    95 ; resid.=  1.93667965300452E-09
(PID.TID 0000.0001)  cg2d: iter=    96 ; resid.=  1.52762594755058E-09
(PID.TID 0000.0001)  cg2d: iter=    97 ; resid.=  1.19130506640981E-09
(PID.TID 0000.0001)  cg2d: iter=    98 ; resid.=  8.98339183842572E-10
(PID.TID 0000.0001)  cg2d: iter=    99 ; resid.=  7.15876651500876E-10
(PID.TID 0000.0001)  cg2d: iter=   100 ; resid.=  6.11072894279592E-10
(PID.TID 0000.0001)  cg2d: iter=   101 ; resid.=  5.38443727070675E-10
(PID.TID 0000.0001)  cg2d: iter=   102 ; resid.=  4.78205757067589E-10
(PID.TID 0000.0001)  cg2d: iter=   103 ; resid.=  4.02777044439774E-10
(PID.TID 0000.0001)  cg2d: iter=   104 ; resid.=  3.25279685504682E-10
(PID.TID 0000.0001)  cg2d: iter=   105 ; resid.=  2.63700379405401E-10
(PID.TID 0000.0001)  cg2d: iter=   106 ; resid.=  2.20675641339558E-10
(PID.TID 0000.0001)  cg2d: iter=   107 ; resid.=  1.79198749729160E-10
(PID.TID 0000.0001)  cg2d: iter=   108 ; resid.=  1.37109143016483E-10
(PID.TID 0000.0001)  cg2d: iter=   109 ; resid.=  1.00841414753936E-10
(PID.TID 0000.0001)  cg2d: iter=   110 ; resid.=  7.36150240203112E-11
(PID.TID 0000.0001)  cg2d: iter=   111 ; resid.=  5.48528088002401E-11
(PID.TID 0000.0001)  cg2d: iter=   112 ; resid.=  4.29725837558631E-11
(PID.TID 0000.0001)  cg2d: iter=   113 ; resid.=  3.05995335884390E-11
(PID.TID 0000.0001)  cg2d: iter=   114 ; resid.=  1.98037280814301E-11
(PID.TID 0000.0001)  cg2d: iter=   115 ; resid.=  1.42002175034033E-11
(PID.TID 0000.0001)  cg2d: iter=   116 ; resid.=  1.05363452631852E-11
(PID.TID 0000.0001)  cg2d: iter=   117 ; resid.=  7.75927126436875E-12
(PID.TID 0000.0001)  cg2d: iter=   118 ; resid.=  5.45456690211108E-12
(PID.TID 0000.0001)  cg2d: iter=   119 ; resid.=  3.86593017221456E-12
(PID.TID 0000.0001)  cg2d: iter=   120 ; resid.=  2.76717363103473E-12
(PID.TID 0000.0001)  cg2d: iter=   121 ; resid.=  2.18531478541690E-12
(PID.TID 0000.0001)  cg2d: iter=   122 ; resid.=  1.83738840005813E-12
(PID.TID 0000.0001)  cg2d: iter=   123 ; resid.=  1.56539346658140E-12
(PID.TID 0000.0001)  cg2d: iter=   124 ; resid.=  1.29837499448701E-12
(PID.TID 0000.0001)  cg2d: iter=   125 ; resid.=  1.02355570099501E-12
(PID.TID 0000.0001)  cg2d: iter=   126 ; resid.=  7.78107301789733E-13
(PID.TID 0000.0001)  cg2d: iter=   127 ; resid.=  5.27378263024889E-13
(PID.TID 0000.0001)  cg2d: iter=   128 ; resid.=  3.45651864564522E-13
(PID.TID 0000.0001)  cg2d: iter=   129 ; resid.=  2.20552130953077E-13
(PID.TID 0000.0001)  cg2d: iter=   130 ; resid.=  1.61236007657136E-13
(PID.TID 0000.0001)  cg2d: iter=   131 ; resid.=  1.21946952601197E-13
(PID.TID 0000.0001)  cg2d: iter=   132 ; resid.=  8.72175811095396E-14
DEBUG_STATS_RL:    cg2d_x (SOLVE_FOR_PRESSURE)  min= -1.45342811451568E+01
DEBUG_STATS_RL:    cg2d_x (SOLVE_FOR_PRESSURE)  max=  7.98064803248509E+00
DEBUG_STATS_RL:    cg2d_x (SOLVE_FOR_PRESSURE) mean= -1.57705152074863E+00
DEBUG_STATS_RL:    cg2d_x (SOLVE_FOR_PRESSURE) S.D.=  6.23706600824166E+00
(PID.TID 0000.0001)      cg2d_init_res =   6.35897509943313E-01
(PID.TID 0000.0001)      cg2d_iters(min,last) =      -1     132
(PID.TID 0000.0001)      cg2d_last_res =   8.72175811095396E-14
(PID.TID 0000.0001) // =======================================================
(PID.TID 0000.0001) // Begin MONITOR dynamic field statistics
(PID.TID 0000.0001) // =======================================================
(PID.TID 0000.0001) %MON time_tsnumber                =                    15
(PID.TID 0000.0001) %MON time_secondsf                =   1.2960000000000E+06
(PID.TID 0000.0001) %MON dynstat_eta_max              =   8.1352171584964E-01
(PID.TID 0000.0001) %MON dynstat_eta_min              =  -1.4815780983850E+00
(PID.TID 0000.0001) %MON dynstat_eta_mean             =  -1.0573774697310E-03
(PID.TID 0000.0001) %MON dynstat_eta_sd               =   5.6603816016535E-01
(PID.TID 0000.0001) %MON dynstat_eta_del2             =   1.7137745396450E-03
(PID.TID 0000.0001) %MON dynstat_uvel_max             =   1.9042190079530E-01
(PID.TID 0000.0001) %MON dynstat_uvel_min             =  -1.0693217017372E-01
(PID.TID 0000.0001) %MON dynstat_uvel_mean            =   6.9728864736254E-04
(PID.TID 0000.0001) %MON dynstat_uvel_sd              =   1.5600874954734E-02
(PID.TID 0000.0001) %MON dynstat_uvel_del2            =   9.4775876262914E-05
(PID.TID 0000.0001) %MON dynstat_vvel_max             =   1.1913398152083E-01
(PID.TID 0000.0001) %MON dynstat_vvel_min             =  -1.0521566552979E-01
(PID.TID 0000.0001) %MON dynstat_vvel_mean            =   8.1021969599729E-05
(PID.TID 0000.0001) %MON dynstat_vvel_sd              =   8.8478855313918E-03
(PID.TID 0000.0001) %MON dynstat_vvel_del2            =   8.6721619506336E-05
(PID.TID 0000.0001) %MON dynstat_wvel_max             =   1.5447560145748E-04
(PID.TID 0000.0001) %MON dynstat_wvel_min             =  -1.9428145577966E-04
(PID.TID 0000.0001) %MON dynstat_wvel_mean            =   2.7151869174612E-22
(PID.TID 0000.0001) %MON dynstat_wvel_sd              =   1.7282558602673E-05
(PID.TID 0000.0001) %MON dynstat_wvel_del2            =   1.8794661016764E-07
(PID.TID 0000.0001) %MON dynstat_theta_max            =   2.9674076738754E+01
(PID.TID 0000.0001) %MON dynstat_theta_min            =  -1.9125454474556E+00
(PID.TID 0000.0001) %MON dynstat_theta_mean           =   3.6187199419857E+00
(PID.TID 0000.0001) %MON dynstat_theta_sd             =   4.4142176937733E+00
(PID.TID 0000.0001) %MON dynstat_theta_del2           =   4.8798991801625E-03
(PID.TID 0000.0001) %MON dynstat_salt_max             =   3.7437428965098E+01
(PID.TID 0000.0001) %MON dynstat_salt_min             =   2.9754788350155E+01
(PID.TID 0000.0001) %MON dynstat_salt_mean            =   3.4717192272924E+01
(PID.TID 0000.0001) %MON dynstat_salt_sd              =   2.9617925799693E-01
(PID.TID 0000.0001) %MON dynstat_salt_del2            =   1.0076911044742E-03
(PID.TID 0000.0001) %MON dynstat_sst_max              =   2.9674076738754E+01
(PID.TID 0000.0001) %MON dynstat_sst_min              =  -1.9125454474556E+00
(PID.TID 0000.0001) %MON dynstat_sst_mean             =   1.8615773722270E+01
(PID.TID 0000.0001) %MON dynstat_sst_sd               =   9.0708114503858E+00
(PID.TID 0000.0001) %MON dynstat_sst_del2             =   2.5518299387902E-02
(PID.TID 0000.0001) %MON dynstat_sss_max              =   3.7430016094431E+01
(PID.TID 0000.0001) %MON dynstat_sss_min              =   2.9754788350155E+01
(PID.TID 0000.0001) %MON dynstat_sss_mean             =   3.4853965569709E+01
(PID.TID 0000.0001) %MON dynstat_sss_sd               =   9.6924229695006E-01
(PID.TID 0000.0001) %MON dynstat_sss_del2             =   7.9273879059732E-03
(PID.TID 0000.0001) %MON forcing_qnet_max             =   4.4056542968750E+02
(PID.TID 0000.0001) %MON forcing_qnet_min             =  -1.8146606140137E+02
(PID.TID 0000.0001) %MON forcing_qnet_mean            =  -1.6525037956867E+01
(PID.TID 0000.0001) %MON forcing_qnet_sd              =   1.1005308947553E+02
(PID.TID 0000.0001) %MON forcing_qnet_del2            =   1.0211400522004E+00
(PID.TID 0000.0001) %MON forcing_qsw_max              =   0.0000000000000E+00
(PID.TID 0000.0001) %MON forcing_qsw_min              =   0.0000000000000E+00
(PID.TID 0000.0001) %MON forcing_qsw_mean             =   0.0000000000000E+00
(PID.TID 0000.0001) %MON forcing_qsw_sd               =   0.0000000000000E+00
(PID.TID 0000.0001) %MON forcing_qsw_del2             =   0.0000000000000E+00
(PID.TID 0000.0001) %MON forcing_empmr_max            =   8.2070127405132E-05
(PID.TID 0000.0001) %MON forcing_empmr_min            =  -7.5009903355294E-05
(PID.TID 0000.0001) %MON forcing_empmr_mean           =   9.1316730436512E-07
(PID.TID 0000.0001) %MON forcing_empmr_sd             =   2.8704317606931E-05
(PID.TID 0000.0001) %MON forcing_empmr_del2           =   3.6657303344582E-07
(PID.TID 0000.0001) %MON forcing_fu_max               =   2.7545738518238E-01
(PID.TID 0000.0001) %MON forcing_fu_min               =  -1.7006715089083E-01
(PID.TID 0000.0001) %MON forcing_fu_mean              =   1.6009427973603E-02
(PID.TID 0000.0001) %MON forcing_fu_sd                =   9.0926657900263E-02
(PID.TID 0000.0001) %MON forcing_fu_del2              =   7.1687269957315E-04
(PID.TID 0000.0001) %MON forcing_fv_max               =   2.3124141544104E-01
(PID.TID 0000.0001) %MON forcing_fv_min               =  -1.7872155755758E-01
(PID.TID 0000.0001) %MON forcing_fv_mean              =  -5.3326602663659E-03
(PID.TID 0000.0001) %MON forcing_fv_sd                =   4.7945514242523E-02
(PID.TID 0000.0001) %MON forcing_fv_del2              =   4.9262259263652E-04
(PID.TID 0000.0001) %MON trAdv_CFL_u_max              =   5.4545310532149E-02
(PID.TID 0000.0001) %MON trAdv_CFL_v_max              =   2.2492809034294E-02
(PID.TID 0000.0001) %MON trAdv_CFL_w_max              =   6.5366096906598E-02
(PID.TID 0000.0001) %MON advcfl_uvel_max              =   5.3257720482031E-02
(PID.TID 0000.0001) %MON advcfl_vvel_max              =   2.3145821930147E-02
(PID.TID 0000.0001) %MON advcfl_wvel_max              =   5.9198538198751E-02
(PID.TID 0000.0001) %MON advcfl_W_hf_max              =   6.5365052594454E-02
(PID.TID 0000.0001) %MON pe_b_mean                    =   4.0999082411619E-04
(PID.TID 0000.0001) %MON ke_max                       =   1.8592973793151E-02
(PID.TID 0000.0001) %MON ke_mean                      =   1.4594397704648E-04
(PID.TID 0000.0001) %MON ke_vol                       =   1.3226782436723E+18
(PID.TID 0000.0001) %MON vort_r_min                   =  -4.0985329208865E-07
(PID.TID 0000.0001) %MON vort_r_max                   =   3.7275166032504E-07
(PID.TID 0000.0001) %MON vort_a_mean                  =  -2.5274806959293E-05
(PID.TID 0000.0001) %MON vort_a_sd                    =   7.3604410931442E-05
(PID.TID 0000.0001) %MON vort_p_mean                  =  -3.1845655247404E-05
(PID.TID 0000.0001) %MON vort_p_sd                    =   1.3162373155300E-04
(PID.TID 0000.0001) %MON surfExpan_theta_mean         =   6.3457260018828E-07
(PID.TID 0000.0001) %MON surfExpan_salt_mean          =  -2.3552099094604E-08
(PID.TID 0000.0001) // =======================================================
(PID.TID 0000.0001) // End MONITOR dynamic field statistics
(PID.TID 0000.0001) // =======================================================
 EXTERNAL_FIELDS_LOAD,        15 : iP,iLd,i0,i1=   12    1    1    2 ; Wght=  1.0000000000  0.0000000000
 EXTERNAL_FIELDS_LOAD, it=        15 : Reading new data, i0,i1=    1    2 (prev=   12    1 )
(PID.TID 0000.0001)  MDS_READ_FIELD: opening global file: trenberth_taux.bin
(PID.TID 0000.0001)  MDS_READ_FIELD: opening global file: trenberth_taux.bin
(PID.TID 0000.0001)  MDS_READ_FIELD: opening global file: trenberth_tauy.bin
(PID.TID 0000.0001)  MDS_READ_FIELD: opening global file: trenberth_tauy.bin
(PID.TID 0000.0001)  MDS_READ_FIELD: opening global file: ncep_qnet.bin
(PID.TID 0000.0001)  MDS_READ_FIELD: opening global file: ncep_qnet.bin
(PID.TID 0000.0001)  MDS_READ_FIELD: opening global file: ncep_emp.bin
(PID.TID 0000.0001)  MDS_READ_FIELD: opening global file: ncep_emp.bin
(PID.TID 0000.0001)  MDS_READ_FIELD: opening global file: lev_sst.bin
(PID.TID 0000.0001)  MDS_READ_FIELD: opening global file: lev_sst.bin
(PID.TID 0000.0001)  MDS_READ_FIELD: opening global file: lev_sss.bin
(PID.TID 0000.0001)  MDS_READ_FIELD: opening global file: lev_sss.bin
 EXTERNAL_FIELDS_LOAD: (fu0,1),fu,fv= -3.5633E-02 -1.4435E-02 -3.5633E-02 -5.7257E-02
 EXTERNAL_FIELDS_LOAD: SST,SSS,Q,E-P=  9.5843E-01  3.4715E+01  2.6577E+02  1.1637E-05
DEBUG_STATS_RL:          Uvel (THERMODYNAMICS)  min= -1.06932170173716E-01
DEBUG_STATS_RL:          Uvel (THERMODYNAMICS)  max=  1.90421900795303E-01
DEBUG_STATS_RL:          Uvel (THERMODYNAMICS) mean=  6.57721465053402E-03
DEBUG_STATS_RL:          Uvel (THERMODYNAMICS) S.D.=  2.59212880545405E-02
DEBUG_STATS_RL:          Vvel (THERMODYNAMICS)  min= -1.05215665529790E-01
DEBUG_STATS_RL:          Vvel (THERMODYNAMICS)  max=  1.19133981520832E-01
DEBUG_STATS_RL:          Vvel (THERMODYNAMICS) mean=  4.32957468236830E-04
DEBUG_STATS_RL:          Vvel (THERMODYNAMICS) S.D.=  1.41060628830765E-02
DEBUG_STATS_RL:          Wvel (THERMODYNAMICS)  min= -1.94281455779658E-04
DEBUG_STATS_RL:          Wvel (THERMODYNAMICS)  max=  1.54475601457476E-04
DEBUG_STATS_RL:          Wvel (THERMODYNAMICS) mean= -6.40914586706852E-08
DEBUG_STATS_RL:          Wvel (THERMODYNAMICS) S.D.=  1.49860688946305E-05
DEBUG_STATS_RL:         Theta (THERMODYNAMICS)  min= -1.91304834787877E+00
DEBUG_STATS_RL:         Theta (THERMODYNAMICS)  max=  2.96786618808161E+01
DEBUG_STATS_RL:         Theta (THERMODYNAMICS) mean=  3.20589381068038E+00
DEBUG_STATS_RL:         Theta (THERMODYNAMICS) S.D.=  5.85256867508012E+00
DEBUG_STATS_RL:          Salt (THERMODYNAMICS)  min= -7.83495430699523E-04
DEBUG_STATS_RL:          Salt (THERMODYNAMICS)  max=  3.74382883978818E+01
DEBUG_STATS_RL:          Salt (THERMODYNAMICS) mean=  1.88444207183511E+01
DEBUG_STATS_RL:          Salt (THERMODYNAMICS) S.D.=  1.73006805704930E+01
DEBUG_STATS_RL:         GtNm1 (THERMODYNAMICS)  min= -5.99074655175361E-06
DEBUG_STATS_RL:         GtNm1 (THERMODYNAMICS)  max=  4.89602405395087E-06
DEBUG_STATS_RL:         GtNm1 (THERMODYNAMICS) mean=  9.32196521069527E-09
DEBUG_STATS_RL:         GtNm1 (THERMODYNAMICS) S.D.=  2.30332636208802E-07
DEBUG_STATS_RL:         GsNm1 (THERMODYNAMICS)  min= -1.45068650438482E-06
DEBUG_STATS_RL:         GsNm1 (THERMODYNAMICS)  max=  1.40978294461885E-06
DEBUG_STATS_RL:         GsNm1 (THERMODYNAMICS) mean=  9.52646636063774E-11
DEBUG_STATS_RL:         GsNm1 (THERMODYNAMICS) S.D.=  2.45669359800358E-08
DEBUG_STATS_RL:                EtaN (DYNAMICS)  min= -1.48157809838504E+00
DEBUG_STATS_RL:                EtaN (DYNAMICS)  max=  8.13521715849635E-01
DEBUG_STATS_RL:                EtaN (DYNAMICS) mean= -1.60759584174172E-01
DEBUG_STATS_RL:                EtaN (DYNAMICS) S.D.=  6.35786545182637E-01
DEBUG_STATS_RL:                Uvel (DYNAMICS)  min= -1.06932170173716E-01
DEBUG_STATS_RL:                Uvel (DYNAMICS)  max=  1.90421900795303E-01
DEBUG_STATS_RL:                Uvel (DYNAMICS) mean=  6.57721465053402E-03
DEBUG_STATS_RL:                Uvel (DYNAMICS) S.D.=  2.59212880545405E-02
DEBUG_STATS_RL:                Vvel (DYNAMICS)  min= -1.05215665529790E-01
DEBUG_STATS_RL:                Vvel (DYNAMICS)  max=  1.19133981520832E-01
DEBUG_STATS_RL:                Vvel (DYNAMICS) mean=  4.32957468236830E-04
DEBUG_STATS_RL:                Vvel (DYNAMICS) S.D.=  1.41060628830765E-02
DEBUG_STATS_RL:                Wvel (DYNAMICS)  min= -1.94281455779658E-04
DEBUG_STATS_RL:                Wvel (DYNAMICS)  max=  1.54475601457476E-04
DEBUG_STATS_RL:                Wvel (DYNAMICS) mean= -6.40914586706852E-08
DEBUG_STATS_RL:                Wvel (DYNAMICS) S.D.=  1.49860688946305E-05
DEBUG_STATS_RL:               Theta (DYNAMICS)  min= -1.91304834787877E+00
DEBUG_STATS_RL:               Theta (DYNAMICS)  max=  2.96786618808161E+01
DEBUG_STATS_RL:               Theta (DYNAMICS) mean=  3.20589381068038E+00
DEBUG_STATS_RL:               Theta (DYNAMICS) S.D.=  5.85256867508012E+00
DEBUG_STATS_RL:                Salt (DYNAMICS)  min= -7.83495430699523E-04
DEBUG_STATS_RL:                Salt (DYNAMICS)  max=  3.74382883978818E+01
DEBUG_STATS_RL:                Salt (DYNAMICS) mean=  1.88444207183511E+01
DEBUG_STATS_RL:                Salt (DYNAMICS) S.D.=  1.73006805704930E+01
DEBUG_STATS_RL:                  Gu (DYNAMICS)  min= -1.09107640285109E-01
DEBUG_STATS_RL:                  Gu (DYNAMICS)  max=  1.90645934339001E-01
DEBUG_STATS_RL:                  Gu (DYNAMICS) mean=  6.47237256883278E-03
DEBUG_STATS_RL:                  Gu (DYNAMICS) S.D.=  2.61874192107075E-02
DEBUG_STATS_RL:                  Gv (DYNAMICS)  min= -1.02613356376854E-01
DEBUG_STATS_RL:                  Gv (DYNAMICS)  max=  1.15112528620523E-01
DEBUG_STATS_RL:                  Gv (DYNAMICS) mean=  2.89645389402602E-03
DEBUG_STATS_RL:                  Gv (DYNAMICS) S.D.=  1.53341155036363E-02
DEBUG_STATS_RL:               GuNm1 (DYNAMICS)  min= -6.87592555249151E-06
DEBUG_STATS_RL:               GuNm1 (DYNAMICS)  max=  7.04436817656164E-06
DEBUG_STATS_RL:               GuNm1 (DYNAMICS) mean= -1.81278027340600E-08
DEBUG_STATS_RL:               GuNm1 (DYNAMICS) S.D.=  1.10088975495808E-06
DEBUG_STATS_RL:               GvNm1 (DYNAMICS)  min= -8.64588855024441E-06
DEBUG_STATS_RL:               GvNm1 (DYNAMICS)  max=  1.68495923504112E-05
DEBUG_STATS_RL:               GvNm1 (DYNAMICS) mean=  7.74463823910083E-07
DEBUG_STATS_RL:               GvNm1 (DYNAMICS) S.D.=  2.56694110781987E-06
DEBUG_STATS_RL:               GtNm1 (DYNAMICS)  min= -5.99074655175361E-06
DEBUG_STATS_RL:               GtNm1 (DYNAMICS)  max=  4.89602405395087E-06
DEBUG_STATS_RL:               GtNm1 (DYNAMICS) mean=  9.32196521069527E-09
DEBUG_STATS_RL:               GtNm1 (DYNAMICS) S.D.=  2.30332636208802E-07
DEBUG_STATS_RL:               GsNm1 (DYNAMICS)  min= -1.45068650438482E-06
DEBUG_STATS_RL:               GsNm1 (DYNAMICS)  max=  1.40978294461885E-06
DEBUG_STATS_RL:               GsNm1 (DYNAMICS) mean=  9.52646636063774E-11
DEBUG_STATS_RL:               GsNm1 (DYNAMICS) S.D.=  2.45669359800358E-08
DEBUG_STATS_RL:    cg2d_b (SOLVE_FOR_PRESSURE)  min= -1.74436011351915E+04
DEBUG_STATS_RL:    cg2d_b (SOLVE_FOR_PRESSURE)  max=  1.31624863275002E+04
DEBUG_STATS_RL:    cg2d_b (SOLVE_FOR_PRESSURE) mean=  1.08726158749828E+00
DEBUG_STATS_RL:    cg2d_b (SOLVE_FOR_PRESSURE) S.D.=  3.12156396965072E+03
 cg2d: Sum(rhs),rhsMax =   1.44294205969904E-01  1.14574242650556E+00
(PID.TID 0000.0001)  cg2d: iter=     1 ; resid.=  1.73245427556131E-01
(PID.TID 0000.0001)  cg2d: iter=     2 ; resid.=  1.05564530172324E-01
(PID.TID 0000.0001)  cg2d: iter=     3 ; resid.=  1.01834666243162E-01
(PID.TID 0000.0001)  cg2d: iter=     4 ; resid.=  9.81007029976200E-02
(PID.TID 0000.0001)  cg2d: iter=     5 ; resid.=  8.79199722605133E-02
(PID.TID 0000.0001)  cg2d: iter=     6 ; resid.=  7.65785482723201E-02
(PID.TID 0000.0001)  cg2d: iter=     7 ; resid.=  6.77780760836828E-02
(PID.TID 0000.0001)  cg2d: iter=     8 ; resid.=  5.55799904070921E-02
(PID.TID 0000.0001)  cg2d: iter=     9 ; resid.=  4.77098034880500E-02
(PID.TID 0000.0001)  cg2d: iter=    10 ; resid.=  4.12973605001909E-02
(PID.TID 0000.0001)  cg2d: iter=    11 ; resid.=  3.50565501307726E-02
(PID.TID 0000.0001)  cg2d: iter=    12 ; resid.=  2.76949451272213E-02
(PID.TID 0000.0001)  cg2d: iter=    13 ; resid.=  2.08681541520451E-02
(PID.TID 0000.0001)  cg2d: iter=    14 ; resid.=  1.72847407725987E-02
(PID.TID 0000.0001)  cg2d: iter=    15 ; resid.=  1.56619102911218E-02
(PID.TID 0000.0001)  cg2d: iter=    16 ; resid.=  1.47208247240312E-02
(PID.TID 0000.0001)  cg2d: iter=    17 ; resid.=  1.38807102179120E-02
(PID.TID 0000.0001)  cg2d: iter=    18 ; resid.=  1.14050747065474E-02
(PID.TID 0000.0001)  cg2d: iter=    19 ; resid.=  8.63322252833011E-03
(PID.TID 0000.0001)  cg2d: iter=    20 ; resid.=  6.51011762703951E-03
(PID.TID 0000.0001)  cg2d: iter=    21 ; resid.=  5.16389177650098E-03
(PID.TID 0000.0001)  cg2d: iter=    22 ; resid.=  4.30414479483214E-03
(PID.TID 0000.0001)  cg2d: iter=    23 ; resid.=  3.54522319279481E-03
(PID.TID 0000.0001)  cg2d: iter=    24 ; resid.=  3.24634716439118E-03
(PID.TID 0000.0001)  cg2d: iter=    25 ; resid.=  3.01746866962906E-03
(PID.TID 0000.0001)  cg2d: iter=    26 ; resid.=  2.74019714544494E-03
(PID.TID 0000.0001)  cg2d: iter=    27 ; resid.=  2.35656113763332E-03
(PID.TID 0000.0001)  cg2d: iter=    28 ; resid.=  1.97503395430345E-03
(PID.TID 0000.0001)  cg2d: iter=    29 ; resid.=  1.50511947664308E-03
(PID.TID 0000.0001)  cg2d: iter=    30 ; resid.=  1.12756690217631E-03
(PID.TID 0000.0001)  cg2d: iter=    31 ; resid.=  9.55983277319147E-04
(PID.TID 0000.0001)  cg2d: iter=    32 ; resid.=  7.50648817450887E-04
(PID.TID 0000.0001)  cg2d: iter=    33 ; resid.=  5.64413369584537E-04
(PID.TID 0000.0001)  cg2d: iter=    34 ; resid.=  4.37940059120824E-04
(PID.TID 0000.0001)  cg2d: iter=    35 ; resid.=  3.54429951130758E-04
(PID.TID 0000.0001)  cg2d: iter=    36 ; resid.=  2.79049279574974E-04
(PID.TID 0000.0001)  cg2d: iter=    37 ; resid.=  2.33014899120705E-04
(PID.TID 0000.0001)  cg2d: iter=    38 ; resid.=  2.19472905006207E-04
(PID.TID 0000.0001)  cg2d: iter=    39 ; resid.=  1.98962439906668E-04
(PID.TID 0000.0001)  cg2d: iter=    40 ; resid.=  1.74155499729996E-04
(PID.TID 0000.0001)  cg2d: iter=    41 ; resid.=  1.50592700411124E-04
(PID.TID 0000.0001)  cg2d: iter=    42 ; resid.=  1.32879013129893E-04
(PID.TID 0000.0001)  cg2d: iter=    43 ; resid.=  1.12603365650505E-04
(PID.TID 0000.0001)  cg2d: iter=    44 ; resid.=  9.02417221801474E-05
(PID.TID 0000.0001)  cg2d: iter=    45 ; resid.=  7.55647283951068E-05
(PID.TID 0000.0001)  cg2d: iter=    46 ; resid.=  6.06000715580017E-05
(PID.TID 0000.0001)  cg2d: iter=    47 ; resid.=  4.71554211390169E-05
(PID.TID 0000.0001)  cg2d: iter=    48 ; resid.=  3.80173251726551E-05
(PID.TID 0000.0001)  cg2d: iter=    49 ; resid.=  3.23953008965671E-05
(PID.TID 0000.0001)  cg2d: iter=    50 ; resid.=  2.77103536738232E-05
(PID.TID 0000.0001)  cg2d: iter=    51 ; resid.=  2.24295766834362E-05
(PID.TID 0000.0001)  cg2d: iter=    52 ; resid.=  1.66240270693879E-05
(PID.TID 0000.0001)  cg2d: iter=    53 ; resid.=  1.18315175907295E-05
(PID.TID 0000.0001)  cg2d: iter=    54 ; resid.=  8.77349149845853E-06
(PID.TID 0000.0001)  cg2d: iter=    55 ; resid.=  7.01349722175015E-06
(PID.TID 0000.0001)  cg2d: iter=    56 ; resid.=  5.91636330609003E-06
(PID.TID 0000.0001)  cg2d: iter=    57 ; resid.=  5.11654827369929E-06
(PID.TID 0000.0001)  cg2d: iter=    58 ; resid.=  4.18564325996921E-06
(PID.TID 0000.0001)  cg2d: iter=    59 ; resid.=  3.29695276030355E-06
(PID.TID 0000.0001)  cg2d: iter=    60 ; resid.=  2.44065186582730E-06
(PID.TID 0000.0001)  cg2d: iter=    61 ; resid.=  2.01786886571444E-06
(PID.TID 0000.0001)  cg2d: iter=    62 ; resid.=  1.86274489045157E-06
(PID.TID 0000.0001)  cg2d: iter=    63 ; resid.=  1.71532670657910E-06
(PID.TID 0000.0001)  cg2d: iter=    64 ; resid.=  1.42954077730757E-06
(PID.TID 0000.0001)  cg2d: iter=    65 ; resid.=  1.18872271539349E-06
(PID.TID 0000.0001)  cg2d: iter=    66 ; resid.=  9.56949503995486E-07
(PID.TID 0000.0001)  cg2d: iter=    67 ; resid.=  8.03791051675690E-07
(PID.TID 0000.0001)  cg2d: iter=    68 ; resid.=  6.83706624817245E-07
(PID.TID 0000.0001)  cg2d: iter=    69 ; resid.=  5.80972094477806E-07
(PID.TID 0000.0001)  cg2d: iter=    70 ; resid.=  4.61396887590856E-07
(PID.TID 0000.0001)  cg2d: iter=    71 ; resid.=  3.34233411994050E-07
(PID.TID 0000.0001)  cg2d: iter=    72 ; resid.=  2.64814120713328E-07
(PID.TID 0000.0001)  cg2d: iter=    73 ; resid.=  2.46643531621516E-07
(PID.TID 0000.0001)  cg2d: iter=    74 ; resid.=  2.27919416426653E-07
(PID.TID 0000.0001)  cg2d: iter=    75 ; resid.=  1.81331891462940E-07
(PID.TID 0000.0001)  cg2d: iter=    76 ; resid.=  1.35686373952734E-07
(PID.TID 0000.0001)  cg2d: iter=    77 ; resid.=  1.02924056882726E-07
(PID.TID 0000.0001)  cg2d: iter=    78 ; resid.=  8.12263996019099E-08
(PID.TID 0000.0001)  cg2d: iter=    79 ; resid.=  6.21572607035306E-08
(PID.TID 0000.0001)  cg2d: iter=    80 ; resid.=  4.60236204810198E-08
(PID.TID 0000.0001)  cg2d: iter=    81 ; resid.=  3.63444035947377E-08
(PID.TID 0000.0001)  cg2d: iter=    82 ; resid.=  3.06099502348445E-08
(PID.TID 0000.0001)  cg2d: iter=    83 ; resid.=  2.56322523273422E-08
(PID.TID 0000.0001)  cg2d: iter=    84 ; resid.=  2.09540781765369E-08
(PID.TID 0000.0001)  cg2d: iter=    85 ; resid.=  1.70395284681275E-08
(PID.TID 0000.0001)  cg2d: iter=    86 ; resid.=  1.45233547457253E-08
(PID.TID 0000.0001)  cg2d: iter=    87 ; resid.=  1.32140871953853E-08
(PID.TID 0000.0001)  cg2d: iter=    88 ; resid.=  1.02485331636373E-08
(PID.TID 0000.0001)  cg2d: iter=    89 ; resid.=  7.93111388398323E-09
(PID.TID 0000.0001)  cg2d: iter=    90 ; resid.=  6.86398302229333E-09
(PID.TID 0000.0001)  cg2d: iter=    91 ; resid.=  5.81882998479898E-09
(PID.TID 0000.0001)  cg2d: iter=    92 ; resid.=  4.58457486073189E-09
(PID.TID 0000.0001)  cg2d: iter=    93 ; resid.=  3.26513132914421E-09
(PID.TID 0000.0001)  cg2d: iter=    94 ; resid.=  2.25893997797825E-09
(PID.TID 0000.0001)  cg2d: iter=    95 ; resid.=  1.67060903935805E-09
(PID.TID 0000.0001)  cg2d: iter=    96 ; resid.=  1.38022042318270E-09
(PID.TID 0000.0001)  cg2d: iter=    97 ; resid.=  1.18936167079656E-09
(PID.TID 0000.0001)  cg2d: iter=    98 ; resid.=  9.30011085680495E-10
(PID.TID 0000.0001)  cg2d: iter=    99 ; resid.=  7.26041365374112E-10
(PID.TID 0000.0001)  cg2d: iter=   100 ; resid.=  5.92060769446033E-10
(PID.TID 0000.0001)  cg2d: iter=   101 ; resid.=  5.00863254208803E-10
(PID.TID 0000.0001)  cg2d: iter=   102 ; resid.=  4.41961324775385E-10
(PID.TID 0000.0001)  cg2d: iter=   103 ; resid.=  3.67886946017327E-10
(PID.TID 0000.0001)  cg2d: iter=   104 ; resid.=  2.83069157857456E-10
(PID.TID 0000.0001)  cg2d: iter=   105 ; resid.=  2.12630152619684E-10
(PID.TID 0000.0001)  cg2d: iter=   106 ; resid.=  1.68865429371604E-10
(PID.TID 0000.0001)  cg2d: iter=   107 ; resid.=  1.33291955787910E-10
(PID.TID 0000.0001)  cg2d: iter=   108 ; resid.=  1.04027460086417E-10
(PID.TID 0000.0001)  cg2d: iter=   109 ; resid.=  8.13061568529038E-11
(PID.TID 0000.0001)  cg2d: iter=   110 ; resid.=  6.42126291430739E-11
(PID.TID 0000.0001)  cg2d: iter=   111 ; resid.=  4.95189370668450E-11
(PID.TID 0000.0001)  cg2d: iter=   112 ; resid.=  3.96799447198895E-11
(PID.TID 0000.0001)  cg2d: iter=   113 ; resid.=  2.98698981666217E-11
(PID.TID 0000.0001)  cg2d: iter=   114 ; resid.=  2.14087867826831E-11
(PID.TID 0000.0001)  cg2d: iter=   115 ; resid.=  1.80359866391309E-11
(PID.TID 0000.0001)  cg2d: iter=   116 ; resid.=  1.47115269057735E-11
(PID.TID 0000.0001)  cg2d: iter=   117 ; resid.=  1.08430323989272E-11
(PID.TID 0000.0001)  cg2d: iter=   118 ; resid.=  7.55110037143286E-12
(PID.TID 0000.0001)  cg2d: iter=   119 ; resid.=  5.48425384680941E-12
(PID.TID 0000.0001)  cg2d: iter=   120 ; resid.=  4.07745124334569E-12
(PID.TID 0000.0001)  cg2d: iter=   121 ; resid.=  3.22521034371572E-12
(PID.TID 0000.0001)  cg2d: iter=   122 ; resid.=  2.53559784260171E-12
(PID.TID 0000.0001)  cg2d: iter=   123 ; resid.=  1.95774074520608E-12
(PID.TID 0000.0001)  cg2d: iter=   124 ; resid.=  1.49424632935665E-12
(PID.TID 0000.0001)  cg2d: iter=   125 ; resid.=  1.12971511100906E-12
(PID.TID 0000.0001)  cg2d: iter=   126 ; resid.=  8.29726501454741E-13
(PID.TID 0000.0001)  cg2d: iter=   127 ; resid.=  5.56923081866785E-13
(PID.TID 0000.0001)  cg2d: iter=   128 ; resid.=  3.74049527862343E-13
(PID.TID 0000.0001)  cg2d: iter=   129 ; resid.=  2.51506070112331E-13
(PID.TID 0000.0001)  cg2d: iter=   130 ; resid.=  1.95219713790150E-13
(PID.TID 0000.0001)  cg2d: iter=   131 ; resid.=  1.59891252995306E-13
(PID.TID 0000.0001)  cg2d: iter=   132 ; resid.=  1.28086631791910E-13
(PID.TID 0000.0001)  cg2d: iter=   133 ; resid.=  1.04609996581538E-13
(PID.TID 0000.0001)  cg2d: iter=   134 ; resid.=  8.49156689287741E-14
DEBUG_STATS_RL:    cg2d_x (SOLVE_FOR_PRESSURE)  min= -1.49002403500397E+01
DEBUG_STATS_RL:    cg2d_x (SOLVE_FOR_PRESSURE)  max=  8.38776119265807E+00
DEBUG_STATS_RL:    cg2d_x (SOLVE_FOR_PRESSURE) mean= -1.60420619155207E+00
DEBUG_STATS_RL:    cg2d_x (SOLVE_FOR_PRESSURE) S.D.=  6.33379542399641E+00
(PID.TID 0000.0001)      cg2d_init_res =   5.89879182332945E-01
(PID.TID 0000.0001)      cg2d_iters(min,last) =      -1     134
(PID.TID 0000.0001)      cg2d_last_res =   8.49156689287741E-14
(PID.TID 0000.0001) // =======================================================
(PID.TID 0000.0001) // Begin MONITOR dynamic field statistics
(PID.TID 0000.0001) // =======================================================
(PID.TID 0000.0001) %MON time_tsnumber                =                    16
(PID.TID 0000.0001) %MON time_secondsf                =   1.3824000000000E+06
(PID.TID 0000.0001) %MON dynstat_eta_max              =   8.5502152830356E-01
(PID.TID 0000.0001) %MON dynstat_eta_min              =  -1.5188828083629E+00
(PID.TID 0000.0001) %MON dynstat_eta_mean             =  -1.1344226505685E-03
(PID.TID 0000.0001) %MON dynstat_eta_sd               =   5.7436365980720E-01
(PID.TID 0000.0001) %MON dynstat_eta_del2             =   1.7225597562971E-03
(PID.TID 0000.0001) %MON dynstat_uvel_max             =   1.8822895248644E-01
(PID.TID 0000.0001) %MON dynstat_uvel_min             =  -1.0908468259554E-01
(PID.TID 0000.0001) %MON dynstat_uvel_mean            =   7.8334092603076E-04
(PID.TID 0000.0001) %MON dynstat_uvel_sd              =   1.5682064371335E-02
(PID.TID 0000.0001) %MON dynstat_uvel_del2            =   9.5598214870054E-05
(PID.TID 0000.0001) %MON dynstat_vvel_max             =   1.2273569353736E-01
(PID.TID 0000.0001) %MON dynstat_vvel_min             =  -1.0727068617255E-01
(PID.TID 0000.0001) %MON dynstat_vvel_mean            =   8.9966658087751E-05
(PID.TID 0000.0001) %MON dynstat_vvel_sd              =   8.8290508428063E-03
(PID.TID 0000.0001) %MON dynstat_vvel_del2            =   8.5941757952942E-05
(PID.TID 0000.0001) %MON dynstat_wvel_max             =   1.5366464273655E-04
(PID.TID 0000.0001) %MON dynstat_wvel_min             =  -1.9260591649695E-04
(PID.TID 0000.0001) %MON dynstat_wvel_mean            =   1.0977324580399E-22
(PID.TID 0000.0001) %MON dynstat_wvel_sd              =   1.7258919581975E-05
(PID.TID 0000.0001) %MON dynstat_wvel_del2            =   1.9458640318240E-07
(PID.TID 0000.0001) %MON dynstat_theta_max            =   2.9678661880816E+01
(PID.TID 0000.0001) %MON dynstat_theta_min            =  -1.9130483478788E+00
(PID.TID 0000.0001) %MON dynstat_theta_mean           =   3.6187672603623E+00
(PID.TID 0000.0001) %MON dynstat_theta_sd             =   4.4142171370519E+00
(PID.TID 0000.0001) %MON dynstat_theta_del2           =   4.8631390024351E-03
(PID.TID 0000.0001) %MON dynstat_salt_max             =   3.7438288397882E+01
(PID.TID 0000.0001) %MON dynstat_salt_min             =   2.9757325116172E+01
(PID.TID 0000.0001) %MON dynstat_salt_mean            =   3.4717193261242E+01
(PID.TID 0000.0001) %MON dynstat_salt_sd              =   2.9618318307923E-01
(PID.TID 0000.0001) %MON dynstat_salt_del2            =   1.0083250274950E-03
(PID.TID 0000.0001) %MON dynstat_sst_max              =   2.9678661880816E+01
(PID.TID 0000.0001) %MON dynstat_sst_min              =  -1.9130483478788E+00
(PID.TID 0000.0001) %MON dynstat_sst_mean             =   1.8620664479854E+01
(PID.TID 0000.0001) %MON dynstat_sst_sd               =   9.0706254089989E+00
(PID.TID 0000.0001) %MON dynstat_sst_del2             =   2.5572768112343E-02
(PID.TID 0000.0001) %MON dynstat_sss_max              =   3.7429902008403E+01
(PID.TID 0000.0001) %MON dynstat_sss_min              =   2.9757325116172E+01
(PID.TID 0000.0001) %MON dynstat_sss_mean             =   3.4853837345895E+01
(PID.TID 0000.0001) %MON dynstat_sss_sd               =   9.6966341113988E-01
(PID.TID 0000.0001) %MON dynstat_sss_del2             =   7.9336623054489E-03
(PID.TID 0000.0001) %MON forcing_qnet_max             =   4.4161361694336E+02
(PID.TID 0000.0001) %MON forcing_qnet_min             =  -1.8132531738281E+02
(PID.TID 0000.0001) %MON forcing_qnet_mean            =  -1.6512526001044E+01
(PID.TID 0000.0001) %MON forcing_qnet_sd              =   1.0987288293460E+02
(PID.TID 0000.0001) %MON forcing_qnet_del2            =   1.0245701543512E+00
(PID.TID 0000.0001) %MON forcing_qsw_max              =   0.0000000000000E+00
(PID.TID 0000.0001) %MON forcing_qsw_min              =   0.0000000000000E+00
(PID.TID 0000.0001) %MON forcing_qsw_mean             =   0.0000000000000E+00
(PID.TID 0000.0001) %MON forcing_qsw_sd               =   0.0000000000000E+00
(PID.TID 0000.0001) %MON forcing_qsw_del2             =   0.0000000000000E+00
(PID.TID 0000.0001) %MON forcing_empmr_max            =   8.2174238968946E-05
(PID.TID 0000.0001) %MON forcing_empmr_min            =  -7.6155956207913E-05
(PID.TID 0000.0001) %MON forcing_empmr_mean           =   9.2293706211063E-07
(PID.TID 0000.0001) %MON forcing_empmr_sd             =   2.8800050217957E-05
(PID.TID 0000.0001) %MON forcing_empmr_del2           =   3.6757632549621E-07
(PID.TID 0000.0001) %MON forcing_fu_max               =   2.7877888083458E-01
(PID.TID 0000.0001) %MON forcing_fu_min               =  -1.7088057100773E-01
(PID.TID 0000.0001) %MON forcing_fu_mean              =   1.6001735152566E-02
(PID.TID 0000.0001) %MON forcing_fu_sd                =   9.1062350670783E-02
(PID.TID 0000.0001) %MON forcing_fu_del2              =   7.2483493833855E-04
(PID.TID 0000.0001) %MON forcing_fv_max               =   2.3312132060528E-01
(PID.TID 0000.0001) %MON forcing_fv_min               =  -1.7813690006733E-01
(PID.TID 0000.0001) %MON forcing_fv_mean              =  -5.2588977395051E-03
(PID.TID 0000.0001) %MON forcing_fv_sd                =   4.8248606070107E-02
(PID.TID 0000.0001) %MON forcing_fv_del2              =   4.9948324922575E-04
(PID.TID 0000.0001) %MON trAdv_CFL_u_max              =   5.3268537505966E-02
(PID.TID 0000.0001) %MON trAdv_CFL_v_max              =   2.3337862804932E-02
(PID.TID 0000.0001) %MON trAdv_CFL_w_max              =   6.5365052594454E-02
(PID.TID 0000.0001) %MON advcfl_uvel_max              =   5.1790969564522E-02
(PID.TID 0000.0001) %MON advcfl_vvel_max              =   2.3845576810444E-02
(PID.TID 0000.0001) %MON advcfl_wvel_max              =   5.8609077801028E-02
(PID.TID 0000.0001) %MON advcfl_W_hf_max              =   6.4714190071969E-02
(PID.TID 0000.0001) %MON pe_b_mean                    =   4.2214028851192E-04
(PID.TID 0000.0001) %MON ke_max                       =   1.8431408807243E-02
(PID.TID 0000.0001) %MON ke_mean                      =   1.4700696686952E-04
(PID.TID 0000.0001) %MON ke_vol                       =   1.3226782436723E+18
(PID.TID 0000.0001) %MON vort_r_min                   =  -3.9307383709216E-07
(PID.TID 0000.0001) %MON vort_r_max                   =   3.8653380984640E-07
(PID.TID 0000.0001) %MON vort_a_mean                  =  -2.5274806895712E-05
(PID.TID 0000.0001) %MON vort_a_sd                    =   7.3604423019614E-05
(PID.TID 0000.0001) %MON vort_p_mean                  =  -3.1845655167294E-05
(PID.TID 0000.0001) %MON vort_p_sd                    =   1.3162378542686E-04
(PID.TID 0000.0001) %MON surfExpan_theta_mean         =   5.9816359173682E-07
(PID.TID 0000.0001) %MON surfExpan_salt_mean          =  -5.1351456365287E-09
(PID.TID 0000.0001) // =======================================================
(PID.TID 0000.0001) // End MONITOR dynamic field statistics
(PID.TID 0000.0001) // =======================================================
 EXTERNAL_FIELDS_LOAD,        16 : iP,iLd,i0,i1=    1    2    1    2 ; Wght=  0.9666666667  0.0333333333
 EXTERNAL_FIELDS_LOAD: (fu0,1),fu,fv= -3.5633E-02 -1.4435E-02 -3.4926E-02 -5.5936E-02
 EXTERNAL_FIELDS_LOAD: SST,SSS,Q,E-P=  9.0875E-01  3.4705E+01  2.6493E+02  1.1528E-05
DEBUG_STATS_RL:          Uvel (THERMODYNAMICS)  min= -1.09084682595540E-01
DEBUG_STATS_RL:          Uvel (THERMODYNAMICS)  max=  1.88228952486435E-01
DEBUG_STATS_RL:          Uvel (THERMODYNAMICS) mean=  6.54192355170908E-03
DEBUG_STATS_RL:          Uvel (THERMODYNAMICS) S.D.=  2.59632802216775E-02
DEBUG_STATS_RL:          Vvel (THERMODYNAMICS)  min= -1.07270686172555E-01
DEBUG_STATS_RL:          Vvel (THERMODYNAMICS)  max=  1.22735693537365E-01
DEBUG_STATS_RL:          Vvel (THERMODYNAMICS) mean=  8.20644433512931E-04
DEBUG_STATS_RL:          Vvel (THERMODYNAMICS) S.D.=  1.43884606564109E-02
DEBUG_STATS_RL:          Wvel (THERMODYNAMICS)  min= -1.92605916496951E-04
DEBUG_STATS_RL:          Wvel (THERMODYNAMICS)  max=  1.53664642736545E-04
DEBUG_STATS_RL:          Wvel (THERMODYNAMICS) mean=  5.56258862583061E-08
DEBUG_STATS_RL:          Wvel (THERMODYNAMICS) S.D.=  1.51413754689481E-05
DEBUG_STATS_RL:         Theta (THERMODYNAMICS)  min= -1.94188623273717E+00
DEBUG_STATS_RL:         Theta (THERMODYNAMICS)  max=  2.96821247897061E+01
DEBUG_STATS_RL:         Theta (THERMODYNAMICS) mean=  3.20607776840353E+00
DEBUG_STATS_RL:         Theta (THERMODYNAMICS) S.D.=  5.85287412574195E+00
DEBUG_STATS_RL:          Salt (THERMODYNAMICS)  min= -7.83495430699523E-04
DEBUG_STATS_RL:          Salt (THERMODYNAMICS)  max=  3.74392321553843E+01
DEBUG_STATS_RL:          Salt (THERMODYNAMICS) mean=  1.88444213087724E+01
DEBUG_STATS_RL:          Salt (THERMODYNAMICS) S.D.=  1.73006817452772E+01
DEBUG_STATS_RL:         GtNm1 (THERMODYNAMICS)  min= -7.31883255483130E-06
DEBUG_STATS_RL:         GtNm1 (THERMODYNAMICS)  max=  5.63409480047285E-06
DEBUG_STATS_RL:         GtNm1 (THERMODYNAMICS) mean=  6.75151859261247E-09
DEBUG_STATS_RL:         GtNm1 (THERMODYNAMICS) S.D.=  2.28429319983783E-07
DEBUG_STATS_RL:         GsNm1 (THERMODYNAMICS)  min= -1.82222254739768E-06
DEBUG_STATS_RL:         GsNm1 (THERMODYNAMICS)  max=  1.62836293940107E-06
DEBUG_STATS_RL:         GsNm1 (THERMODYNAMICS) mean=  3.24211569623386E-11
DEBUG_STATS_RL:         GsNm1 (THERMODYNAMICS) S.D.=  2.58323561655256E-08
DEBUG_STATS_RL:                EtaN (DYNAMICS)  min= -1.51888280836289E+00
DEBUG_STATS_RL:                EtaN (DYNAMICS)  max=  8.55021528303555E-01
DEBUG_STATS_RL:                EtaN (DYNAMICS) mean= -1.63527644398784E-01
DEBUG_STATS_RL:                EtaN (DYNAMICS) S.D.=  6.45646832211664E-01
DEBUG_STATS_RL:                Uvel (DYNAMICS)  min= -1.09084682595540E-01
DEBUG_STATS_RL:                Uvel (DYNAMICS)  max=  1.88228952486435E-01
DEBUG_STATS_RL:                Uvel (DYNAMICS) mean=  6.54192355170908E-03
DEBUG_STATS_RL:                Uvel (DYNAMICS) S.D.=  2.59632802216775E-02
DEBUG_STATS_RL:                Vvel (DYNAMICS)  min= -1.07270686172555E-01
DEBUG_STATS_RL:                Vvel (DYNAMICS)  max=  1.22735693537365E-01
DEBUG_STATS_RL:                Vvel (DYNAMICS) mean=  8.20644433512931E-04
DEBUG_STATS_RL:                Vvel (DYNAMICS) S.D.=  1.43884606564109E-02
DEBUG_STATS_RL:                Wvel (DYNAMICS)  min= -1.92605916496951E-04
DEBUG_STATS_RL:                Wvel (DYNAMICS)  max=  1.53664642736545E-04
DEBUG_STATS_RL:                Wvel (DYNAMICS) mean=  5.56258862583061E-08
DEBUG_STATS_RL:                Wvel (DYNAMICS) S.D.=  1.51413754689481E-05
DEBUG_STATS_RL:               Theta (DYNAMICS)  min= -1.94188623273717E+00
DEBUG_STATS_RL:               Theta (DYNAMICS)  max=  2.96821247897061E+01
DEBUG_STATS_RL:               Theta (DYNAMICS) mean=  3.20607776840353E+00
DEBUG_STATS_RL:               Theta (DYNAMICS) S.D.=  5.85287412574195E+00
DEBUG_STATS_RL:                Salt (DYNAMICS)  min= -7.83495430699523E-04
DEBUG_STATS_RL:                Salt (DYNAMICS)  max=  3.74392321553843E+01
DEBUG_STATS_RL:                Salt (DYNAMICS) mean=  1.88444213087724E+01
DEBUG_STATS_RL:                Salt (DYNAMICS) S.D.=  1.73006817452772E+01
DEBUG_STATS_RL:                  Gu (DYNAMICS)  min= -1.16524252720192E-01
DEBUG_STATS_RL:                  Gu (DYNAMICS)  max=  1.90552994620181E-01
DEBUG_STATS_RL:                  Gu (DYNAMICS) mean=  6.32865592328249E-03
DEBUG_STATS_RL:                  Gu (DYNAMICS) S.D.=  2.59444977812725E-02
DEBUG_STATS_RL:                  Gv (DYNAMICS)  min= -1.04236422593674E-01
DEBUG_STATS_RL:                  Gv (DYNAMICS)  max=  1.24621139595557E-01
DEBUG_STATS_RL:                  Gv (DYNAMICS) mean=  3.26361917718692E-03
DEBUG_STATS_RL:                  Gv (DYNAMICS) S.D.=  1.60489040972016E-02
DEBUG_STATS_RL:               GuNm1 (DYNAMICS)  min= -7.01447606744558E-06
DEBUG_STATS_RL:               GuNm1 (DYNAMICS)  max=  7.18498625268708E-06
DEBUG_STATS_RL:               GuNm1 (DYNAMICS) mean= -1.66307322621762E-08
DEBUG_STATS_RL:               GuNm1 (DYNAMICS) S.D.=  1.10599969465917E-06
DEBUG_STATS_RL:               GvNm1 (DYNAMICS)  min= -8.70249725571598E-06
DEBUG_STATS_RL:               GvNm1 (DYNAMICS)  max=  1.68917955228475E-05
DEBUG_STATS_RL:               GvNm1 (DYNAMICS) mean=  7.73961462634728E-07
DEBUG_STATS_RL:               GvNm1 (DYNAMICS) S.D.=  2.56563432945765E-06
DEBUG_STATS_RL:               GtNm1 (DYNAMICS)  min= -7.31883255483130E-06
DEBUG_STATS_RL:               GtNm1 (DYNAMICS)  max=  5.63409480047285E-06
DEBUG_STATS_RL:               GtNm1 (DYNAMICS) mean=  6.75151859261247E-09
DEBUG_STATS_RL:               GtNm1 (DYNAMICS) S.D.=  2.28429319983783E-07
DEBUG_STATS_RL:               GsNm1 (DYNAMICS)  min= -1.82222254739768E-06
DEBUG_STATS_RL:               GsNm1 (DYNAMICS)  max=  1.62836293940107E-06
DEBUG_STATS_RL:               GsNm1 (DYNAMICS) mean=  3.24211569623386E-11
DEBUG_STATS_RL:               GsNm1 (DYNAMICS) S.D.=  2.58323561655256E-08
DEBUG_STATS_RL:    cg2d_b (SOLVE_FOR_PRESSURE)  min= -1.82786921706603E+04
DEBUG_STATS_RL:    cg2d_b (SOLVE_FOR_PRESSURE)  max=  1.31724553702970E+04
DEBUG_STATS_RL:    cg2d_b (SOLVE_FOR_PRESSURE) mean=  1.16115838584425E+00
DEBUG_STATS_RL:    cg2d_b (SOLVE_FOR_PRESSURE) S.D.=  3.15455568745347E+03
 cg2d: Sum(rhs),rhsMax =   1.47060940582221E-01  1.20059344160936E+00
(PID.TID 0000.0001)  cg2d: iter=     1 ; resid.=  1.69792363187055E-01
(PID.TID 0000.0001)  cg2d: iter=     2 ; resid.=  1.00831245422586E-01
(PID.TID 0000.0001)  cg2d: iter=     3 ; resid.=  9.48982650218481E-02
(PID.TID 0000.0001)  cg2d: iter=     4 ; resid.=  8.47797104912369E-02
(PID.TID 0000.0001)  cg2d: iter=     5 ; resid.=  7.44485444095392E-02
(PID.TID 0000.0001)  cg2d: iter=     6 ; resid.=  6.26645471755287E-02
(PID.TID 0000.0001)  cg2d: iter=     7 ; resid.=  5.71819317108814E-02
(PID.TID 0000.0001)  cg2d: iter=     8 ; resid.=  4.69080371370833E-02
(PID.TID 0000.0001)  cg2d: iter=     9 ; resid.=  4.10247957380436E-02
(PID.TID 0000.0001)  cg2d: iter=    10 ; resid.=  3.55064247533896E-02
(PID.TID 0000.0001)  cg2d: iter=    11 ; resid.=  3.13886630187492E-02
(PID.TID 0000.0001)  cg2d: iter=    12 ; resid.=  2.55190832420922E-02
(PID.TID 0000.0001)  cg2d: iter=    13 ; resid.=  1.97024358476461E-02
(PID.TID 0000.0001)  cg2d: iter=    14 ; resid.=  1.58688525334725E-02
(PID.TID 0000.0001)  cg2d: iter=    15 ; resid.=  1.44094056999630E-02
(PID.TID 0000.0001)  cg2d: iter=    16 ; resid.=  1.37932106987481E-02
(PID.TID 0000.0001)  cg2d: iter=    17 ; resid.=  1.33255201004352E-02
(PID.TID 0000.0001)  cg2d: iter=    18 ; resid.=  1.09108292288410E-02
(PID.TID 0000.0001)  cg2d: iter=    19 ; resid.=  8.28365955965622E-03
(PID.TID 0000.0001)  cg2d: iter=    20 ; resid.=  6.14566277499150E-03
(PID.TID 0000.0001)  cg2d: iter=    21 ; resid.=  4.75752982957627E-03
(PID.TID 0000.0001)  cg2d: iter=    22 ; resid.=  3.80680596405154E-03
(PID.TID 0000.0001)  cg2d: iter=    23 ; resid.=  3.04608341475792E-03
(PID.TID 0000.0001)  cg2d: iter=    24 ; resid.=  2.76657587196075E-03
(PID.TID 0000.0001)  cg2d: iter=    25 ; resid.=  2.57754615372880E-03
(PID.TID 0000.0001)  cg2d: iter=    26 ; resid.=  2.33122337788277E-03
(PID.TID 0000.0001)  cg2d: iter=    27 ; resid.=  2.01413634220972E-03
(PID.TID 0000.0001)  cg2d: iter=    28 ; resid.=  1.75443698564987E-03
(PID.TID 0000.0001)  cg2d: iter=    29 ; resid.=  1.37089208188926E-03
(PID.TID 0000.0001)  cg2d: iter=    30 ; resid.=  1.01845678185977E-03
(PID.TID 0000.0001)  cg2d: iter=    31 ; resid.=  8.51282270253653E-04
(PID.TID 0000.0001)  cg2d: iter=    32 ; resid.=  6.81427504512248E-04
(PID.TID 0000.0001)  cg2d: iter=    33 ; resid.=  5.24112070782685E-04
(PID.TID 0000.0001)  cg2d: iter=    34 ; resid.=  4.10348504515043E-04
(PID.TID 0000.0001)  cg2d: iter=    35 ; resid.=  3.27863585093755E-04
(PID.TID 0000.0001)  cg2d: iter=    36 ; resid.=  2.51825408568998E-04
(PID.TID 0000.0001)  cg2d: iter=    37 ; resid.=  2.06867262020808E-04
(PID.TID 0000.0001)  cg2d: iter=    38 ; resid.=  1.97475184154855E-04
(PID.TID 0000.0001)  cg2d: iter=    39 ; resid.=  1.74633648539135E-04
(PID.TID 0000.0001)  cg2d: iter=    40 ; resid.=  1.50797208115532E-04
(PID.TID 0000.0001)  cg2d: iter=    41 ; resid.=  1.25927132565226E-04
(PID.TID 0000.0001)  cg2d: iter=    42 ; resid.=  1.09638483137923E-04
(PID.TID 0000.0001)  cg2d: iter=    43 ; resid.=  9.03884755685927E-05
(PID.TID 0000.0001)  cg2d: iter=    44 ; resid.=  7.33684097228488E-05
(PID.TID 0000.0001)  cg2d: iter=    45 ; resid.=  6.29848041512722E-05
(PID.TID 0000.0001)  cg2d: iter=    46 ; resid.=  5.32817475556538E-05
(PID.TID 0000.0001)  cg2d: iter=    47 ; resid.=  4.30932403269751E-05
(PID.TID 0000.0001)  cg2d: iter=    48 ; resid.=  3.56317195630845E-05
(PID.TID 0000.0001)  cg2d: iter=    49 ; resid.=  3.00513873678361E-05
(PID.TID 0000.0001)  cg2d: iter=    50 ; resid.=  2.64019513931609E-05
(PID.TID 0000.0001)  cg2d: iter=    51 ; resid.=  2.16059534552519E-05
(PID.TID 0000.0001)  cg2d: iter=    52 ; resid.=  1.62664044365426E-05
(PID.TID 0000.0001)  cg2d: iter=    53 ; resid.=  1.16763744593494E-05
(PID.TID 0000.0001)  cg2d: iter=    54 ; resid.=  8.75968896715364E-06
(PID.TID 0000.0001)  cg2d: iter=    55 ; resid.=  7.17030407500665E-06
(PID.TID 0000.0001)  cg2d: iter=    56 ; resid.=  6.17616533649072E-06
(PID.TID 0000.0001)  cg2d: iter=    57 ; resid.=  5.40403362327292E-06
(PID.TID 0000.0001)  cg2d: iter=    58 ; resid.=  4.67730283545947E-06
(PID.TID 0000.0001)  cg2d: iter=    59 ; resid.=  3.84076313834959E-06
(PID.TID 0000.0001)  cg2d: iter=    60 ; resid.=  2.97105375325734E-06
(PID.TID 0000.0001)  cg2d: iter=    61 ; resid.=  2.45925993357887E-06
(PID.TID 0000.0001)  cg2d: iter=    62 ; resid.=  2.13422505659297E-06
(PID.TID 0000.0001)  cg2d: iter=    63 ; resid.=  1.75354693115898E-06
(PID.TID 0000.0001)  cg2d: iter=    64 ; resid.=  1.35049610497891E-06
(PID.TID 0000.0001)  cg2d: iter=    65 ; resid.=  1.05116420528564E-06
(PID.TID 0000.0001)  cg2d: iter=    66 ; resid.=  7.82542322753004E-07
(PID.TID 0000.0001)  cg2d: iter=    67 ; resid.=  6.02050896898435E-07
(PID.TID 0000.0001)  cg2d: iter=    68 ; resid.=  4.79225710298973E-07
(PID.TID 0000.0001)  cg2d: iter=    69 ; resid.=  3.96445349108732E-07
(PID.TID 0000.0001)  cg2d: iter=    70 ; resid.=  3.25640855525836E-07
(PID.TID 0000.0001)  cg2d: iter=    71 ; resid.=  2.53783230204009E-07
(PID.TID 0000.0001)  cg2d: iter=    72 ; resid.=  2.13371823950218E-07
(PID.TID 0000.0001)  cg2d: iter=    73 ; resid.=  2.05970167135533E-07
(PID.TID 0000.0001)  cg2d: iter=    74 ; resid.=  2.00282739419839E-07
(PID.TID 0000.0001)  cg2d: iter=    75 ; resid.=  1.73246519802363E-07
(PID.TID 0000.0001)  cg2d: iter=    76 ; resid.=  1.41051470979673E-07
(PID.TID 0000.0001)  cg2d: iter=    77 ; resid.=  1.14552582934553E-07
(PID.TID 0000.0001)  cg2d: iter=    78 ; resid.=  9.00655131896251E-08
(PID.TID 0000.0001)  cg2d: iter=    79 ; resid.=  6.75576748687342E-08
(PID.TID 0000.0001)  cg2d: iter=    80 ; resid.=  4.98862407624319E-08
(PID.TID 0000.0001)  cg2d: iter=    81 ; resid.=  3.87720988408180E-08
(PID.TID 0000.0001)  cg2d: iter=    82 ; resid.=  3.08628102030930E-08
(PID.TID 0000.0001)  cg2d: iter=    83 ; resid.=  2.43079225551271E-08
(PID.TID 0000.0001)  cg2d: iter=    84 ; resid.=  1.88921523957904E-08
(PID.TID 0000.0001)  cg2d: iter=    85 ; resid.=  1.48727378297936E-08
(PID.TID 0000.0001)  cg2d: iter=    86 ; resid.=  1.19738091205850E-08
(PID.TID 0000.0001)  cg2d: iter=    87 ; resid.=  1.03953528427970E-08
(PID.TID 0000.0001)  cg2d: iter=    88 ; resid.=  7.74855818953853E-09
(PID.TID 0000.0001)  cg2d: iter=    89 ; resid.=  5.96665300163772E-09
(PID.TID 0000.0001)  cg2d: iter=    90 ; resid.=  5.24286636974880E-09
(PID.TID 0000.0001)  cg2d: iter=    91 ; resid.=  4.70231797920567E-09
(PID.TID 0000.0001)  cg2d: iter=    92 ; resid.=  3.90530955420603E-09
(PID.TID 0000.0001)  cg2d: iter=    93 ; resid.=  2.87925594323498E-09
(PID.TID 0000.0001)  cg2d: iter=    94 ; resid.=  2.07343829148895E-09
(PID.TID 0000.0001)  cg2d: iter=    95 ; resid.=  1.60200531121383E-09
(PID.TID 0000.0001)  cg2d: iter=    96 ; resid.=  1.34889488294558E-09
(PID.TID 0000.0001)  cg2d: iter=    97 ; resid.=  1.17563400468432E-09
(PID.TID 0000.0001)  cg2d: iter=    98 ; resid.=  9.44088761308676E-10
(PID.TID 0000.0001)  cg2d: iter=    99 ; resid.=  7.80243174830355E-10
(PID.TID 0000.0001)  cg2d: iter=   100 ; resid.=  6.52991779600962E-10
(PID.TID 0000.0001)  cg2d: iter=   101 ; resid.=  5.42865941936606E-10
(PID.TID 0000.0001)  cg2d: iter=   102 ; resid.=  4.67577542523204E-10
(PID.TID 0000.0001)  cg2d: iter=   103 ; resid.=  3.82137552118670E-10
(PID.TID 0000.0001)  cg2d: iter=   104 ; resid.=  2.88712518970345E-10
(PID.TID 0000.0001)  cg2d: iter=   105 ; resid.=  2.12573433946564E-10
(PID.TID 0000.0001)  cg2d: iter=   106 ; resid.=  1.63797689604119E-10
(PID.TID 0000.0001)  cg2d: iter=   107 ; resid.=  1.23319106467070E-10
(PID.TID 0000.0001)  cg2d: iter=   108 ; resid.=  8.97147936158309E-11
(PID.TID 0000.0001)  cg2d: iter=   109 ; resid.=  6.54974503570544E-11
(PID.TID 0000.0001)  cg2d: iter=   110 ; resid.=  4.96865066638903E-11
(PID.TID 0000.0001)  cg2d: iter=   111 ; resid.=  3.82237746788975E-11
(PID.TID 0000.0001)  cg2d: iter=   112 ; resid.=  3.10865182012339E-11
(PID.TID 0000.0001)  cg2d: iter=   113 ; resid.=  2.37676915227977E-11
(PID.TID 0000.0001)  cg2d: iter=   114 ; resid.=  1.66970674540682E-11
(PID.TID 0000.0001)  cg2d: iter=   115 ; resid.=  1.39644285648982E-11
(PID.TID 0000.0001)  cg2d: iter=   116 ; resid.=  1.18893950206143E-11
(PID.TID 0000.0001)  cg2d: iter=   117 ; resid.=  9.31279098394756E-12
(PID.TID 0000.0001)  cg2d: iter=   118 ; resid.=  6.75650996701430E-12
(PID.TID 0000.0001)  cg2d: iter=   119 ; resid.=  4.89312912239056E-12
(PID.TID 0000.0001)  cg2d: iter=   120 ; resid.=  3.54603761077870E-12
(PID.TID 0000.0001)  cg2d: iter=   121 ; resid.=  2.70186065885402E-12
(PID.TID 0000.0001)  cg2d: iter=   122 ; resid.=  2.06703546215375E-12
(PID.TID 0000.0001)  cg2d: iter=   123 ; resid.=  1.63546707013987E-12
(PID.TID 0000.0001)  cg2d: iter=   124 ; resid.=  1.30943805624373E-12
(PID.TID 0000.0001)  cg2d: iter=   125 ; resid.=  1.05010358852767E-12
(PID.TID 0000.0001)  cg2d: iter=   126 ; resid.=  7.94671956385198E-13
(PID.TID 0000.0001)  cg2d: iter=   127 ; resid.=  5.39137255883797E-13
(PID.TID 0000.0001)  cg2d: iter=   128 ; resid.=  3.53250109331929E-13
(PID.TID 0000.0001)  cg2d: iter=   129 ; resid.=  2.30879638610377E-13
(PID.TID 0000.0001)  cg2d: iter=   130 ; resid.=  1.65769124804854E-13
(PID.TID 0000.0001)  cg2d: iter=   131 ; resid.=  1.23720972533948E-13
(PID.TID 0000.0001)  cg2d: iter=   132 ; resid.=  9.26146625840991E-14
DEBUG_STATS_RL:    cg2d_x (SOLVE_FOR_PRESSURE)  min= -1.52192004809319E+01
DEBUG_STATS_RL:    cg2d_x (SOLVE_FOR_PRESSURE)  max=  8.79696128906283E+00
DEBUG_STATS_RL:    cg2d_x (SOLVE_FOR_PRESSURE) mean= -1.62787566129454E+00
DEBUG_STATS_RL:    cg2d_x (SOLVE_FOR_PRESSURE) S.D.=  6.41073264797886E+00
(PID.TID 0000.0001)      cg2d_init_res =   5.57992349998843E-01
(PID.TID 0000.0001)      cg2d_iters(min,last) =      -1     132
(PID.TID 0000.0001)      cg2d_last_res =   9.26146625840991E-14
(PID.TID 0000.0001) // =======================================================
(PID.TID 0000.0001) // Begin MONITOR dynamic field statistics
(PID.TID 0000.0001) // =======================================================
(PID.TID 0000.0001) %MON time_tsnumber                =                    17
(PID.TID 0000.0001) %MON time_secondsf                =   1.4688000000000E+06
(PID.TID 0000.0001) %MON dynstat_eta_max              =   8.9673407635704E-01
(PID.TID 0000.0001) %MON dynstat_eta_min              =  -1.5513965831735E+00
(PID.TID 0000.0001) %MON dynstat_eta_mean             =  -1.2115247967420E-03
(PID.TID 0000.0001) %MON dynstat_eta_sd               =   5.8065276532915E-01
(PID.TID 0000.0001) %MON dynstat_eta_del2             =   1.7392321077708E-03
(PID.TID 0000.0001) %MON dynstat_uvel_max             =   1.8794423426332E-01
(PID.TID 0000.0001) %MON dynstat_uvel_min             =  -1.1642688947365E-01
(PID.TID 0000.0001) %MON dynstat_uvel_mean            =   8.7717662855147E-04
(PID.TID 0000.0001) %MON dynstat_uvel_sd              =   1.5575973927088E-02
(PID.TID 0000.0001) %MON dynstat_uvel_del2            =   9.5739286329367E-05
(PID.TID 0000.0001) %MON dynstat_vvel_max             =   1.2565418523753E-01
(PID.TID 0000.0001) %MON dynstat_vvel_min             =  -1.0851056596153E-01
(PID.TID 0000.0001) %MON dynstat_vvel_mean            =   8.3005910873240E-05
(PID.TID 0000.0001) %MON dynstat_vvel_sd              =   8.9433213798066E-03
(PID.TID 0000.0001) %MON dynstat_vvel_del2            =   8.6127401408469E-05
(PID.TID 0000.0001) %MON dynstat_wvel_max             =   1.4963413026998E-04
(PID.TID 0000.0001) %MON dynstat_wvel_min             =  -1.8912605497796E-04
(PID.TID 0000.0001) %MON dynstat_wvel_mean            =   1.7662004043193E-22
(PID.TID 0000.0001) %MON dynstat_wvel_sd              =   1.7473381643348E-05
(PID.TID 0000.0001) %MON dynstat_wvel_del2            =   2.0232764906461E-07
(PID.TID 0000.0001) %MON dynstat_theta_max            =   2.9682124789706E+01
(PID.TID 0000.0001) %MON dynstat_theta_min            =  -1.9418862327372E+00
(PID.TID 0000.0001) %MON dynstat_theta_mean           =   3.6188154074896E+00
(PID.TID 0000.0001) %MON dynstat_theta_sd             =   4.4142274570573E+00
(PID.TID 0000.0001) %MON dynstat_theta_del2           =   4.8490384513685E-03
(PID.TID 0000.0001) %MON dynstat_salt_max             =   3.7439232155384E+01
(PID.TID 0000.0001) %MON dynstat_salt_min             =   2.9760148107299E+01
(PID.TID 0000.0001) %MON dynstat_salt_mean            =   3.4717193820371E+01
(PID.TID 0000.0001) %MON dynstat_salt_sd              =   2.9618659808301E-01
(PID.TID 0000.0001) %MON dynstat_salt_del2            =   1.0085984478972E-03
(PID.TID 0000.0001) %MON dynstat_sst_max              =   2.9682124789706E+01
(PID.TID 0000.0001) %MON dynstat_sst_min              =  -1.9418862327372E+00
(PID.TID 0000.0001) %MON dynstat_sst_mean             =   1.8624300673001E+01
(PID.TID 0000.0001) %MON dynstat_sst_sd               =   9.0717429354148E+00
(PID.TID 0000.0001) %MON dynstat_sst_del2             =   2.5607739079079E-02
(PID.TID 0000.0001) %MON dynstat_sss_max              =   3.7429749520029E+01
(PID.TID 0000.0001) %MON dynstat_sss_min              =   2.9760148107299E+01
(PID.TID 0000.0001) %MON dynstat_sss_mean             =   3.4853574987145E+01
(PID.TID 0000.0001) %MON dynstat_sss_sd               =   9.7010354689917E-01
(PID.TID 0000.0001) %MON dynstat_sss_del2             =   7.9367728712597E-03
(PID.TID 0000.0001) %MON forcing_qnet_max             =   4.3829453023275E+02
(PID.TID 0000.0001) %MON forcing_qnet_min             =  -1.8026952260335E+02
(PID.TID 0000.0001) %MON forcing_qnet_mean            =  -1.6427616833641E+01
(PID.TID 0000.0001) %MON forcing_qnet_sd              =   1.0879423939526E+02
(PID.TID 0000.0001) %MON forcing_qnet_del2            =   1.0203667350774E+00
(PID.TID 0000.0001) %MON forcing_qsw_max              =   0.0000000000000E+00
(PID.TID 0000.0001) %MON forcing_qsw_min              =   0.0000000000000E+00
(PID.TID 0000.0001) %MON forcing_qsw_mean             =   0.0000000000000E+00
(PID.TID 0000.0001) %MON forcing_qsw_sd               =   0.0000000000000E+00
(PID.TID 0000.0001) %MON forcing_qsw_del2             =   0.0000000000000E+00
(PID.TID 0000.0001) %MON forcing_empmr_max            =   8.1860149236945E-05
(PID.TID 0000.0001) %MON forcing_empmr_min            =  -7.6235600469469E-05
(PID.TID 0000.0001) %MON forcing_empmr_mean           =   9.2361945937058E-07
(PID.TID 0000.0001) %MON forcing_empmr_sd             =   2.8746828928173E-05
(PID.TID 0000.0001) %MON forcing_empmr_del2           =   3.6633793428934E-07
(PID.TID 0000.0001) %MON forcing_fu_max               =   2.7858280539513E-01
(PID.TID 0000.0001) %MON forcing_fu_min               =  -1.6918717175722E-01
(PID.TID 0000.0001) %MON forcing_fu_mean              =   1.6056035368035E-02
(PID.TID 0000.0001) %MON forcing_fu_sd                =   9.0876058187851E-02
(PID.TID 0000.0001) %MON forcing_fu_del2              =   7.1713030175372E-04
(PID.TID 0000.0001) %MON forcing_fv_max               =   2.2991287360589E-01
(PID.TID 0000.0001) %MON forcing_fv_min               =  -1.7714560031891E-01
(PID.TID 0000.0001) %MON forcing_fv_mean              =  -5.3241586462203E-03
(PID.TID 0000.0001) %MON forcing_fv_sd                =   4.7928888739260E-02
(PID.TID 0000.0001) %MON forcing_fv_del2              =   4.9390753513588E-04
(PID.TID 0000.0001) %MON trAdv_CFL_u_max              =   5.1801488680856E-02
(PID.TID 0000.0001) %MON trAdv_CFL_v_max              =   2.4043423551174E-02
(PID.TID 0000.0001) %MON trAdv_CFL_w_max              =   6.4714190071969E-02
(PID.TID 0000.0001) %MON advcfl_uvel_max              =   5.0118935017504E-02
(PID.TID 0000.0001) %MON advcfl_vvel_max              =   2.4412592940805E-02
(PID.TID 0000.0001) %MON advcfl_wvel_max              =   5.7458151837036E-02
(PID.TID 0000.0001) %MON advcfl_W_hf_max              =   6.3443375986727E-02
(PID.TID 0000.0001) %MON pe_b_mean                    =   4.3143570933632E-04
(PID.TID 0000.0001) %MON ke_max                       =   1.8412473359298E-02
(PID.TID 0000.0001) %MON ke_mean                      =   1.4648236687392E-04
(PID.TID 0000.0001) %MON ke_vol                       =   1.3226782436723E+18
(PID.TID 0000.0001) %MON vort_r_min                   =  -3.6978290677963E-07
(PID.TID 0000.0001) %MON vort_r_max                   =   3.9540041512977E-07
(PID.TID 0000.0001) %MON vort_a_mean                  =  -2.5274806868056E-05
(PID.TID 0000.0001) %MON vort_a_sd                    =   7.3604438360045E-05
(PID.TID 0000.0001) %MON vort_p_mean                  =  -3.1845655132446E-05
(PID.TID 0000.0001) %MON vort_p_sd                    =   1.3162389103158E-04
(PID.TID 0000.0001) %MON surfExpan_theta_mean         =   5.2335641183702E-07
(PID.TID 0000.0001) %MON surfExpan_salt_mean          =   1.3378306712371E-08
(PID.TID 0000.0001) // =======================================================
(PID.TID 0000.0001) // End MONITOR dynamic field statistics
(PID.TID 0000.0001) // =======================================================
 EXTERNAL_FIELDS_LOAD,        17 : iP,iLd,i0,i1=    1    2    1    2 ; Wght=  0.9333333333  0.0666666667
 EXTERNAL_FIELDS_LOAD: (fu0,1),fu,fv= -3.5633E-02 -1.4435E-02 -3.4220E-02 -5.4615E-02
 EXTERNAL_FIELDS_LOAD: SST,SSS,Q,E-P=  8.5907E-01  3.4695E+01  2.6408E+02  1.1419E-05
DEBUG_STATS_RL:          Uvel (THERMODYNAMICS)  min= -1.16426889473650E-01
DEBUG_STATS_RL:          Uvel (THERMODYNAMICS)  max=  1.87944234263322E-01
DEBUG_STATS_RL:          Uvel (THERMODYNAMICS) mean=  6.40912577801175E-03
DEBUG_STATS_RL:          Uvel (THERMODYNAMICS) S.D.=  2.56932846504757E-02
DEBUG_STATS_RL:          Vvel (THERMODYNAMICS)  min= -1.08510565961535E-01
DEBUG_STATS_RL:          Vvel (THERMODYNAMICS)  max=  1.25654185237526E-01
DEBUG_STATS_RL:          Vvel (THERMODYNAMICS) mean=  1.16170286920771E-03
DEBUG_STATS_RL:          Vvel (THERMODYNAMICS) S.D.=  1.48331015242025E-02
DEBUG_STATS_RL:          Wvel (THERMODYNAMICS)  min= -1.89126054977960E-04
DEBUG_STATS_RL:          Wvel (THERMODYNAMICS)  max=  1.49634130269982E-04
DEBUG_STATS_RL:          Wvel (THERMODYNAMICS) mean=  1.67995128453558E-07
DEBUG_STATS_RL:          Wvel (THERMODYNAMICS) S.D.=  1.55502171782635E-05
DEBUG_STATS_RL:         Theta (THERMODYNAMICS)  min= -1.98960657285063E+00
DEBUG_STATS_RL:         Theta (THERMODYNAMICS)  max=  2.96858937453145E+01
DEBUG_STATS_RL:         Theta (THERMODYNAMICS) mean=  3.20615191558512E+00
DEBUG_STATS_RL:         Theta (THERMODYNAMICS) S.D.=  5.85310794569869E+00
DEBUG_STATS_RL:          Salt (THERMODYNAMICS)  min= -7.83495430699523E-04
DEBUG_STATS_RL:          Salt (THERMODYNAMICS)  max=  3.74402340623523E+01
DEBUG_STATS_RL:          Salt (THERMODYNAMICS) mean=  1.88444177148773E+01
DEBUG_STATS_RL:          Salt (THERMODYNAMICS) S.D.=  1.73006790058025E+01
DEBUG_STATS_RL:         GtNm1 (THERMODYNAMICS)  min= -6.85208707259757E-06
DEBUG_STATS_RL:         GtNm1 (THERMODYNAMICS)  max=  5.11235195611397E-06
DEBUG_STATS_RL:         GtNm1 (THERMODYNAMICS) mean=  4.29715478113102E-09
DEBUG_STATS_RL:         GtNm1 (THERMODYNAMICS) S.D.=  2.27159616484719E-07
DEBUG_STATS_RL:         GsNm1 (THERMODYNAMICS)  min= -1.67247684776092E-06
DEBUG_STATS_RL:         GsNm1 (THERMODYNAMICS)  max=  1.47845072605780E-06
DEBUG_STATS_RL:         GsNm1 (THERMODYNAMICS) mean= -4.15025196245891E-11
DEBUG_STATS_RL:         GsNm1 (THERMODYNAMICS) S.D.=  2.57418861454826E-08
DEBUG_STATS_RL:                EtaN (DYNAMICS)  min= -1.55139658317351E+00
DEBUG_STATS_RL:                EtaN (DYNAMICS)  max=  8.96734076357042E-01
DEBUG_STATS_RL:                EtaN (DYNAMICS) mean= -1.65940434382725E-01
DEBUG_STATS_RL:                EtaN (DYNAMICS) S.D.=  6.53489566562575E-01
DEBUG_STATS_RL:                Uvel (DYNAMICS)  min= -1.16426889473650E-01
DEBUG_STATS_RL:                Uvel (DYNAMICS)  max=  1.87944234263322E-01
DEBUG_STATS_RL:                Uvel (DYNAMICS) mean=  6.40912577801175E-03
DEBUG_STATS_RL:                Uvel (DYNAMICS) S.D.=  2.56932846504757E-02
DEBUG_STATS_RL:                Vvel (DYNAMICS)  min= -1.08510565961535E-01
DEBUG_STATS_RL:                Vvel (DYNAMICS)  max=  1.25654185237526E-01
DEBUG_STATS_RL:                Vvel (DYNAMICS) mean=  1.16170286920771E-03
DEBUG_STATS_RL:                Vvel (DYNAMICS) S.D.=  1.48331015242025E-02
DEBUG_STATS_RL:                Wvel (DYNAMICS)  min= -1.89126054977960E-04
DEBUG_STATS_RL:                Wvel (DYNAMICS)  max=  1.49634130269982E-04
DEBUG_STATS_RL:                Wvel (DYNAMICS) mean=  1.67995128453558E-07
DEBUG_STATS_RL:                Wvel (DYNAMICS) S.D.=  1.55502171782635E-05
DEBUG_STATS_RL:               Theta (DYNAMICS)  min= -1.98960657285063E+00
DEBUG_STATS_RL:               Theta (DYNAMICS)  max=  2.96858937453145E+01
DEBUG_STATS_RL:               Theta (DYNAMICS) mean=  3.20615191558512E+00
DEBUG_STATS_RL:               Theta (DYNAMICS) S.D.=  5.85310794569869E+00
DEBUG_STATS_RL:                Salt (DYNAMICS)  min= -7.83495430699523E-04
DEBUG_STATS_RL:                Salt (DYNAMICS)  max=  3.74402340623523E+01
DEBUG_STATS_RL:                Salt (DYNAMICS) mean=  1.88444177148773E+01
DEBUG_STATS_RL:                Salt (DYNAMICS) S.D.=  1.73006790058025E+01
DEBUG_STATS_RL:                  Gu (DYNAMICS)  min= -1.23652436091692E-01
DEBUG_STATS_RL:                  Gu (DYNAMICS)  max=  1.90235407571917E-01
DEBUG_STATS_RL:                  Gu (DYNAMICS) mean=  6.09524111328232E-03
DEBUG_STATS_RL:                  Gu (DYNAMICS) S.D.=  2.54287309657221E-02
DEBUG_STATS_RL:                  Gv (DYNAMICS)  min= -1.05295652600630E-01
DEBUG_STATS_RL:                  Gv (DYNAMICS)  max=  1.41001615952754E-01
DEBUG_STATS_RL:                  Gv (DYNAMICS) mean=  3.56919354655900E-03
DEBUG_STATS_RL:                  Gv (DYNAMICS) S.D.=  1.67899264021532E-02
DEBUG_STATS_RL:               GuNm1 (DYNAMICS)  min= -7.15624630856545E-06
DEBUG_STATS_RL:               GuNm1 (DYNAMICS)  max=  7.32003030588296E-06
DEBUG_STATS_RL:               GuNm1 (DYNAMICS) mean= -1.53707799453792E-08
DEBUG_STATS_RL:               GuNm1 (DYNAMICS) S.D.=  1.11343277023138E-06
DEBUG_STATS_RL:               GvNm1 (DYNAMICS)  min= -8.82834983131442E-06
DEBUG_STATS_RL:               GvNm1 (DYNAMICS)  max=  1.69230364840285E-05
DEBUG_STATS_RL:               GvNm1 (DYNAMICS) mean=  7.73460271997229E-07
DEBUG_STATS_RL:               GvNm1 (DYNAMICS) S.D.=  2.56732785390046E-06
DEBUG_STATS_RL:               GtNm1 (DYNAMICS)  min= -6.85208707259757E-06
DEBUG_STATS_RL:               GtNm1 (DYNAMICS)  max=  5.11235195611397E-06
DEBUG_STATS_RL:               GtNm1 (DYNAMICS) mean=  4.29715478113102E-09
DEBUG_STATS_RL:               GtNm1 (DYNAMICS) S.D.=  2.27159616484719E-07
DEBUG_STATS_RL:               GsNm1 (DYNAMICS)  min= -1.67247684776092E-06
DEBUG_STATS_RL:               GsNm1 (DYNAMICS)  max=  1.47845072605780E-06
DEBUG_STATS_RL:               GsNm1 (DYNAMICS) mean= -4.15025196245891E-11
DEBUG_STATS_RL:               GsNm1 (DYNAMICS) S.D.=  2.57418861454826E-08
DEBUG_STATS_RL:    cg2d_b (SOLVE_FOR_PRESSURE)  min= -1.91562167533774E+04
DEBUG_STATS_RL:    cg2d_b (SOLVE_FOR_PRESSURE)  max=  1.31549872103660E+04
DEBUG_STATS_RL:    cg2d_b (SOLVE_FOR_PRESSURE) mean=  1.23510978132154E+00
DEBUG_STATS_RL:    cg2d_b (SOLVE_FOR_PRESSURE) S.D.=  3.20181635199559E+03
 cg2d: Sum(rhs),rhsMax =   1.49261160518815E-01  1.25823160570910E+00
(PID.TID 0000.0001)  cg2d: iter=     1 ; resid.=  1.63355311799019E-01
(PID.TID 0000.0001)  cg2d: iter=     2 ; resid.=  9.08233535518942E-02
(PID.TID 0000.0001)  cg2d: iter=     3 ; resid.=  8.12636768133289E-02
(PID.TID 0000.0001)  cg2d: iter=     4 ; resid.=  6.95949206244698E-02
(PID.TID 0000.0001)  cg2d: iter=     5 ; resid.=  6.07868068272505E-02
(PID.TID 0000.0001)  cg2d: iter=     6 ; resid.=  4.97654939966157E-02
(PID.TID 0000.0001)  cg2d: iter=     7 ; resid.=  4.58537630590766E-02
(PID.TID 0000.0001)  cg2d: iter=     8 ; resid.=  3.78414669923107E-02
(PID.TID 0000.0001)  cg2d: iter=     9 ; resid.=  3.28772370919004E-02
(PID.TID 0000.0001)  cg2d: iter=    10 ; resid.=  2.77718049344794E-02
(PID.TID 0000.0001)  cg2d: iter=    11 ; resid.=  2.51479642933438E-02
(PID.TID 0000.0001)  cg2d: iter=    12 ; resid.=  2.14108337755704E-02
(PID.TID 0000.0001)  cg2d: iter=    13 ; resid.=  1.68783368667539E-02
(PID.TID 0000.0001)  cg2d: iter=    14 ; resid.=  1.30170546119257E-02
(PID.TID 0000.0001)  cg2d: iter=    15 ; resid.=  1.14114674174060E-02
(PID.TID 0000.0001)  cg2d: iter=    16 ; resid.=  1.09807187465885E-02
(PID.TID 0000.0001)  cg2d: iter=    17 ; resid.=  1.09776085990812E-02
(PID.TID 0000.0001)  cg2d: iter=    18 ; resid.=  9.31862614959632E-03
(PID.TID 0000.0001)  cg2d: iter=    19 ; resid.=  7.28465234813552E-03
(PID.TID 0000.0001)  cg2d: iter=    20 ; resid.=  5.55694884899097E-03
(PID.TID 0000.0001)  cg2d: iter=    21 ; resid.=  4.31280089125000E-03
(PID.TID 0000.0001)  cg2d: iter=    22 ; resid.=  3.41251985638119E-03
(PID.TID 0000.0001)  cg2d: iter=    23 ; resid.=  2.65344440742363E-03
(PID.TID 0000.0001)  cg2d: iter=    24 ; resid.=  2.37134921906001E-03
(PID.TID 0000.0001)  cg2d: iter=    25 ; resid.=  2.14164012871241E-03
(PID.TID 0000.0001)  cg2d: iter=    26 ; resid.=  1.87325031699016E-03
(PID.TID 0000.0001)  cg2d: iter=    27 ; resid.=  1.56783232614481E-03
(PID.TID 0000.0001)  cg2d: iter=    28 ; resid.=  1.39726506362098E-03
(PID.TID 0000.0001)  cg2d: iter=    29 ; resid.=  1.11294577882508E-03
(PID.TID 0000.0001)  cg2d: iter=    30 ; resid.=  8.21136397454918E-04
(PID.TID 0000.0001)  cg2d: iter=    31 ; resid.=  6.66135824598864E-04
(PID.TID 0000.0001)  cg2d: iter=    32 ; resid.=  5.50968090970963E-04
(PID.TID 0000.0001)  cg2d: iter=    33 ; resid.=  4.41152367142373E-04
(PID.TID 0000.0001)  cg2d: iter=    34 ; resid.=  3.50370271816375E-04
(PID.TID 0000.0001)  cg2d: iter=    35 ; resid.=  2.76097622729765E-04
(PID.TID 0000.0001)  cg2d: iter=    36 ; resid.=  2.11143233978846E-04
(PID.TID 0000.0001)  cg2d: iter=    37 ; resid.=  1.74587343378553E-04
(PID.TID 0000.0001)  cg2d: iter=    38 ; resid.=  1.71317825003511E-04
(PID.TID 0000.0001)  cg2d: iter=    39 ; resid.=  1.51478514986474E-04
(PID.TID 0000.0001)  cg2d: iter=    40 ; resid.=  1.31734460030231E-04
(PID.TID 0000.0001)  cg2d: iter=    41 ; resid.=  1.07956275993762E-04
(PID.TID 0000.0001)  cg2d: iter=    42 ; resid.=  9.27142019331335E-05
(PID.TID 0000.0001)  cg2d: iter=    43 ; resid.=  7.44641746151487E-05
(PID.TID 0000.0001)  cg2d: iter=    44 ; resid.=  5.93759739805159E-05
(PID.TID 0000.0001)  cg2d: iter=    45 ; resid.=  5.01991083567887E-05
(PID.TID 0000.0001)  cg2d: iter=    46 ; resid.=  4.30895974826936E-05
(PID.TID 0000.0001)  cg2d: iter=    47 ; resid.=  3.49185031669855E-05
(PID.TID 0000.0001)  cg2d: iter=    48 ; resid.=  2.85144289693455E-05
(PID.TID 0000.0001)  cg2d: iter=    49 ; resid.=  2.34551013039545E-05
(PID.TID 0000.0001)  cg2d: iter=    50 ; resid.=  2.09616367058108E-05
(PID.TID 0000.0001)  cg2d: iter=    51 ; resid.=  1.75505140774480E-05
(PID.TID 0000.0001)  cg2d: iter=    52 ; resid.=  1.34461750392722E-05
(PID.TID 0000.0001)  cg2d: iter=    53 ; resid.=  9.89900015947077E-06
(PID.TID 0000.0001)  cg2d: iter=    54 ; resid.=  7.69827729244723E-06
(PID.TID 0000.0001)  cg2d: iter=    55 ; resid.=  6.66318370479643E-06
(PID.TID 0000.0001)  cg2d: iter=    56 ; resid.=  5.79958014212216E-06
(PID.TID 0000.0001)  cg2d: iter=    57 ; resid.=  5.01946732924646E-06
(PID.TID 0000.0001)  cg2d: iter=    58 ; resid.=  4.40129066929264E-06
(PID.TID 0000.0001)  cg2d: iter=    59 ; resid.=  3.69680848836718E-06
(PID.TID 0000.0001)  cg2d: iter=    60 ; resid.=  2.87262701390137E-06
(PID.TID 0000.0001)  cg2d: iter=    61 ; resid.=  2.34469414331814E-06
(PID.TID 0000.0001)  cg2d: iter=    62 ; resid.=  1.96814011242607E-06
(PID.TID 0000.0001)  cg2d: iter=    63 ; resid.=  1.58739140696307E-06
(PID.TID 0000.0001)  cg2d: iter=    64 ; resid.=  1.21790149485916E-06
(PID.TID 0000.0001)  cg2d: iter=    65 ; resid.=  9.52498270531583E-07
(PID.TID 0000.0001)  cg2d: iter=    66 ; resid.=  7.07289776669118E-07
(PID.TID 0000.0001)  cg2d: iter=    67 ; resid.=  5.42573871624061E-07
(PID.TID 0000.0001)  cg2d: iter=    68 ; resid.=  4.15081695551889E-07
(PID.TID 0000.0001)  cg2d: iter=    69 ; resid.=  3.18136345915017E-07
(PID.TID 0000.0001)  cg2d: iter=    70 ; resid.=  2.42384895944889E-07
(PID.TID 0000.0001)  cg2d: iter=    71 ; resid.=  1.81507731702166E-07
(PID.TID 0000.0001)  cg2d: iter=    72 ; resid.=  1.38271556800283E-07
(PID.TID 0000.0001)  cg2d: iter=    73 ; resid.=  1.17159041393469E-07
(PID.TID 0000.0001)  cg2d: iter=    74 ; resid.=  1.05060216314157E-07
(PID.TID 0000.0001)  cg2d: iter=    75 ; resid.=  9.43107233990783E-08
(PID.TID 0000.0001)  cg2d: iter=    76 ; resid.=  8.41648104613433E-08
(PID.TID 0000.0001)  cg2d: iter=    77 ; resid.=  7.59589139547067E-08
(PID.TID 0000.0001)  cg2d: iter=    78 ; resid.=  6.58965495742583E-08
(PID.TID 0000.0001)  cg2d: iter=    79 ; resid.=  5.50061995756988E-08
(PID.TID 0000.0001)  cg2d: iter=    80 ; resid.=  4.49783366503088E-08
(PID.TID 0000.0001)  cg2d: iter=    81 ; resid.=  3.61413371914434E-08
(PID.TID 0000.0001)  cg2d: iter=    82 ; resid.=  2.82754082145037E-08
(PID.TID 0000.0001)  cg2d: iter=    83 ; resid.=  2.19029523639182E-08
(PID.TID 0000.0001)  cg2d: iter=    84 ; resid.=  1.67798859746900E-08
(PID.TID 0000.0001)  cg2d: iter=    85 ; resid.=  1.26724461623511E-08
(PID.TID 0000.0001)  cg2d: iter=    86 ; resid.=  9.20751957602391E-09
(PID.TID 0000.0001)  cg2d: iter=    87 ; resid.=  7.25414460963825E-09
(PID.TID 0000.0001)  cg2d: iter=    88 ; resid.=  5.03003780390345E-09
(PID.TID 0000.0001)  cg2d: iter=    89 ; resid.=  3.57555120373983E-09
(PID.TID 0000.0001)  cg2d: iter=    90 ; resid.=  2.86442516870995E-09
(PID.TID 0000.0001)  cg2d: iter=    91 ; resid.=  2.58427562958232E-09
(PID.TID 0000.0001)  cg2d: iter=    92 ; resid.=  2.37524777415620E-09
(PID.TID 0000.0001)  cg2d: iter=    93 ; resid.=  1.95044515977066E-09
(PID.TID 0000.0001)  cg2d: iter=    94 ; resid.=  1.52889407360944E-09
(PID.TID 0000.0001)  cg2d: iter=    95 ; resid.=  1.24816690426462E-09
(PID.TID 0000.0001)  cg2d: iter=    96 ; resid.=  1.06355329603800E-09
(PID.TID 0000.0001)  cg2d: iter=    97 ; resid.=  9.02205033173326E-10
(PID.TID 0000.0001)  cg2d: iter=    98 ; resid.=  6.90579449002250E-10
(PID.TID 0000.0001)  cg2d: iter=    99 ; resid.=  5.35046626007378E-10
(PID.TID 0000.0001)  cg2d: iter=   100 ; resid.=  4.24202102321606E-10
(PID.TID 0000.0001)  cg2d: iter=   101 ; resid.=  3.37760248952763E-10
(PID.TID 0000.0001)  cg2d: iter=   102 ; resid.=  2.83349209734321E-10
(PID.TID 0000.0001)  cg2d: iter=   103 ; resid.=  2.36965971212428E-10
(PID.TID 0000.0001)  cg2d: iter=   104 ; resid.=  1.89530808710633E-10
(PID.TID 0000.0001)  cg2d: iter=   105 ; resid.=  1.48773937555411E-10
(PID.TID 0000.0001)  cg2d: iter=   106 ; resid.=  1.21646653558466E-10
(PID.TID 0000.0001)  cg2d: iter=   107 ; resid.=  9.67931915637458E-11
(PID.TID 0000.0001)  cg2d: iter=   108 ; resid.=  7.18761169168352E-11
(PID.TID 0000.0001)  cg2d: iter=   109 ; resid.=  5.19269848638275E-11
(PID.TID 0000.0001)  cg2d: iter=   110 ; resid.=  3.77813788909266E-11
(PID.TID 0000.0001)  cg2d: iter=   111 ; resid.=  2.76568080597238E-11
(PID.TID 0000.0001)  cg2d: iter=   112 ; resid.=  2.15074972657424E-11
(PID.TID 0000.0001)  cg2d: iter=   113 ; resid.=  1.61025151575126E-11
(PID.TID 0000.0001)  cg2d: iter=   114 ; resid.=  1.06238886033596E-11
(PID.TID 0000.0001)  cg2d: iter=   115 ; resid.=  7.78977053735467E-12
(PID.TID 0000.0001)  cg2d: iter=   116 ; resid.=  6.16455997225302E-12
(PID.TID 0000.0001)  cg2d: iter=   117 ; resid.=  4.89838869823334E-12
(PID.TID 0000.0001)  cg2d: iter=   118 ; resid.=  3.64267899970209E-12
(PID.TID 0000.0001)  cg2d: iter=   119 ; resid.=  2.60348951946785E-12
(PID.TID 0000.0001)  cg2d: iter=   120 ; resid.=  1.87658361306740E-12
(PID.TID 0000.0001)  cg2d: iter=   121 ; resid.=  1.39179134755342E-12
(PID.TID 0000.0001)  cg2d: iter=   122 ; resid.=  1.01087619535905E-12
(PID.TID 0000.0001)  cg2d: iter=   123 ; resid.=  7.65366193195728E-13
(PID.TID 0000.0001)  cg2d: iter=   124 ; resid.=  6.07228551251564E-13
(PID.TID 0000.0001)  cg2d: iter=   125 ; resid.=  5.32752104594601E-13
(PID.TID 0000.0001)  cg2d: iter=   126 ; resid.=  4.62368827308322E-13
(PID.TID 0000.0001)  cg2d: iter=   127 ; resid.=  3.58127515863217E-13
(PID.TID 0000.0001)  cg2d: iter=   128 ; resid.=  2.46886323634353E-13
(PID.TID 0000.0001)  cg2d: iter=   129 ; resid.=  1.63914232788438E-13
(PID.TID 0000.0001)  cg2d: iter=   130 ; resid.=  1.14435352929789E-13
(PID.TID 0000.0001)  cg2d: iter=   131 ; resid.=  7.96215952889998E-14
DEBUG_STATS_RL:    cg2d_x (SOLVE_FOR_PRESSURE)  min= -1.54744862474284E+01
DEBUG_STATS_RL:    cg2d_x (SOLVE_FOR_PRESSURE)  max=  9.14442116263855E+00
DEBUG_STATS_RL:    cg2d_x (SOLVE_FOR_PRESSURE) mean= -1.64673429954563E+00
DEBUG_STATS_RL:    cg2d_x (SOLVE_FOR_PRESSURE) S.D.=  6.46553256468836E+00
(PID.TID 0000.0001)      cg2d_init_res =   5.35387170857780E-01
(PID.TID 0000.0001)      cg2d_iters(min,last) =      -1     131
(PID.TID 0000.0001)      cg2d_last_res =   7.96215952889998E-14
(PID.TID 0000.0001) // =======================================================
(PID.TID 0000.0001) // Begin MONITOR dynamic field statistics
(PID.TID 0000.0001) // =======================================================
(PID.TID 0000.0001) %MON time_tsnumber                =                    18
(PID.TID 0000.0001) %MON time_secondsf                =   1.5552000000000E+06
(PID.TID 0000.0001) %MON dynstat_eta_max              =   9.3215302371440E-01
(PID.TID 0000.0001) %MON dynstat_eta_min              =  -1.5774195970876E+00
(PID.TID 0000.0001) %MON dynstat_eta_mean             =  -1.2886839082525E-03
(PID.TID 0000.0001) %MON dynstat_eta_sd               =   5.8473465941086E-01
(PID.TID 0000.0001) %MON dynstat_eta_del2             =   1.7630401914115E-03
(PID.TID 0000.0001) %MON dynstat_uvel_max             =   1.8435868791578E-01
(PID.TID 0000.0001) %MON dynstat_uvel_min             =  -1.2337364980566E-01
(PID.TID 0000.0001) %MON dynstat_uvel_mean            =   9.7543224973530E-04
(PID.TID 0000.0001) %MON dynstat_uvel_sd              =   1.5303932029821E-02
(PID.TID 0000.0001) %MON dynstat_uvel_del2            =   9.5135601590028E-05
(PID.TID 0000.0001) %MON dynstat_vvel_max             =   1.2786679256490E-01
(PID.TID 0000.0001) %MON dynstat_vvel_min             =  -1.0897174234987E-01
(PID.TID 0000.0001) %MON dynstat_vvel_mean            =   6.7904956326570E-05
(PID.TID 0000.0001) %MON dynstat_vvel_sd              =   9.1498454032546E-03
(PID.TID 0000.0001) %MON dynstat_vvel_del2            =   8.6842598966166E-05
(PID.TID 0000.0001) %MON dynstat_wvel_max             =   1.4277279244783E-04
(PID.TID 0000.0001) %MON dynstat_wvel_min             =  -1.8394520384405E-04
(PID.TID 0000.0001) %MON dynstat_wvel_mean            =   8.9150085016566E-23
(PID.TID 0000.0001) %MON dynstat_wvel_sd              =   1.7750264595483E-05
(PID.TID 0000.0001) %MON dynstat_wvel_del2            =   2.0825382848366E-07
(PID.TID 0000.0001) %MON dynstat_theta_max            =   2.9685893745314E+01
(PID.TID 0000.0001) %MON dynstat_theta_min            =  -1.9896065728506E+00
(PID.TID 0000.0001) %MON dynstat_theta_mean           =   3.6188661265210E+00
(PID.TID 0000.0001) %MON dynstat_theta_sd             =   4.4142502973720E+00
(PID.TID 0000.0001) %MON dynstat_theta_del2           =   4.8384901218117E-03
(PID.TID 0000.0001) %MON dynstat_salt_max             =   3.7440234062352E+01
(PID.TID 0000.0001) %MON dynstat_salt_min             =   2.9763304996519E+01
(PID.TID 0000.0001) %MON dynstat_salt_mean            =   3.4717193986364E+01
(PID.TID 0000.0001) %MON dynstat_salt_sd              =   2.9618963759392E-01
(PID.TID 0000.0001) %MON dynstat_salt_del2            =   1.0087735002606E-03
(PID.TID 0000.0001) %MON dynstat_sst_max              =   2.9685893745314E+01
(PID.TID 0000.0001) %MON dynstat_sst_min              =  -1.9896065728506E+00
(PID.TID 0000.0001) %MON dynstat_sst_mean             =   1.8626811347797E+01
(PID.TID 0000.0001) %MON dynstat_sst_sd               =   9.0738074168524E+00
(PID.TID 0000.0001) %MON dynstat_sst_del2             =   2.5646875444422E-02
(PID.TID 0000.0001) %MON dynstat_sss_max              =   3.7429656653301E+01
(PID.TID 0000.0001) %MON dynstat_sss_min              =   2.9763304996519E+01
(PID.TID 0000.0001) %MON dynstat_sss_mean             =   3.4853158085546E+01
(PID.TID 0000.0001) %MON dynstat_sss_sd               =   9.7054055924568E-01
(PID.TID 0000.0001) %MON dynstat_sss_del2             =   7.9381189880049E-03
(PID.TID 0000.0001) %MON forcing_qnet_max             =   4.3497544352214E+02
(PID.TID 0000.0001) %MON forcing_qnet_min             =  -1.7954050801595E+02
(PID.TID 0000.0001) %MON forcing_qnet_mean            =  -1.6342707666237E+01
(PID.TID 0000.0001) %MON forcing_qnet_sd              =   1.0771909522073E+02
(PID.TID 0000.0001) %MON forcing_qnet_del2            =   1.0162694266512E+00
(PID.TID 0000.0001) %MON forcing_qsw_max              =   0.0000000000000E+00
(PID.TID 0000.0001) %MON forcing_qsw_min              =   0.0000000000000E+00
(PID.TID 0000.0001) %MON forcing_qsw_mean             =   0.0000000000000E+00
(PID.TID 0000.0001) %MON forcing_qsw_sd               =   0.0000000000000E+00
(PID.TID 0000.0001) %MON forcing_qsw_del2             =   0.0000000000000E+00
(PID.TID 0000.0001) %MON forcing_empmr_max            =   8.1546059504944E-05
(PID.TID 0000.0001) %MON forcing_empmr_min            =  -7.6315244731025E-05
(PID.TID 0000.0001) %MON forcing_empmr_mean           =   9.2430185663055E-07
(PID.TID 0000.0001) %MON forcing_empmr_sd             =   2.8695327910656E-05
(PID.TID 0000.0001) %MON forcing_empmr_del2           =   3.6515496809023E-07
(PID.TID 0000.0001) %MON forcing_fu_max               =   2.7838672995567E-01
(PID.TID 0000.0001) %MON forcing_fu_min               =  -1.6925448477268E-01
(PID.TID 0000.0001) %MON forcing_fu_mean              =   1.6110335583504E-02
(PID.TID 0000.0001) %MON forcing_fu_sd                =   9.0706822910468E-02
(PID.TID 0000.0001) %MON forcing_fu_del2              =   7.0993529997620E-04
(PID.TID 0000.0001) %MON forcing_fv_max               =   2.2670442660650E-01
(PID.TID 0000.0001) %MON forcing_fv_min               =  -1.7615430057049E-01
(PID.TID 0000.0001) %MON forcing_fv_mean              =  -5.3894195529355E-03
(PID.TID 0000.0001) %MON forcing_fv_sd                =   4.7622093142011E-02
(PID.TID 0000.0001) %MON forcing_fv_del2              =   4.8876213669100E-04
(PID.TID 0000.0001) %MON trAdv_CFL_u_max              =   5.0129114531663E-02
(PID.TID 0000.0001) %MON trAdv_CFL_v_max              =   2.4615144214131E-02
(PID.TID 0000.0001) %MON trAdv_CFL_w_max              =   6.3443375986727E-02
(PID.TID 0000.0001) %MON advcfl_uvel_max              =   4.8197787397835E-02
(PID.TID 0000.0001) %MON advcfl_vvel_max              =   2.4842467058558E-02
(PID.TID 0000.0001) %MON advcfl_wvel_max              =   5.5778756058672E-02
(PID.TID 0000.0001) %MON advcfl_W_hf_max              =   6.1589043148117E-02
(PID.TID 0000.0001) %MON pe_b_mean                    =   4.3752309575299E-04
(PID.TID 0000.0001) %MON ke_max                       =   1.8098302915942E-02
(PID.TID 0000.0001) %MON ke_mean                      =   1.4442506651120E-04
(PID.TID 0000.0001) %MON ke_vol                       =   1.3226782436723E+18
(PID.TID 0000.0001) %MON vort_r_min                   =  -3.4165063922685E-07
(PID.TID 0000.0001) %MON vort_r_max                   =   3.9957161205530E-07
(PID.TID 0000.0001) %MON vort_a_mean                  =  -2.5274806876232E-05
(PID.TID 0000.0001) %MON vort_a_sd                    =   7.3604456220743E-05
(PID.TID 0000.0001) %MON vort_p_mean                  =  -3.1845655142749E-05
(PID.TID 0000.0001) %MON vort_p_sd                    =   1.3162403976810E-04
(PID.TID 0000.0001) %MON surfExpan_theta_mean         =   4.2671813986868E-07
(PID.TID 0000.0001) %MON surfExpan_salt_mean          =   3.0380484897651E-08
(PID.TID 0000.0001) // =======================================================
(PID.TID 0000.0001) // End MONITOR dynamic field statistics
(PID.TID 0000.0001) // =======================================================
 EXTERNAL_FIELDS_LOAD,        18 : iP,iLd,i0,i1=    1    2    1    2 ; Wght=  0.9000000000  0.1000000000
 EXTERNAL_FIELDS_LOAD: (fu0,1),fu,fv= -3.5633E-02 -1.4435E-02 -3.3513E-02 -5.3295E-02
 EXTERNAL_FIELDS_LOAD: SST,SSS,Q,E-P=  8.0940E-01  3.4685E+01  2.6324E+02  1.1311E-05
DEBUG_STATS_RL:          Uvel (THERMODYNAMICS)  min= -1.23373649805664E-01
DEBUG_STATS_RL:          Uvel (THERMODYNAMICS)  max=  1.84358687915780E-01
DEBUG_STATS_RL:          Uvel (THERMODYNAMICS) mean=  6.18682215025139E-03
DEBUG_STATS_RL:          Uvel (THERMODYNAMICS) S.D.=  2.51506485498823E-02
DEBUG_STATS_RL:          Vvel (THERMODYNAMICS)  min= -1.08971742349869E-01
DEBUG_STATS_RL:          Vvel (THERMODYNAMICS)  max=  1.27866792564897E-01
DEBUG_STATS_RL:          Vvel (THERMODYNAMICS) mean=  1.45019345162400E-03
DEBUG_STATS_RL:          Vvel (THERMODYNAMICS) S.D.=  1.53518172960392E-02
DEBUG_STATS_RL:          Wvel (THERMODYNAMICS)  min= -1.83945203844050E-04
DEBUG_STATS_RL:          Wvel (THERMODYNAMICS)  max=  1.42772792447832E-04
DEBUG_STATS_RL:          Wvel (THERMODYNAMICS) mean=  2.67771820614502E-07
DEBUG_STATS_RL:          Wvel (THERMODYNAMICS) S.D.=  1.60003242603056E-05
DEBUG_STATS_RL:         Theta (THERMODYNAMICS)  min= -1.98976369066855E+00
DEBUG_STATS_RL:         Theta (THERMODYNAMICS)  max=  2.96901834375434E+01
DEBUG_STATS_RL:         Theta (THERMODYNAMICS) mean=  3.20613062403431E+00
DEBUG_STATS_RL:         Theta (THERMODYNAMICS) S.D.=  5.85327566843065E+00
DEBUG_STATS_RL:          Salt (THERMODYNAMICS)  min= -7.83495430699523E-04
DEBUG_STATS_RL:          Salt (THERMODYNAMICS)  max=  3.74413137368894E+01
DEBUG_STATS_RL:          Salt (THERMODYNAMICS) mean=  1.88444101697785E+01
DEBUG_STATS_RL:          Salt (THERMODYNAMICS) S.D.=  1.73006725805770E+01
DEBUG_STATS_RL:         GtNm1 (THERMODYNAMICS)  min= -4.81173854679720E-06
DEBUG_STATS_RL:         GtNm1 (THERMODYNAMICS)  max=  3.47630868590189E-06
DEBUG_STATS_RL:         GtNm1 (THERMODYNAMICS) mean=  2.08561860311652E-09
DEBUG_STATS_RL:         GtNm1 (THERMODYNAMICS) S.D.=  2.22574690022531E-07
DEBUG_STATS_RL:         GsNm1 (THERMODYNAMICS)  min= -1.07733528252110E-06
DEBUG_STATS_RL:         GsNm1 (THERMODYNAMICS)  max=  1.00451282066584E-06
DEBUG_STATS_RL:         GsNm1 (THERMODYNAMICS) mean= -1.17837730022131E-10
DEBUG_STATS_RL:         GsNm1 (THERMODYNAMICS) S.D.=  2.39803923340328E-08
DEBUG_STATS_RL:                EtaN (DYNAMICS)  min= -1.57741959708756E+00
DEBUG_STATS_RL:                EtaN (DYNAMICS)  max=  9.32153023714398E-01
DEBUG_STATS_RL:                EtaN (DYNAMICS) mean= -1.67862823603020E-01
DEBUG_STATS_RL:                EtaN (DYNAMICS) S.D.=  6.59075694667517E-01
DEBUG_STATS_RL:                Uvel (DYNAMICS)  min= -1.23373649805664E-01
DEBUG_STATS_RL:                Uvel (DYNAMICS)  max=  1.84358687915780E-01
DEBUG_STATS_RL:                Uvel (DYNAMICS) mean=  6.18682215025139E-03
DEBUG_STATS_RL:                Uvel (DYNAMICS) S.D.=  2.51506485498823E-02
DEBUG_STATS_RL:                Vvel (DYNAMICS)  min= -1.08971742349869E-01
DEBUG_STATS_RL:                Vvel (DYNAMICS)  max=  1.27866792564897E-01
DEBUG_STATS_RL:                Vvel (DYNAMICS) mean=  1.45019345162400E-03
DEBUG_STATS_RL:                Vvel (DYNAMICS) S.D.=  1.53518172960392E-02
DEBUG_STATS_RL:                Wvel (DYNAMICS)  min= -1.83945203844050E-04
DEBUG_STATS_RL:                Wvel (DYNAMICS)  max=  1.42772792447832E-04
DEBUG_STATS_RL:                Wvel (DYNAMICS) mean=  2.67771820614502E-07
DEBUG_STATS_RL:                Wvel (DYNAMICS) S.D.=  1.60003242603056E-05
DEBUG_STATS_RL:               Theta (DYNAMICS)  min= -1.98976369066855E+00
DEBUG_STATS_RL:               Theta (DYNAMICS)  max=  2.96901834375434E+01
DEBUG_STATS_RL:               Theta (DYNAMICS) mean=  3.20613062403431E+00
DEBUG_STATS_RL:               Theta (DYNAMICS) S.D.=  5.85327566843065E+00
DEBUG_STATS_RL:                Salt (DYNAMICS)  min= -7.83495430699523E-04
DEBUG_STATS_RL:                Salt (DYNAMICS)  max=  3.74413137368894E+01
DEBUG_STATS_RL:                Salt (DYNAMICS) mean=  1.88444101697785E+01
DEBUG_STATS_RL:                Salt (DYNAMICS) S.D.=  1.73006725805770E+01
DEBUG_STATS_RL:                  Gu (DYNAMICS)  min= -1.30339725145483E-01
DEBUG_STATS_RL:                  Gu (DYNAMICS)  max=  1.88038858586573E-01
DEBUG_STATS_RL:                  Gu (DYNAMICS) mean=  5.78407044682912E-03
DEBUG_STATS_RL:                  Gu (DYNAMICS) S.D.=  2.46892990618712E-02
DEBUG_STATS_RL:                  Gv (DYNAMICS)  min= -1.13062639765725E-01
DEBUG_STATS_RL:                  Gv (DYNAMICS)  max=  1.54348379535314E-01
DEBUG_STATS_RL:                  Gv (DYNAMICS) mean=  3.80974696351740E-03
DEBUG_STATS_RL:                  Gv (DYNAMICS) S.D.=  1.74682127116660E-02
DEBUG_STATS_RL:               GuNm1 (DYNAMICS)  min= -7.29243417479961E-06
DEBUG_STATS_RL:               GuNm1 (DYNAMICS)  max=  7.44407695349961E-06
DEBUG_STATS_RL:               GuNm1 (DYNAMICS) mean= -1.43756167319620E-08
DEBUG_STATS_RL:               GuNm1 (DYNAMICS) S.D.=  1.12258932487039E-06
DEBUG_STATS_RL:               GvNm1 (DYNAMICS)  min= -8.99551311487680E-06
DEBUG_STATS_RL:               GvNm1 (DYNAMICS)  max=  1.69425587231375E-05
DEBUG_STATS_RL:               GvNm1 (DYNAMICS) mean=  7.72940241121869E-07
DEBUG_STATS_RL:               GvNm1 (DYNAMICS) S.D.=  2.57160139519931E-06
DEBUG_STATS_RL:               GtNm1 (DYNAMICS)  min= -4.81173854679720E-06
DEBUG_STATS_RL:               GtNm1 (DYNAMICS)  max=  3.47630868590189E-06
DEBUG_STATS_RL:               GtNm1 (DYNAMICS) mean=  2.08561860311652E-09
DEBUG_STATS_RL:               GtNm1 (DYNAMICS) S.D.=  2.22574690022531E-07
DEBUG_STATS_RL:               GsNm1 (DYNAMICS)  min= -1.07733528252110E-06
DEBUG_STATS_RL:               GsNm1 (DYNAMICS)  max=  1.00451282066584E-06
DEBUG_STATS_RL:               GsNm1 (DYNAMICS) mean= -1.17837730022131E-10
DEBUG_STATS_RL:               GsNm1 (DYNAMICS) S.D.=  2.39803923340328E-08
DEBUG_STATS_RL:    cg2d_b (SOLVE_FOR_PRESSURE)  min= -2.00213435035468E+04
DEBUG_STATS_RL:    cg2d_b (SOLVE_FOR_PRESSURE)  max=  1.39758842664194E+04
DEBUG_STATS_RL:    cg2d_b (SOLVE_FOR_PRESSURE) mean=  1.30911577393026E+00
DEBUG_STATS_RL:    cg2d_b (SOLVE_FOR_PRESSURE) S.D.=  3.26032659386495E+03
 cg2d: Sum(rhs),rhsMax =   1.51368614004869E-01  1.31505544697283E+00
(PID.TID 0000.0001)  cg2d: iter=     1 ; resid.=  1.54138791075002E-01
(PID.TID 0000.0001)  cg2d: iter=     2 ; resid.=  7.99392546259683E-02
(PID.TID 0000.0001)  cg2d: iter=     3 ; resid.=  6.53593081228146E-02
(PID.TID 0000.0001)  cg2d: iter=     4 ; resid.=  5.46177908701037E-02
(PID.TID 0000.0001)  cg2d: iter=     5 ; resid.=  4.81694494870634E-02
(PID.TID 0000.0001)  cg2d: iter=     6 ; resid.=  3.96735298176153E-02
(PID.TID 0000.0001)  cg2d: iter=     7 ; resid.=  3.65610504097475E-02
(PID.TID 0000.0001)  cg2d: iter=     8 ; resid.=  3.06156663389169E-02
(PID.TID 0000.0001)  cg2d: iter=     9 ; resid.=  2.65120884327257E-02
(PID.TID 0000.0001)  cg2d: iter=    10 ; resid.=  2.15926094903866E-02
(PID.TID 0000.0001)  cg2d: iter=    11 ; resid.=  1.90535069448429E-02
(PID.TID 0000.0001)  cg2d: iter=    12 ; resid.=  1.65139040376568E-02
(PID.TID 0000.0001)  cg2d: iter=    13 ; resid.=  1.33426541552255E-02
(PID.TID 0000.0001)  cg2d: iter=    14 ; resid.=  9.91377106576475E-03
(PID.TID 0000.0001)  cg2d: iter=    15 ; resid.=  8.08797351767396E-03
(PID.TID 0000.0001)  cg2d: iter=    16 ; resid.=  7.40256013273042E-03
(PID.TID 0000.0001)  cg2d: iter=    17 ; resid.=  7.54136963056237E-03
(PID.TID 0000.0001)  cg2d: iter=    18 ; resid.=  6.85527214908698E-03
(PID.TID 0000.0001)  cg2d: iter=    19 ; resid.=  5.70748179230873E-03
(PID.TID 0000.0001)  cg2d: iter=    20 ; resid.=  4.61006970796552E-03
(PID.TID 0000.0001)  cg2d: iter=    21 ; resid.=  3.71093572714321E-03
(PID.TID 0000.0001)  cg2d: iter=    22 ; resid.=  3.01304562257445E-03
(PID.TID 0000.0001)  cg2d: iter=    23 ; resid.=  2.34963041290507E-03
(PID.TID 0000.0001)  cg2d: iter=    24 ; resid.=  2.09459878636311E-03
(PID.TID 0000.0001)  cg2d: iter=    25 ; resid.=  1.85936233716613E-03
(PID.TID 0000.0001)  cg2d: iter=    26 ; resid.=  1.58523570141518E-03
(PID.TID 0000.0001)  cg2d: iter=    27 ; resid.=  1.27248455542342E-03
(PID.TID 0000.0001)  cg2d: iter=    28 ; resid.=  1.10625035202400E-03
(PID.TID 0000.0001)  cg2d: iter=    29 ; resid.=  8.67494162556529E-04
(PID.TID 0000.0001)  cg2d: iter=    30 ; resid.=  6.24241918024683E-04
(PID.TID 0000.0001)  cg2d: iter=    31 ; resid.=  4.74057562494980E-04
(PID.TID 0000.0001)  cg2d: iter=    32 ; resid.=  3.85417486105107E-04
(PID.TID 0000.0001)  cg2d: iter=    33 ; resid.=  3.10933665228317E-04
(PID.TID 0000.0001)  cg2d: iter=    34 ; resid.=  2.45721211622988E-04
(PID.TID 0000.0001)  cg2d: iter=    35 ; resid.=  1.89191333421246E-04
(PID.TID 0000.0001)  cg2d: iter=    36 ; resid.=  1.41026263326402E-04
(PID.TID 0000.0001)  cg2d: iter=    37 ; resid.=  1.11963240789902E-04
(PID.TID 0000.0001)  cg2d: iter=    38 ; resid.=  1.09424706080853E-04
(PID.TID 0000.0001)  cg2d: iter=    39 ; resid.=  9.97058755036806E-05
(PID.TID 0000.0001)  cg2d: iter=    40 ; resid.=  9.15179772796521E-05
(PID.TID 0000.0001)  cg2d: iter=    41 ; resid.=  7.78635661330522E-05
(PID.TID 0000.0001)  cg2d: iter=    42 ; resid.=  6.90734640262896E-05
(PID.TID 0000.0001)  cg2d: iter=    43 ; resid.=  5.67962461972966E-05
(PID.TID 0000.0001)  cg2d: iter=    44 ; resid.=  4.56689650380932E-05
(PID.TID 0000.0001)  cg2d: iter=    45 ; resid.=  3.74857159378419E-05
(PID.TID 0000.0001)  cg2d: iter=    46 ; resid.=  3.18080641398987E-05
(PID.TID 0000.0001)  cg2d: iter=    47 ; resid.=  2.53458355277836E-05
(PID.TID 0000.0001)  cg2d: iter=    48 ; resid.=  2.01014580587644E-05
(PID.TID 0000.0001)  cg2d: iter=    49 ; resid.=  1.56122995901457E-05
(PID.TID 0000.0001)  cg2d: iter=    50 ; resid.=  1.34702541075981E-05
(PID.TID 0000.0001)  cg2d: iter=    51 ; resid.=  1.13166353862835E-05
(PID.TID 0000.0001)  cg2d: iter=    52 ; resid.=  8.82623575447290E-06
(PID.TID 0000.0001)  cg2d: iter=    53 ; resid.=  6.49917110582819E-06
(PID.TID 0000.0001)  cg2d: iter=    54 ; resid.=  4.87798661491843E-06
(PID.TID 0000.0001)  cg2d: iter=    55 ; resid.=  4.10606505075349E-06
(PID.TID 0000.0001)  cg2d: iter=    56 ; resid.=  3.44806746367595E-06
(PID.TID 0000.0001)  cg2d: iter=    57 ; resid.=  2.82679396340633E-06
(PID.TID 0000.0001)  cg2d: iter=    58 ; resid.=  2.41006125070387E-06
(PID.TID 0000.0001)  cg2d: iter=    59 ; resid.=  2.09860364890833E-06
(PID.TID 0000.0001)  cg2d: iter=    60 ; resid.=  1.69458955610457E-06
(PID.TID 0000.0001)  cg2d: iter=    61 ; resid.=  1.41510111966433E-06
(PID.TID 0000.0001)  cg2d: iter=    62 ; resid.=  1.20030104959549E-06
(PID.TID 0000.0001)  cg2d: iter=    63 ; resid.=  9.96337395736592E-07
(PID.TID 0000.0001)  cg2d: iter=    64 ; resid.=  7.98965517860616E-07
(PID.TID 0000.0001)  cg2d: iter=    65 ; resid.=  6.64312382536678E-07
(PID.TID 0000.0001)  cg2d: iter=    66 ; resid.=  5.24973617409913E-07
(PID.TID 0000.0001)  cg2d: iter=    67 ; resid.=  4.24576317376782E-07
(PID.TID 0000.0001)  cg2d: iter=    68 ; resid.=  3.35494538722789E-07
(PID.TID 0000.0001)  cg2d: iter=    69 ; resid.=  2.53545994258460E-07
(PID.TID 0000.0001)  cg2d: iter=    70 ; resid.=  1.86352657514170E-07
(PID.TID 0000.0001)  cg2d: iter=    71 ; resid.=  1.38001134485045E-07
(PID.TID 0000.0001)  cg2d: iter=    72 ; resid.=  9.87236301895092E-08
(PID.TID 0000.0001)  cg2d: iter=    73 ; resid.=  7.31331997600505E-08
(PID.TID 0000.0001)  cg2d: iter=    74 ; resid.=  5.40472696353493E-08
(PID.TID 0000.0001)  cg2d: iter=    75 ; resid.=  3.94068512601730E-08
(PID.TID 0000.0001)  cg2d: iter=    76 ; resid.=  2.88595142523050E-08
(PID.TID 0000.0001)  cg2d: iter=    77 ; resid.=  2.24658162713619E-08
(PID.TID 0000.0001)  cg2d: iter=    78 ; resid.=  1.72236895294827E-08
(PID.TID 0000.0001)  cg2d: iter=    79 ; resid.=  1.32350379044462E-08
(PID.TID 0000.0001)  cg2d: iter=    80 ; resid.=  1.07097253818532E-08
(PID.TID 0000.0001)  cg2d: iter=    81 ; resid.=  8.95310650529595E-09
(PID.TID 0000.0001)  cg2d: iter=    82 ; resid.=  7.46672376095969E-09
(PID.TID 0000.0001)  cg2d: iter=    83 ; resid.=  6.58544889093467E-09
(PID.TID 0000.0001)  cg2d: iter=    84 ; resid.=  6.23102581585660E-09
(PID.TID 0000.0001)  cg2d: iter=    85 ; resid.=  5.96651459422169E-09
(PID.TID 0000.0001)  cg2d: iter=    86 ; resid.=  5.03412575351330E-09
(PID.TID 0000.0001)  cg2d: iter=    87 ; resid.=  4.40125526607836E-09
(PID.TID 0000.0001)  cg2d: iter=    88 ; resid.=  3.29156189839016E-09
(PID.TID 0000.0001)  cg2d: iter=    89 ; resid.=  2.39534359793689E-09
(PID.TID 0000.0001)  cg2d: iter=    90 ; resid.=  1.77339337543028E-09
(PID.TID 0000.0001)  cg2d: iter=    91 ; resid.=  1.40224489436280E-09
(PID.TID 0000.0001)  cg2d: iter=    92 ; resid.=  1.18900185936816E-09
(PID.TID 0000.0001)  cg2d: iter=    93 ; resid.=  9.41247817831149E-10
(PID.TID 0000.0001)  cg2d: iter=    94 ; resid.=  7.19616803331966E-10
(PID.TID 0000.0001)  cg2d: iter=    95 ; resid.=  5.66603918539450E-10
(PID.TID 0000.0001)  cg2d: iter=    96 ; resid.=  4.60223289586613E-10
(PID.TID 0000.0001)  cg2d: iter=    97 ; resid.=  3.81922113196691E-10
(PID.TID 0000.0001)  cg2d: iter=    98 ; resid.=  2.95784667389548E-10
(PID.TID 0000.0001)  cg2d: iter=    99 ; resid.=  2.27269973057061E-10
(PID.TID 0000.0001)  cg2d: iter=   100 ; resid.=  1.78891636380210E-10
(PID.TID 0000.0001)  cg2d: iter=   101 ; resid.=  1.41513781105008E-10
(PID.TID 0000.0001)  cg2d: iter=   102 ; resid.=  1.16238449484523E-10
(PID.TID 0000.0001)  cg2d: iter=   103 ; resid.=  9.54248864635874E-11
(PID.TID 0000.0001)  cg2d: iter=   104 ; resid.=  7.64024057949489E-11
(PID.TID 0000.0001)  cg2d: iter=   105 ; resid.=  6.15079736672602E-11
(PID.TID 0000.0001)  cg2d: iter=   106 ; resid.=  5.43513705741403E-11
(PID.TID 0000.0001)  cg2d: iter=   107 ; resid.=  4.96170059886205E-11
(PID.TID 0000.0001)  cg2d: iter=   108 ; resid.=  4.14212874565495E-11
(PID.TID 0000.0001)  cg2d: iter=   109 ; resid.=  3.22907824028916E-11
(PID.TID 0000.0001)  cg2d: iter=   110 ; resid.=  2.48070325327276E-11
(PID.TID 0000.0001)  cg2d: iter=   111 ; resid.=  1.91811870575516E-11
(PID.TID 0000.0001)  cg2d: iter=   112 ; resid.=  1.55777043618021E-11
(PID.TID 0000.0001)  cg2d: iter=   113 ; resid.=  1.23192611446911E-11
(PID.TID 0000.0001)  cg2d: iter=   114 ; resid.=  8.39309824591975E-12
(PID.TID 0000.0001)  cg2d: iter=   115 ; resid.=  6.14310369988241E-12
(PID.TID 0000.0001)  cg2d: iter=   116 ; resid.=  4.82394597912635E-12
(PID.TID 0000.0001)  cg2d: iter=   117 ; resid.=  4.05151616949466E-12
(PID.TID 0000.0001)  cg2d: iter=   118 ; resid.=  3.26329859100462E-12
(PID.TID 0000.0001)  cg2d: iter=   119 ; resid.=  2.44644827087137E-12
(PID.TID 0000.0001)  cg2d: iter=   120 ; resid.=  1.85968026776800E-12
(PID.TID 0000.0001)  cg2d: iter=   121 ; resid.=  1.45680586452137E-12
(PID.TID 0000.0001)  cg2d: iter=   122 ; resid.=  1.09833816778555E-12
(PID.TID 0000.0001)  cg2d: iter=   123 ; resid.=  8.78793310857293E-13
(PID.TID 0000.0001)  cg2d: iter=   124 ; resid.=  7.14760484655073E-13
(PID.TID 0000.0001)  cg2d: iter=   125 ; resid.=  6.14574767394427E-13
(PID.TID 0000.0001)  cg2d: iter=   126 ; resid.=  5.12268221815496E-13
(PID.TID 0000.0001)  cg2d: iter=   127 ; resid.=  3.79293875350456E-13
(PID.TID 0000.0001)  cg2d: iter=   128 ; resid.=  2.49783594927967E-13
(PID.TID 0000.0001)  cg2d: iter=   129 ; resid.=  1.62162880566493E-13
(PID.TID 0000.0001)  cg2d: iter=   130 ; resid.=  1.13483852716663E-13
(PID.TID 0000.0001)  cg2d: iter=   131 ; resid.=  7.95156619889314E-14
DEBUG_STATS_RL:    cg2d_x (SOLVE_FOR_PRESSURE)  min= -1.56606415615854E+01
DEBUG_STATS_RL:    cg2d_x (SOLVE_FOR_PRESSURE)  max=  9.38535457077495E+00
DEBUG_STATS_RL:    cg2d_x (SOLVE_FOR_PRESSURE) mean= -1.66028517710587E+00
DEBUG_STATS_RL:    cg2d_x (SOLVE_FOR_PRESSURE) S.D.=  6.49780199831813E+00
(PID.TID 0000.0001)      cg2d_init_res =   5.16785106107741E-01
(PID.TID 0000.0001)      cg2d_iters(min,last) =      -1     131
(PID.TID 0000.0001)      cg2d_last_res =   7.95156619889314E-14
(PID.TID 0000.0001) // =======================================================
(PID.TID 0000.0001) // Begin MONITOR dynamic field statistics
(PID.TID 0000.0001) // =======================================================
(PID.TID 0000.0001) %MON time_tsnumber                =                    19
(PID.TID 0000.0001) %MON time_secondsf                =   1.6416000000000E+06
(PID.TID 0000.0001) %MON dynstat_eta_max              =   9.5671300415651E-01
(PID.TID 0000.0001) %MON dynstat_eta_min              =  -1.5963956739638E+00
(PID.TID 0000.0001) %MON dynstat_eta_mean             =  -1.3658999850982E-03
(PID.TID 0000.0001) %MON dynstat_eta_sd               =   5.8661185144609E-01
(PID.TID 0000.0001) %MON dynstat_eta_del2             =   1.7930754234508E-03
(PID.TID 0000.0001) %MON dynstat_uvel_max             =   1.8098703781805E-01
(PID.TID 0000.0001) %MON dynstat_uvel_min             =  -1.2988502614709E-01
(PID.TID 0000.0001) %MON dynstat_uvel_mean            =   1.0713995876587E-03
(PID.TID 0000.0001) %MON dynstat_uvel_sd              =   1.4894429888818E-02
(PID.TID 0000.0001) %MON dynstat_uvel_del2            =   9.3800196688457E-05
(PID.TID 0000.0001) %MON dynstat_vvel_max             =   1.3554411503916E-01
(PID.TID 0000.0001) %MON dynstat_vvel_min             =  -1.0865704457419E-01
(PID.TID 0000.0001) %MON dynstat_vvel_mean            =   5.0826945095905E-05
(PID.TID 0000.0001) %MON dynstat_vvel_sd              =   9.3940603907651E-03
(PID.TID 0000.0001) %MON dynstat_vvel_del2            =   8.7609932156709E-05
(PID.TID 0000.0001) %MON dynstat_wvel_max             =   1.3360262953187E-04
(PID.TID 0000.0001) %MON dynstat_wvel_min             =  -1.7719121827589E-04
(PID.TID 0000.0001) %MON dynstat_wvel_mean            =  -8.7395410415996E-23
(PID.TID 0000.0001) %MON dynstat_wvel_sd              =   1.7940409716428E-05
(PID.TID 0000.0001) %MON dynstat_wvel_del2            =   2.1067947694203E-07
(PID.TID 0000.0001) %MON dynstat_theta_max            =   2.9690183437543E+01
(PID.TID 0000.0001) %MON dynstat_theta_min            =  -1.9897636906686E+00
(PID.TID 0000.0001) %MON dynstat_theta_mean           =   3.6189200940077E+00
(PID.TID 0000.0001) %MON dynstat_theta_sd             =   4.4142868418016E+00
(PID.TID 0000.0001) %MON dynstat_theta_del2           =   4.8302275668401E-03
(PID.TID 0000.0001) %MON dynstat_salt_max             =   3.7441313736889E+01
(PID.TID 0000.0001) %MON dynstat_salt_min             =   2.9766810882055E+01
(PID.TID 0000.0001) %MON dynstat_salt_mean            =   3.4717193827097E+01
(PID.TID 0000.0001) %MON dynstat_salt_sd              =   2.9619217676919E-01
(PID.TID 0000.0001) %MON dynstat_salt_del2            =   1.0086006959922E-03
(PID.TID 0000.0001) %MON dynstat_sst_max              =   2.9690183437543E+01
(PID.TID 0000.0001) %MON dynstat_sst_min              =  -1.9897636906686E+00
(PID.TID 0000.0001) %MON dynstat_sst_mean             =   1.8628464864272E+01
(PID.TID 0000.0001) %MON dynstat_sst_sd               =   9.0765473336293E+00
(PID.TID 0000.0001) %MON dynstat_sst_del2             =   2.5679281890038E-02
(PID.TID 0000.0001) %MON dynstat_sss_max              =   3.7429580019860E+01
(PID.TID 0000.0001) %MON dynstat_sss_min              =   2.9766810882055E+01
(PID.TID 0000.0001) %MON dynstat_sss_mean             =   3.4852638009655E+01
(PID.TID 0000.0001) %MON dynstat_sss_sd               =   9.7098499661393E-01
(PID.TID 0000.0001) %MON dynstat_sss_del2             =   7.9364939313119E-03
(PID.TID 0000.0001) %MON forcing_qnet_max             =   4.3165635681152E+02
(PID.TID 0000.0001) %MON forcing_qnet_min             =  -1.7930098876953E+02
(PID.TID 0000.0001) %MON forcing_qnet_mean            =  -1.6257798498834E+01
(PID.TID 0000.0001) %MON forcing_qnet_sd              =   1.0664755624532E+02
(PID.TID 0000.0001) %MON forcing_qnet_del2            =   1.0122795175581E+00
(PID.TID 0000.0001) %MON forcing_qsw_max              =   0.0000000000000E+00
(PID.TID 0000.0001) %MON forcing_qsw_min              =   0.0000000000000E+00
(PID.TID 0000.0001) %MON forcing_qsw_mean             =   0.0000000000000E+00
(PID.TID 0000.0001) %MON forcing_qsw_sd               =   0.0000000000000E+00
(PID.TID 0000.0001) %MON forcing_qsw_del2             =   0.0000000000000E+00
(PID.TID 0000.0001) %MON forcing_empmr_max            =   8.1231969772944E-05
(PID.TID 0000.0001) %MON forcing_empmr_min            =  -7.6394888992581E-05
(PID.TID 0000.0001) %MON forcing_empmr_mean           =   9.2498425389048E-07
(PID.TID 0000.0001) %MON forcing_empmr_sd             =   2.8645556443893E-05
(PID.TID 0000.0001) %MON forcing_empmr_del2           =   3.6402796723615E-07
(PID.TID 0000.0001) %MON forcing_fu_max               =   2.7819065451622E-01
(PID.TID 0000.0001) %MON forcing_fu_min               =  -1.7091440856457E-01
(PID.TID 0000.0001) %MON forcing_fu_mean              =   1.6164635798973E-02
(PID.TID 0000.0001) %MON forcing_fu_sd                =   9.0554740471920E-02
(PID.TID 0000.0001) %MON forcing_fu_del2              =   7.0326557516560E-04
(PID.TID 0000.0001) %MON forcing_fv_max               =   2.2349597960711E-01
(PID.TID 0000.0001) %MON forcing_fv_min               =  -1.7516300082207E-01
(PID.TID 0000.0001) %MON forcing_fv_mean              =  -5.4546804596506E-03
(PID.TID 0000.0001) %MON forcing_fv_sd                =   4.7328470565258E-02
(PID.TID 0000.0001) %MON forcing_fv_del2              =   4.8406077640453E-04
(PID.TID 0000.0001) %MON trAdv_CFL_u_max              =   4.8207576713172E-02
(PID.TID 0000.0001) %MON trAdv_CFL_v_max              =   2.5048584997257E-02
(PID.TID 0000.0001) %MON trAdv_CFL_w_max              =   6.1589043148117E-02
(PID.TID 0000.0001) %MON advcfl_uvel_max              =   4.7316320533282E-02
(PID.TID 0000.0001) %MON advcfl_vvel_max              =   2.6334047685859E-02
(PID.TID 0000.0001) %MON advcfl_wvel_max              =   5.3611833497404E-02
(PID.TID 0000.0001) %MON advcfl_W_hf_max              =   5.9196399486717E-02
(PID.TID 0000.0001) %MON pe_b_mean                    =   4.4033704185278E-04
(PID.TID 0000.0001) %MON ke_max                       =   1.7496468750615E-02
(PID.TID 0000.0001) %MON ke_mean                      =   1.4092833428868E-04
(PID.TID 0000.0001) %MON ke_vol                       =   1.3226782436723E+18
(PID.TID 0000.0001) %MON vort_r_min                   =  -3.1031430591832E-07
(PID.TID 0000.0001) %MON vort_r_max                   =   3.9933210967561E-07
(PID.TID 0000.0001) %MON vort_a_mean                  =  -2.5274806916384E-05
(PID.TID 0000.0001) %MON vort_a_sd                    =   7.3604475062487E-05
(PID.TID 0000.0001) %MON vort_p_mean                  =  -3.1845655193339E-05
(PID.TID 0000.0001) %MON vort_p_sd                    =   1.3162421930906E-04
(PID.TID 0000.0001) %MON surfExpan_theta_mean         =   3.2188351863823E-07
(PID.TID 0000.0001) %MON surfExpan_salt_mean          =   4.4590850831371E-08
(PID.TID 0000.0001) // =======================================================
(PID.TID 0000.0001) // End MONITOR dynamic field statistics
(PID.TID 0000.0001) // =======================================================
 EXTERNAL_FIELDS_LOAD,        19 : iP,iLd,i0,i1=    1    2    1    2 ; Wght=  0.8666666667  0.1333333333
 EXTERNAL_FIELDS_LOAD: (fu0,1),fu,fv= -3.5633E-02 -1.4435E-02 -3.2807E-02 -5.1974E-02
 EXTERNAL_FIELDS_LOAD: SST,SSS,Q,E-P=  7.5972E-01  3.4675E+01  2.6240E+02  1.1202E-05
DEBUG_STATS_RL:          Uvel (THERMODYNAMICS)  min= -1.29885026147092E-01
DEBUG_STATS_RL:          Uvel (THERMODYNAMICS)  max=  1.80987037818049E-01
DEBUG_STATS_RL:          Uvel (THERMODYNAMICS) mean=  5.88319653786458E-03
DEBUG_STATS_RL:          Uvel (THERMODYNAMICS) S.D.=  2.43861074710348E-02
DEBUG_STATS_RL:          Vvel (THERMODYNAMICS)  min= -1.08657044574192E-01
DEBUG_STATS_RL:          Vvel (THERMODYNAMICS)  max=  1.35544115039160E-01
DEBUG_STATS_RL:          Vvel (THERMODYNAMICS) mean=  1.68103175913803E-03
DEBUG_STATS_RL:          Vvel (THERMODYNAMICS) S.D.=  1.58526869356760E-02
DEBUG_STATS_RL:          Wvel (THERMODYNAMICS)  min= -1.77191218275893E-04
DEBUG_STATS_RL:          Wvel (THERMODYNAMICS)  max=  1.33602629531868E-04
DEBUG_STATS_RL:          Wvel (THERMODYNAMICS) mean=  3.50717570048611E-07
DEBUG_STATS_RL:          Wvel (THERMODYNAMICS) S.D.=  1.63243724088880E-05
DEBUG_STATS_RL:         Theta (THERMODYNAMICS)  min= -1.98905205087047E+00
DEBUG_STATS_RL:         Theta (THERMODYNAMICS)  max=  2.96951109990505E+01
DEBUG_STATS_RL:         Theta (THERMODYNAMICS) mean=  3.20602592562064E+00
DEBUG_STATS_RL:         Theta (THERMODYNAMICS) S.D.=  5.85338578006646E+00
DEBUG_STATS_RL:          Salt (THERMODYNAMICS)  min= -7.83495430699523E-04
DEBUG_STATS_RL:          Salt (THERMODYNAMICS)  max=  3.74424498363962E+01
DEBUG_STATS_RL:          Salt (THERMODYNAMICS) mean=  1.88443983703335E+01
DEBUG_STATS_RL:          Salt (THERMODYNAMICS) S.D.=  1.73006622000684E+01
DEBUG_STATS_RL:         GtNm1 (THERMODYNAMICS)  min= -4.73523414763385E-06
DEBUG_STATS_RL:         GtNm1 (THERMODYNAMICS)  max=  3.26861081094492E-06
DEBUG_STATS_RL:         GtNm1 (THERMODYNAMICS) mean=  1.78012778094386E-10
DEBUG_STATS_RL:         GtNm1 (THERMODYNAMICS) S.D.=  2.20128227701622E-07
DEBUG_STATS_RL:         GsNm1 (THERMODYNAMICS)  min= -1.15627232313200E-06
DEBUG_STATS_RL:         GsNm1 (THERMODYNAMICS)  max=  7.85438166320740E-07
DEBUG_STATS_RL:         GsNm1 (THERMODYNAMICS) mean= -1.97253298265071E-10
DEBUG_STATS_RL:         GsNm1 (THERMODYNAMICS) S.D.=  2.27248240581063E-08
DEBUG_STATS_RL:                EtaN (DYNAMICS)  min= -1.59639567396380E+00
DEBUG_STATS_RL:                EtaN (DYNAMICS)  max=  9.56713004156515E-01
DEBUG_STATS_RL:                EtaN (DYNAMICS) mean= -1.69244156687652E-01
DEBUG_STATS_RL:                EtaN (DYNAMICS) S.D.=  6.62365137443234E-01
DEBUG_STATS_RL:                Uvel (DYNAMICS)  min= -1.29885026147092E-01
DEBUG_STATS_RL:                Uvel (DYNAMICS)  max=  1.80987037818049E-01
DEBUG_STATS_RL:                Uvel (DYNAMICS) mean=  5.88319653786458E-03
DEBUG_STATS_RL:                Uvel (DYNAMICS) S.D.=  2.43861074710348E-02
DEBUG_STATS_RL:                Vvel (DYNAMICS)  min= -1.08657044574192E-01
DEBUG_STATS_RL:                Vvel (DYNAMICS)  max=  1.35544115039160E-01
DEBUG_STATS_RL:                Vvel (DYNAMICS) mean=  1.68103175913803E-03
DEBUG_STATS_RL:                Vvel (DYNAMICS) S.D.=  1.58526869356760E-02
DEBUG_STATS_RL:                Wvel (DYNAMICS)  min= -1.77191218275893E-04
DEBUG_STATS_RL:                Wvel (DYNAMICS)  max=  1.33602629531868E-04
DEBUG_STATS_RL:                Wvel (DYNAMICS) mean=  3.50717570048611E-07
DEBUG_STATS_RL:                Wvel (DYNAMICS) S.D.=  1.63243724088880E-05
DEBUG_STATS_RL:               Theta (DYNAMICS)  min= -1.98905205087047E+00
DEBUG_STATS_RL:               Theta (DYNAMICS)  max=  2.96951109990505E+01
DEBUG_STATS_RL:               Theta (DYNAMICS) mean=  3.20602592562064E+00
DEBUG_STATS_RL:               Theta (DYNAMICS) S.D.=  5.85338578006646E+00
DEBUG_STATS_RL:                Salt (DYNAMICS)  min= -7.83495430699523E-04
DEBUG_STATS_RL:                Salt (DYNAMICS)  max=  3.74424498363962E+01
DEBUG_STATS_RL:                Salt (DYNAMICS) mean=  1.88443983703335E+01
DEBUG_STATS_RL:                Salt (DYNAMICS) S.D.=  1.73006622000684E+01
DEBUG_STATS_RL:                  Gu (DYNAMICS)  min= -1.36548887539873E-01
DEBUG_STATS_RL:                  Gu (DYNAMICS)  max=  1.82844741851084E-01
DEBUG_STATS_RL:                  Gu (DYNAMICS) mean=  5.40639505187187E-03
DEBUG_STATS_RL:                  Gu (DYNAMICS) S.D.=  2.37835177944182E-02
DEBUG_STATS_RL:                  Gv (DYNAMICS)  min= -1.22990995993465E-01
DEBUG_STATS_RL:                  Gv (DYNAMICS)  max=  1.64279778859455E-01
DEBUG_STATS_RL:                  Gv (DYNAMICS) mean=  3.98358958250963E-03
DEBUG_STATS_RL:                  Gv (DYNAMICS) S.D.=  1.80110680955809E-02
DEBUG_STATS_RL:               GuNm1 (DYNAMICS)  min= -7.41534724247727E-06
DEBUG_STATS_RL:               GuNm1 (DYNAMICS)  max=  7.55258278199500E-06
DEBUG_STATS_RL:               GuNm1 (DYNAMICS) mean= -1.36594778547753E-08
DEBUG_STATS_RL:               GuNm1 (DYNAMICS) S.D.=  1.13286931531086E-06
DEBUG_STATS_RL:               GvNm1 (DYNAMICS)  min= -9.19330488420752E-06
DEBUG_STATS_RL:               GvNm1 (DYNAMICS)  max=  1.69500590306124E-05
DEBUG_STATS_RL:               GvNm1 (DYNAMICS) mean=  7.72375702957699E-07
DEBUG_STATS_RL:               GvNm1 (DYNAMICS) S.D.=  2.57797955375771E-06
DEBUG_STATS_RL:               GtNm1 (DYNAMICS)  min= -4.73523414763385E-06
DEBUG_STATS_RL:               GtNm1 (DYNAMICS)  max=  3.26861081094492E-06
DEBUG_STATS_RL:               GtNm1 (DYNAMICS) mean=  1.78012778094386E-10
DEBUG_STATS_RL:               GtNm1 (DYNAMICS) S.D.=  2.20128227701622E-07
DEBUG_STATS_RL:               GsNm1 (DYNAMICS)  min= -1.15627232313200E-06
DEBUG_STATS_RL:               GsNm1 (DYNAMICS)  max=  7.85438166320740E-07
DEBUG_STATS_RL:               GsNm1 (DYNAMICS) mean= -1.97253298265071E-10
DEBUG_STATS_RL:               GsNm1 (DYNAMICS) S.D.=  2.27248240581063E-08
DEBUG_STATS_RL:    cg2d_b (SOLVE_FOR_PRESSURE)  min= -2.08196321476579E+04
DEBUG_STATS_RL:    cg2d_b (SOLVE_FOR_PRESSURE)  max=  1.48029048447778E+04
DEBUG_STATS_RL:    cg2d_b (SOLVE_FOR_PRESSURE) mean=  1.38317636366895E+00
DEBUG_STATS_RL:    cg2d_b (SOLVE_FOR_PRESSURE) S.D.=  3.32642184062674E+03
 cg2d: Sum(rhs),rhsMax =   1.53799704970054E-01  1.36748918247659E+00
(PID.TID 0000.0001)  cg2d: iter=     1 ; resid.=  1.44378375877928E-01
(PID.TID 0000.0001)  cg2d: iter=     2 ; resid.=  7.21940861403197E-02
(PID.TID 0000.0001)  cg2d: iter=     3 ; resid.=  5.47742678045491E-02
(PID.TID 0000.0001)  cg2d: iter=     4 ; resid.=  4.60088800945560E-02
(PID.TID 0000.0001)  cg2d: iter=     5 ; resid.=  4.19830325067246E-02
(PID.TID 0000.0001)  cg2d: iter=     6 ; resid.=  3.65158142132813E-02
(PID.TID 0000.0001)  cg2d: iter=     7 ; resid.=  3.41236658819276E-02
(PID.TID 0000.0001)  cg2d: iter=     8 ; resid.=  2.87647641732247E-02
(PID.TID 0000.0001)  cg2d: iter=     9 ; resid.=  2.43656428682813E-02
(PID.TID 0000.0001)  cg2d: iter=    10 ; resid.=  1.87019419136127E-02
(PID.TID 0000.0001)  cg2d: iter=    11 ; resid.=  1.50539254308434E-02
(PID.TID 0000.0001)  cg2d: iter=    12 ; resid.=  1.23469713769023E-02
(PID.TID 0000.0001)  cg2d: iter=    13 ; resid.=  1.00462770776820E-02
(PID.TID 0000.0001)  cg2d: iter=    14 ; resid.=  7.40682828942421E-03
(PID.TID 0000.0001)  cg2d: iter=    15 ; resid.=  5.72204199141544E-03
(PID.TID 0000.0001)  cg2d: iter=    16 ; resid.=  4.76619361778104E-03
(PID.TID 0000.0001)  cg2d: iter=    17 ; resid.=  4.63598429376825E-03
(PID.TID 0000.0001)  cg2d: iter=    18 ; resid.=  4.42639969125673E-03
(PID.TID 0000.0001)  cg2d: iter=    19 ; resid.=  3.98657711710024E-03
(PID.TID 0000.0001)  cg2d: iter=    20 ; resid.=  3.43431644028806E-03
(PID.TID 0000.0001)  cg2d: iter=    21 ; resid.=  2.87953495515451E-03
(PID.TID 0000.0001)  cg2d: iter=    22 ; resid.=  2.41018014263518E-03
(PID.TID 0000.0001)  cg2d: iter=    23 ; resid.=  1.91307207599907E-03
(PID.TID 0000.0001)  cg2d: iter=    24 ; resid.=  1.70304232153017E-03
(PID.TID 0000.0001)  cg2d: iter=    25 ; resid.=  1.50276816014870E-03
(PID.TID 0000.0001)  cg2d: iter=    26 ; resid.=  1.27491608413044E-03
(PID.TID 0000.0001)  cg2d: iter=    27 ; resid.=  1.01865820979176E-03
(PID.TID 0000.0001)  cg2d: iter=    28 ; resid.=  8.68501595625205E-04
(PID.TID 0000.0001)  cg2d: iter=    29 ; resid.=  6.81083497410933E-04
(PID.TID 0000.0001)  cg2d: iter=    30 ; resid.=  4.97896456209994E-04
(PID.TID 0000.0001)  cg2d: iter=    31 ; resid.=  3.75022895503068E-04
(PID.TID 0000.0001)  cg2d: iter=    32 ; resid.=  3.09790468027604E-04
(PID.TID 0000.0001)  cg2d: iter=    33 ; resid.=  2.54225131627511E-04
(PID.TID 0000.0001)  cg2d: iter=    34 ; resid.=  2.02623364450321E-04
(PID.TID 0000.0001)  cg2d: iter=    35 ; resid.=  1.60607520101323E-04
(PID.TID 0000.0001)  cg2d: iter=    36 ; resid.=  1.23804997265861E-04
(PID.TID 0000.0001)  cg2d: iter=    37 ; resid.=  9.72112655338039E-05
(PID.TID 0000.0001)  cg2d: iter=    38 ; resid.=  9.04217019317466E-05
(PID.TID 0000.0001)  cg2d: iter=    39 ; resid.=  8.17118666677191E-05
(PID.TID 0000.0001)  cg2d: iter=    40 ; resid.=  7.50783278665756E-05
(PID.TID 0000.0001)  cg2d: iter=    41 ; resid.=  6.20157859459560E-05
(PID.TID 0000.0001)  cg2d: iter=    42 ; resid.=  5.23313323650918E-05
(PID.TID 0000.0001)  cg2d: iter=    43 ; resid.=  4.23569015301917E-05
(PID.TID 0000.0001)  cg2d: iter=    44 ; resid.=  3.43032561096462E-05
(PID.TID 0000.0001)  cg2d: iter=    45 ; resid.=  2.69497070591571E-05
(PID.TID 0000.0001)  cg2d: iter=    46 ; resid.=  2.21141903036459E-05
(PID.TID 0000.0001)  cg2d: iter=    47 ; resid.=  1.73871899164284E-05
(PID.TID 0000.0001)  cg2d: iter=    48 ; resid.=  1.42699812831590E-05
(PID.TID 0000.0001)  cg2d: iter=    49 ; resid.=  1.12832335265604E-05
(PID.TID 0000.0001)  cg2d: iter=    50 ; resid.=  9.71752612257122E-06
(PID.TID 0000.0001)  cg2d: iter=    51 ; resid.=  8.29646270087990E-06
(PID.TID 0000.0001)  cg2d: iter=    52 ; resid.=  7.00186819375154E-06
(PID.TID 0000.0001)  cg2d: iter=    53 ; resid.=  5.81877715239694E-06
(PID.TID 0000.0001)  cg2d: iter=    54 ; resid.=  4.88194417587471E-06
(PID.TID 0000.0001)  cg2d: iter=    55 ; resid.=  4.43163709811780E-06
(PID.TID 0000.0001)  cg2d: iter=    56 ; resid.=  3.85902078636580E-06
(PID.TID 0000.0001)  cg2d: iter=    57 ; resid.=  3.14381048446078E-06
(PID.TID 0000.0001)  cg2d: iter=    58 ; resid.=  2.56539507143413E-06
(PID.TID 0000.0001)  cg2d: iter=    59 ; resid.=  2.09674240971260E-06
(PID.TID 0000.0001)  cg2d: iter=    60 ; resid.=  1.61998391178632E-06
(PID.TID 0000.0001)  cg2d: iter=    61 ; resid.=  1.32785696998273E-06
(PID.TID 0000.0001)  cg2d: iter=    62 ; resid.=  1.06799264858562E-06
(PID.TID 0000.0001)  cg2d: iter=    63 ; resid.=  8.31511144028933E-07
(PID.TID 0000.0001)  cg2d: iter=    64 ; resid.=  6.37709204338652E-07
(PID.TID 0000.0001)  cg2d: iter=    65 ; resid.=  5.36632747729772E-07
(PID.TID 0000.0001)  cg2d: iter=    66 ; resid.=  4.37618564052800E-07
(PID.TID 0000.0001)  cg2d: iter=    67 ; resid.=  3.56408950914466E-07
(PID.TID 0000.0001)  cg2d: iter=    68 ; resid.=  2.85940605622428E-07
(PID.TID 0000.0001)  cg2d: iter=    69 ; resid.=  2.23448465175357E-07
(PID.TID 0000.0001)  cg2d: iter=    70 ; resid.=  1.73721619052079E-07
(PID.TID 0000.0001)  cg2d: iter=    71 ; resid.=  1.40140908378224E-07
(PID.TID 0000.0001)  cg2d: iter=    72 ; resid.=  1.08023607168859E-07
(PID.TID 0000.0001)  cg2d: iter=    73 ; resid.=  8.72407821070884E-08
(PID.TID 0000.0001)  cg2d: iter=    74 ; resid.=  7.08121722421253E-08
(PID.TID 0000.0001)  cg2d: iter=    75 ; resid.=  5.81381655127875E-08
(PID.TID 0000.0001)  cg2d: iter=    76 ; resid.=  4.97316088036229E-08
(PID.TID 0000.0001)  cg2d: iter=    77 ; resid.=  4.63497216837473E-08
(PID.TID 0000.0001)  cg2d: iter=    78 ; resid.=  4.07853953149299E-08
(PID.TID 0000.0001)  cg2d: iter=    79 ; resid.=  3.44046648312547E-08
(PID.TID 0000.0001)  cg2d: iter=    80 ; resid.=  2.89118349480944E-08
(PID.TID 0000.0001)  cg2d: iter=    81 ; resid.=  2.38787775004478E-08
(PID.TID 0000.0001)  cg2d: iter=    82 ; resid.=  1.96414329152000E-08
(PID.TID 0000.0001)  cg2d: iter=    83 ; resid.=  1.66355495957251E-08
(PID.TID 0000.0001)  cg2d: iter=    84 ; resid.=  1.40188731433901E-08
(PID.TID 0000.0001)  cg2d: iter=    85 ; resid.=  1.12601087603600E-08
(PID.TID 0000.0001)  cg2d: iter=    86 ; resid.=  8.13092345690641E-09
(PID.TID 0000.0001)  cg2d: iter=    87 ; resid.=  6.31993913305286E-09
(PID.TID 0000.0001)  cg2d: iter=    88 ; resid.=  4.44113236493286E-09
(PID.TID 0000.0001)  cg2d: iter=    89 ; resid.=  3.27135260113713E-09
(PID.TID 0000.0001)  cg2d: iter=    90 ; resid.=  2.54168198953092E-09
(PID.TID 0000.0001)  cg2d: iter=    91 ; resid.=  2.07603623568327E-09
(PID.TID 0000.0001)  cg2d: iter=    92 ; resid.=  1.73219570211666E-09
(PID.TID 0000.0001)  cg2d: iter=    93 ; resid.=  1.33772494906243E-09
(PID.TID 0000.0001)  cg2d: iter=    94 ; resid.=  1.05712963870757E-09
(PID.TID 0000.0001)  cg2d: iter=    95 ; resid.=  8.67516506868056E-10
(PID.TID 0000.0001)  cg2d: iter=    96 ; resid.=  6.77608662782879E-10
(PID.TID 0000.0001)  cg2d: iter=    97 ; resid.=  5.13509807513250E-10
(PID.TID 0000.0001)  cg2d: iter=    98 ; resid.=  3.86391496794778E-10
(PID.TID 0000.0001)  cg2d: iter=    99 ; resid.=  3.06193750013939E-10
(PID.TID 0000.0001)  cg2d: iter=   100 ; resid.=  2.47875557626287E-10
(PID.TID 0000.0001)  cg2d: iter=   101 ; resid.=  1.99002806197132E-10
(PID.TID 0000.0001)  cg2d: iter=   102 ; resid.=  1.64655294699943E-10
(PID.TID 0000.0001)  cg2d: iter=   103 ; resid.=  1.37887572077438E-10
(PID.TID 0000.0001)  cg2d: iter=   104 ; resid.=  1.14637799149080E-10
(PID.TID 0000.0001)  cg2d: iter=   105 ; resid.=  9.59456566797255E-11
(PID.TID 0000.0001)  cg2d: iter=   106 ; resid.=  8.54965323704684E-11
(PID.TID 0000.0001)  cg2d: iter=   107 ; resid.=  7.51170346565096E-11
(PID.TID 0000.0001)  cg2d: iter=   108 ; resid.=  5.75277144179386E-11
(PID.TID 0000.0001)  cg2d: iter=   109 ; resid.=  4.23554728759815E-11
(PID.TID 0000.0001)  cg2d: iter=   110 ; resid.=  3.21764136696779E-11
(PID.TID 0000.0001)  cg2d: iter=   111 ; resid.=  2.57813973798209E-11
(PID.TID 0000.0001)  cg2d: iter=   112 ; resid.=  2.15680851830744E-11
(PID.TID 0000.0001)  cg2d: iter=   113 ; resid.=  1.70072376968039E-11
(PID.TID 0000.0001)  cg2d: iter=   114 ; resid.=  1.19685231571405E-11
(PID.TID 0000.0001)  cg2d: iter=   115 ; resid.=  9.52318142915920E-12
(PID.TID 0000.0001)  cg2d: iter=   116 ; resid.=  8.16400001856034E-12
(PID.TID 0000.0001)  cg2d: iter=   117 ; resid.=  7.13430794812174E-12
(PID.TID 0000.0001)  cg2d: iter=   118 ; resid.=  5.55590491739207E-12
(PID.TID 0000.0001)  cg2d: iter=   119 ; resid.=  3.89987381058182E-12
(PID.TID 0000.0001)  cg2d: iter=   120 ; resid.=  2.84752154373937E-12
(PID.TID 0000.0001)  cg2d: iter=   121 ; resid.=  2.17054789837535E-12
(PID.TID 0000.0001)  cg2d: iter=   122 ; resid.=  1.59375818012896E-12
(PID.TID 0000.0001)  cg2d: iter=   123 ; resid.=  1.25865138714571E-12
(PID.TID 0000.0001)  cg2d: iter=   124 ; resid.=  9.50088229391213E-13
(PID.TID 0000.0001)  cg2d: iter=   125 ; resid.=  7.17808616391021E-13
(PID.TID 0000.0001)  cg2d: iter=   126 ; resid.=  5.40067026338619E-13
(PID.TID 0000.0001)  cg2d: iter=   127 ; resid.=  3.80236535038436E-13
(PID.TID 0000.0001)  cg2d: iter=   128 ; resid.=  2.46210622063625E-13
(PID.TID 0000.0001)  cg2d: iter=   129 ; resid.=  1.58092349533378E-13
(PID.TID 0000.0001)  cg2d: iter=   130 ; resid.=  1.08375260753901E-13
(PID.TID 0000.0001)  cg2d: iter=   131 ; resid.=  7.35495622599863E-14
DEBUG_STATS_RL:    cg2d_x (SOLVE_FOR_PRESSURE)  min= -1.58435295679432E+01
DEBUG_STATS_RL:    cg2d_x (SOLVE_FOR_PRESSURE)  max=  9.50175970434956E+00
DEBUG_STATS_RL:    cg2d_x (SOLVE_FOR_PRESSURE) mean= -1.66856449750345E+00
DEBUG_STATS_RL:    cg2d_x (SOLVE_FOR_PRESSURE) S.D.=  6.50887372155269E+00
(PID.TID 0000.0001)      cg2d_init_res =   5.00089130585744E-01
(PID.TID 0000.0001)      cg2d_iters(min,last) =      -1     131
(PID.TID 0000.0001)      cg2d_last_res =   7.35495622599863E-14
(PID.TID 0000.0001) // =======================================================
(PID.TID 0000.0001) // Begin MONITOR dynamic field statistics
(PID.TID 0000.0001) // =======================================================
(PID.TID 0000.0001) %MON time_tsnumber                =                    20
(PID.TID 0000.0001) %MON time_secondsf                =   1.7280000000000E+06
(PID.TID 0000.0001) %MON dynstat_eta_max              =   9.6857897088175E-01
(PID.TID 0000.0001) %MON dynstat_eta_min              =  -1.6150386919412E+00
(PID.TID 0000.0001) %MON dynstat_eta_mean             =  -1.4431730272811E-03
(PID.TID 0000.0001) %MON dynstat_eta_sd               =   5.8645905059013E-01
(PID.TID 0000.0001) %MON dynstat_eta_del2             =   1.8279187441998E-03
(PID.TID 0000.0001) %MON dynstat_uvel_max             =   1.7555487131376E-01
(PID.TID 0000.0001) %MON dynstat_uvel_min             =  -1.3593241587234E-01
(PID.TID 0000.0001) %MON dynstat_uvel_mean            =   1.1570438216276E-03
(PID.TID 0000.0001) %MON dynstat_uvel_sd              =   1.4381352409019E-02
(PID.TID 0000.0001) %MON dynstat_uvel_del2            =   9.1820310500531E-05
(PID.TID 0000.0001) %MON dynstat_vvel_max             =   1.4523370165536E-01
(PID.TID 0000.0001) %MON dynstat_vvel_min             =  -1.1328252212994E-01
(PID.TID 0000.0001) %MON dynstat_vvel_mean            =   3.5803577507229E-05
(PID.TID 0000.0001) %MON dynstat_vvel_sd              =   9.6221798698019E-03
(PID.TID 0000.0001) %MON dynstat_vvel_del2            =   8.8025848955396E-05
(PID.TID 0000.0001) %MON dynstat_wvel_max             =   1.2273156157809E-04
(PID.TID 0000.0001) %MON dynstat_wvel_min             =  -1.6901360764586E-04
(PID.TID 0000.0001) %MON dynstat_wvel_mean            =   2.8086262070569E-23
(PID.TID 0000.0001) %MON dynstat_wvel_sd              =   1.7943934973703E-05
(PID.TID 0000.0001) %MON dynstat_wvel_del2            =   2.0899174993082E-07
(PID.TID 0000.0001) %MON dynstat_theta_max            =   2.9695110999051E+01
(PID.TID 0000.0001) %MON dynstat_theta_min            =  -1.9890520508705E+00
(PID.TID 0000.0001) %MON dynstat_theta_mean           =   3.6189770613290E+00
(PID.TID 0000.0001) %MON dynstat_theta_sd             =   4.4143377676368E+00
(PID.TID 0000.0001) %MON dynstat_theta_del2           =   4.8232692582690E-03
(PID.TID 0000.0001) %MON dynstat_salt_max             =   3.7442449836396E+01
(PID.TID 0000.0001) %MON dynstat_salt_min             =   2.9770627292945E+01
(PID.TID 0000.0001) %MON dynstat_salt_mean            =   3.4717193428054E+01
(PID.TID 0000.0001) %MON dynstat_salt_sd              =   2.9619423011389E-01
(PID.TID 0000.0001) %MON dynstat_salt_del2            =   1.0079558377802E-03
(PID.TID 0000.0001) %MON dynstat_sst_max              =   2.9695110999051E+01
(PID.TID 0000.0001) %MON dynstat_sst_min              =  -1.9890520508705E+00
(PID.TID 0000.0001) %MON dynstat_sst_mean             =   1.8629453371323E+01
(PID.TID 0000.0001) %MON dynstat_sst_sd               =   9.0797649958148E+00
(PID.TID 0000.0001) %MON dynstat_sst_del2             =   2.5691264187039E-02
(PID.TID 0000.0001) %MON dynstat_sss_max              =   3.7429522164369E+01
(PID.TID 0000.0001) %MON dynstat_sss_min              =   2.9770627292945E+01
(PID.TID 0000.0001) %MON dynstat_sss_mean             =   3.4852033952495E+01
(PID.TID 0000.0001) %MON dynstat_sss_sd               =   9.7142868794573E-01
(PID.TID 0000.0001) %MON dynstat_sss_del2             =   7.9315961105235E-03
(PID.TID 0000.0001) %MON forcing_qnet_max             =   4.2833727010091E+02
(PID.TID 0000.0001) %MON forcing_qnet_min             =  -1.7906146952311E+02
(PID.TID 0000.0001) %MON forcing_qnet_mean            =  -1.6172889331431E+01
(PID.TID 0000.0001) %MON forcing_qnet_sd              =   1.0557973223763E+02
(PID.TID 0000.0001) %MON forcing_qnet_del2            =   1.0083982826333E+00
(PID.TID 0000.0001) %MON forcing_qsw_max              =   0.0000000000000E+00
(PID.TID 0000.0001) %MON forcing_qsw_min              =   0.0000000000000E+00
(PID.TID 0000.0001) %MON forcing_qsw_mean             =   0.0000000000000E+00
(PID.TID 0000.0001) %MON forcing_qsw_sd               =   0.0000000000000E+00
(PID.TID 0000.0001) %MON forcing_qsw_del2             =   0.0000000000000E+00
(PID.TID 0000.0001) %MON forcing_empmr_max            =   8.0917880040943E-05
(PID.TID 0000.0001) %MON forcing_empmr_min            =  -7.6474533254138E-05
(PID.TID 0000.0001) %MON forcing_empmr_mean           =   9.2566665115046E-07
(PID.TID 0000.0001) %MON forcing_empmr_sd             =   2.8597523558275E-05
(PID.TID 0000.0001) %MON forcing_empmr_del2           =   3.6295745305298E-07
(PID.TID 0000.0001) %MON forcing_fu_max               =   2.7799457907677E-01
(PID.TID 0000.0001) %MON forcing_fu_min               =  -1.7257433235645E-01
(PID.TID 0000.0001) %MON forcing_fu_mean              =   1.6218936014442E-02
(PID.TID 0000.0001) %MON forcing_fu_sd                =   9.0419897423294E-02
(PID.TID 0000.0001) %MON forcing_fu_del2              =   6.9713620396268E-04
(PID.TID 0000.0001) %MON forcing_fv_max               =   2.2028753260771E-01
(PID.TID 0000.0001) %MON forcing_fv_min               =  -1.7417170107365E-01
(PID.TID 0000.0001) %MON forcing_fv_mean              =  -5.5199413663658E-03
(PID.TID 0000.0001) %MON forcing_fv_sd                =   4.7048267643353E-02
(PID.TID 0000.0001) %MON forcing_fv_del2              =   4.7981650683968E-04
(PID.TID 0000.0001) %MON trAdv_CFL_u_max              =   4.7325930816394E-02
(PID.TID 0000.0001) %MON trAdv_CFL_v_max              =   2.7275243335566E-02
(PID.TID 0000.0001) %MON trAdv_CFL_w_max              =   5.9196399486717E-02
(PID.TID 0000.0001) %MON advcfl_uvel_max              =   4.5896162854556E-02
(PID.TID 0000.0001) %MON advcfl_vvel_max              =   2.8216578963101E-02
(PID.TID 0000.0001) %MON advcfl_wvel_max              =   5.1004963233073E-02
(PID.TID 0000.0001) %MON advcfl_W_hf_max              =   5.6317980236518E-02
(PID.TID 0000.0001) %MON pe_b_mean                    =   4.4010795244792E-04
(PID.TID 0000.0001) %MON ke_max                       =   1.6624168271881E-02
(PID.TID 0000.0001) %MON ke_mean                      =   1.3613781308045E-04
(PID.TID 0000.0001) %MON ke_vol                       =   1.3226782436723E+18
(PID.TID 0000.0001) %MON vort_r_min                   =  -2.8018663898692E-07
(PID.TID 0000.0001) %MON vort_r_max                   =   3.9506135075294E-07
(PID.TID 0000.0001) %MON vort_a_mean                  =  -2.5274806975329E-05
(PID.TID 0000.0001) %MON vort_a_sd                    =   7.3604493062077E-05
(PID.TID 0000.0001) %MON vort_p_mean                  =  -3.1845655267608E-05
(PID.TID 0000.0001) %MON vort_p_sd                    =   1.3162441590981E-04
(PID.TID 0000.0001) %MON surfExpan_theta_mean         =   2.1765070920390E-07
(PID.TID 0000.0001) %MON surfExpan_salt_mean          =   5.5075391306451E-08
(PID.TID 0000.0001) // =======================================================
(PID.TID 0000.0001) // End MONITOR dynamic field statistics
(PID.TID 0000.0001) // =======================================================
(PID.TID 0000.0001) // =======================================================
(PID.TID 0000.0001) // Field Current uVel   at iteration         20
(PID.TID 0000.0001) // CMIN =         -1.359324158723421E-01
(PID.TID 0000.0001) // CMAX =          1.755548713137605E-01
(PID.TID 0000.0001) // CINT =          1.153656619207788E-02
(PID.TID 0000.0001) // SYMBOLS (CMIN->CMAX): -abcdefghijklmnopqrstuvwxyz+
(PID.TID 0000.0001) //                  0.0: .
(PID.TID 0000.0001) // RANGE I (Lo:Hi:Step):(     1:    90:     1)
(PID.TID 0000.0001) // RANGE J (Lo:Hi:Step):(    40:     1:    -1)
(PID.TID 0000.0001) // RANGE K (Lo:Hi:Step):(   1:   1:   1)
(PID.TID 0000.0001) // =======================================================
(PID.TID 0000.0001) K =   1
(PID.TID 0000.0001)                I=10      I=20      I=30      I=40      I=50      I=60      I=70      I=80      I=90
(PID.TID 0000.0001) |--J--|123456789|123456789|123456789|123456789|123456789|123456789|123456789|123456789|123456789|
(PID.TID 0000.0001)     40 kllkl..llllllllllll...................................................................kkkk
(PID.TID 0000.0001)     39 lmmmllllllllml....l......................................................lll.........kjjjk
(PID.TID 0000.0001)     38 mmnmlkkklllll............................................................lkkl.......jjkkll
(PID.TID 0000.0001)     37 mmm...................................................................l....kk....llkk..lmm
(PID.TID 0000.0001)     36 ml..........................................lll.....................lllllkkjjj..kkllmmmmmm
(PID.TID 0000.0001)     35 ll..................................kkl...lkkkll....llmm............kk.....kjkkkkmnnnmmnml
(PID.TID 0000.0001)     34 ....................................jjk..lkjjkkl..kjkmopo...................lklnopqqqpon..
(PID.TID 0000.0001)     33 .....................................jjjjjjjklmmmmmnopqqqom..................moprssssqnll.
(PID.TID 0000.0001)     32 .....................................jijkkllmoonoppqrssssqo.................oqrttssrpnlkl.
(PID.TID 0000.0001)     31 .....................................mnoooopppqpqssstuuttqo...............mtwwxxusrqommm..
(PID.TID 0000.0001)     30 ....................................rtuuttutssstuuuuuuutspn.............mruxwvvutsqponmm..
(PID.TID 0000.0001)     29 ..................................osvvvwwwxwwvuuuuuttttrponm............rtsrqppoooonmllm..
(PID.TID 0000.0001)     28 ................................loprrrrstttttttsrrrsssqpnmmml..........ooonnmmmllkkkkjkl..
(PID.TID 0000.0001)     27 ...............l...............kkkkkllmnopqpppppooopqpnnlkkkkl....kjl..noonmnmmkjijjii....
(PID.TID 0000.0001)     26 ...............lk............hdfffggghhkllmmlllllkkllkkkjiiijkml..kjijklmmlmlkkjihihgg....
(PID.TID 0000.0001)     25 ...............jih....ll....hccdcabceeefffggghhggffggfffeefghjkll....ihhkjiihgggggffee....
(PID.TID 0000.0001)     24 .............ighhhi..ihl....fg..fa-bccbaabdddeffffeeedcddbdefghijjij..hgfifffffeefffgh....
(PID.TID 0000.0001)     23 .............hefffh..igj....eh...fefeddcddeffghhijhijihiiggghihiiiggh.....ghgggeeghikl....
(PID.TID 0000.0001)     22 m............gffeegjjjjj....i..nlljjihihhghiijijkkkkllklkijjklllkkiijm.......igfgijjkmkllm
(PID.TID 0000.0001)     21 kik.........hhihhhijkklkk......mmmljkkkjiijjkkjijkkkkmjklkjijmllkkjjkm.........hhjkjjkklmm
(PID.TID 0000.0001)     20 jik........jkklmkjjkmmmkk.........lklmlkjkkklkkjllkjlljklkjhkmlkjjijkm..........iijjjjkklm
(PID.TID 0000.0001)     19 jhi........mmmnqliijklkkjhl....mm......llllmmlllmmkklkkllkiikkjiiihhjl............ijiikklm
(PID.TID 0000.0001)     18 ihj........nkjjmhffghgiiihjklnnmm....lnllmmnnmmllmkkllllkihhihhhihggill...........jjijljij
(PID.TID 0000.0001)     17 hhj..........gffdeccfghhhijklmm......klkkkklkkjkjkkkkklkjhhhhgggggegilk..........lkiiikhfg
(PID.TID 0000.0001)     16 fgh.......l..ihhhfdegkjihiklml........kkkllkjjkkkkkklllkihhihhhihgghijjl.........lkjhhhgff
(PID.TID 0000.0001)     15 fffh.....lj..mmnnlmkjnmjijkkm..........llmmllmnmmmmnnnmlkjjkiijkkihhihghj.......mmmljiihhg
(PID.TID 0000.0001)     14 hfee.....jhjmopqqoqpoolkkjjij..........nlmnnoppopppqrqpoponnlkmmljjjjihgj......mnonnmmkiii
(PID.TID 0000.0001)     13 kigf.....nlmoonnnnnqpmkmmljhg..........ooooppqqppqqqrrrrssrrqpoommmmlkkik.....lnnoooonnnll
(PID.TID 0000.0001)     12 onljjlhnpsqponllmmmnnnnoomkjjkklkk.....pqqpoooooopppoppqrrrrtsqoooopnmlj......oppqpqqqrqqp
(PID.TID 0000.0001)     11 rqpooqptwyxvttqpqrrqpqrrqpoooonnnll...nppon..oonnmnnnnnnnoppqqqpoopqpnlk.....ppsstsstsssrr
(PID.TID 0000.0001)     10 ssrrsvvwwxzxx+zxxxxwuttttssrqqpoonll..pppom..pommlllmnnmllmooopqpooppomm...mnrqqsuuuuutuut
(PID.TID 0000.0001)      9 utsttvvvutuutvxxvvwvvutstttsstsrqqpnnopooo..noonnmmmmnoponmmnnopooonnnnm..mnorrrrstuuuttvv
(PID.TID 0000.0001)      8 tsstttttrqrsrqqqqrrrsutrrrssstttttututsrqpoonopppqqqqqqqrrqooppponnnnnnm..mmmnpppqrsssqprs
(PID.TID 0000.0001)      7 ppppppppqpoopponnooooqqqqpppqqrsssrruvvttrqonoppoprstuusqrrooppqpoppooopnmnonnnoooopqponno
(PID.TID 0000.0001)      6 mmmmmmmnooonnnnnnmmmmmnnnooooppppqpnoqrrssrpoopooooopqsrrrqoopqqqppqqppqpooppooonnmnnonmmm
(PID.TID 0000.0001)      5 lllmmmmmmmnnmmmmmmmlllllmmnnnnnnnnnmmmnopqrrqponnnnmmmnooppoooppppppppppoonnponmmmmmmmmmml
(PID.TID 0000.0001)      4 llllllmmmlmmlmmmmllllllmllmmmmmmmllmmmllmmnnonnmllllllmmmnnnnnooonnnnnnmmm...lllllllllllll
(PID.TID 0000.0001)      3 llllllllll.............................llllllmmllkkklllllllmmmmmmmmmmllll...llllllllllllll
(PID.TID 0000.0001)      2 ...........................................lllllllllllllllllllll...lll......lllllllllll...
(PID.TID 0000.0001)      1 ..........................................................................................
(PID.TID 0000.0001) // =======================================================
(PID.TID 0000.0001) // END OF FIELD                                          =
(PID.TID 0000.0001) // =======================================================
(PID.TID 0000.0001) 
(PID.TID 0000.0001) // =======================================================
(PID.TID 0000.0001) // Field Current vVel   at iteration         20
(PID.TID 0000.0001) // CMIN =         -1.132825221299435E-01
(PID.TID 0000.0001) // CMAX =          1.452337016553643E-01
(PID.TID 0000.0001) // CINT =          9.574674955011402E-03
(PID.TID 0000.0001) // SYMBOLS (CMIN->CMAX): -abcdefghijklmnopqrstuvwxyz+
(PID.TID 0000.0001) //                  0.0: .
(PID.TID 0000.0001) // RANGE I (Lo:Hi:Step):(     1:    90:     1)
(PID.TID 0000.0001) // RANGE J (Lo:Hi:Step):(    40:     1:    -1)
(PID.TID 0000.0001) // RANGE K (Lo:Hi:Step):(   1:   1:   1)
(PID.TID 0000.0001) // =======================================================
(PID.TID 0000.0001) K =   1
(PID.TID 0000.0001)                I=10      I=20      I=30      I=40      I=50      I=60      I=70      I=80      I=90
(PID.TID 0000.0001) |--J--|123456789|123456789|123456789|123456789|123456789|123456789|123456789|123456789|123456789|
(PID.TID 0000.0001)     40 klnoo.lkllllll...ml..................................................................kkllk
(PID.TID 0000.0001)     39 kklmmllkkkkll...........................................................lkll........jklllk
(PID.TID 0000.0001)     38 lll.......................................................................lll......lk.mmll
(PID.TID 0000.0001)     37 kl...................................................................lk...kml...llmll.lkjj
(PID.TID 0000.0001)     36 kl.........................................opom....................lll....jkll.jijkjjhgijj
(PID.TID 0000.0001)     35 ...................................llmm..mnnoonm...klmnn...................igghhhhhhgghk..
(PID.TID 0000.0001)     34 ....................................kkl.mnmmnnml.kiiijlmm...................geefddeeedgi..
(PID.TID 0000.0001)     33 ....................................kiijkkjjkkjihggffghiikk.................hfffcabddddgj.
(PID.TID 0000.0001)     32 ....................................kifefghgghgfffeeefggghj................okgffecdeeefh..
(PID.TID 0000.0001)     31 ....................................ifddcddeefeddedefghihgi..............jigdccdedefffhj..
(PID.TID 0000.0001)     30 ...................................jfdbabba-acccdddfghiihgh............kgghhgfffghhiiijk..
(PID.TID 0000.0001)     29 .................................kkjgebacdcbceeefffhjjkkjigh...........kjjiihghiiiijkkll..
(PID.TID 0000.0001)     28 ...............................mlkjkjigfhhhghhhhjjjklmmllkihi.........lklkkllklmnmmmml....
(PID.TID 0000.0001)     27 ..............lk..............mnnmmmmlllmmlkkjjklmlmmnnnmlkjij...llor.mmmnnmmmnnoonnnl....
(PID.TID 0000.0001)     26 ..............lll...........jnqpmlmmkkmnnmmllkkkklkklmmlmljklllm....qpomlnmnnmmnpommlj....
(PID.TID 0000.0001)     25 ..............mloo...kkk...kln.lgghhhijkkkjiihhijiihhhhhghiklllml....lkikijlkkkmnmkjig....
(PID.TID 0000.0001)     24 ............mlmoqrp.lkkj...iln..accceeghhghggghjkkjihgffgijjjiigggjl.....fiiiikmnkjigk....
(PID.TID 0000.0001)     23 ............kllmmmj.jigg...jm...fghiijjkkkklmmopqqqpqqrrssrqonljklmmm.......kmpqommnpr....
(PID.TID 0000.0001)     22 n...........ikkkjgedcegj......mmlmnnommllklmllmooppqqqrsqnnoommmnnnlji........mmmmnoqronll
(PID.TID 0000.0001)     21 jih........iikjgfgghhilmm......k.lllmmmmmklllnnnmmnnnoooonmmljjkkkllkj.........ijmnnmmmlkj
(PID.TID 0000.0001)     20 iik.......kjiiieegjlmnonl......k......onllkkkllklmnopppppppooooonnnopo...........opoonmmlj
(PID.TID 0000.0001)     19 kjj.......pprrsqomnpqsrpmkl...kkk.....nnmlkjjiiikkkmoonnoppopqqpnmlnon...........nmmlkjlnm
(PID.TID 0000.0001)     18 nlk.......o.wwxywrooppqpnmllklm.....klnmmmmmlkkklkjjlnmmmmnopqqqpnlmppl..........nnnnnmmop
(PID.TID 0000.0001)     17 qon.......l.srrrqnmmljklkkklll.......llklllmmmkklkjijlllllmnooooonllopn.........ijlmoqrppq
(PID.TID 0000.0001)     16 qqp......om.kmkjkfbghffijkkkk.........kjiiiiijjiihhhikjiikmlllmollllnpqo........ijkknpqpop
(PID.TID 0000.0001)     15 oqro....lpo.gihhidelkeefhllki.........kjhggefghgfffgghhggijiimnmlkllmprrn......jhjkjkmnooo
(PID.TID 0000.0001)     14 oppo....ijljiiihheimlhgimmmll.........ijjihgghhgggggfghghiihjonllklmmnqqm.....kjijljillnpo
(PID.TID 0000.0001)     13 ppon....fimmjjkllkklkjjmonlkk.........klklljijiiijihghjiiijjmollnmmnnmpo.....llkjlmllmmopp
(PID.TID 0000.0001)     12 rqomjghlklonlknooonnnnoqqponmllllm....mmmnm.kllmnmkkjkklmllmnmkmqqonnnom.....mnllnonnnnpqr
(PID.TID 0000.0001)     11 ttrpopqpppqsqpsuvvvutsttstsqpopooon..mnooom.klmoonmmmmmnpppqqnmostsqpoom....jnqqqqqqqrqqrs
(PID.TID 0000.0001)     10 uutttttrqooqqswy+zxvvvvvvvttsqqpompp.moppo..kkmnnoooponoqrstrppruvtrqpon..nklpssssttstutst
(PID.TID 0000.0001)      9 uvvxxwvtsqoqstuvuvtstuvwvuuutrssrqtuqopqpo.onnnoqqqqqqqrtuvusrqrtutrrqnn.oppprtvwwwutvwutt
(PID.TID 0000.0001)      8 stuuutssrqqrrrrqqstssstuttssrrrsrsvwtsrrpopqppqsuvuvvtsuvuuusrqrssssrqom.qrrrssttttsstusqq
(PID.TID 0000.0001)      7 pppooooooonnoooooprqonopppooopqqrrssppponoprrqrtuututrqrqpqqppopqrrrrrqqrrrstsqppppooqrqpo
(PID.TID 0000.0001)      6 mlkkkllmmmmnnmmmnoonmmnnmllmooooonoomnnmlmoqqqrtsrrrpmlllmnpponoqqrqqrssttsrponnnnnmnoponm
(PID.TID 0000.0001)      5 kkjjjkkllkkkkkkklmllkkkjjijklllllllmmmllllnoooqqponmljjjklnoonmnoopppqqqoo..klmmllllllllkk
(PID.TID 0000.0001)      4 jiiiiiijjj............................kkkkllkllmlkkkjjjkllmmmmmmmmmmmmmlk...mllkkkkkkkjjjj
(PID.TID 0000.0001)      3 ..........................................lkkkkkkkjjiijklllllkkk..kkkk.....lllkkkkkkkkk...
(PID.TID 0000.0001)      2 ..........................................................................................
(PID.TID 0000.0001)      1 ..........................................................................................
(PID.TID 0000.0001) // =======================================================
(PID.TID 0000.0001) // END OF FIELD                                          =
(PID.TID 0000.0001) // =======================================================
(PID.TID 0000.0001) 
(PID.TID 0000.0001) // =======================================================
(PID.TID 0000.0001) // Field Current theta  at iteration         20
(PID.TID 0000.0001) // CMIN =         -1.989052050870472E+00
(PID.TID 0000.0001) // CMAX =          2.969511099905050E+01
(PID.TID 0000.0001) // CINT =          1.173487520367444E+00
(PID.TID 0000.0001) // SYMBOLS (CMIN->CMAX): -abcdefghijklmnopqrstuvwxyz+
(PID.TID 0000.0001) //                  0.0: .
(PID.TID 0000.0001) // RANGE I (Lo:Hi:Step):(     1:    90:     1)
(PID.TID 0000.0001) // RANGE J (Lo:Hi:Step):(    40:     1:    -1)
(PID.TID 0000.0001) // RANGE K (Lo:Hi:Step):(   1:   1:   1)
(PID.TID 0000.0001) // =======================================================
(PID.TID 0000.0001) K =   1
(PID.TID 0000.0001)                I=10      I=20      I=30      I=40      I=50      I=60      I=70      I=80      I=90
(PID.TID 0000.0001) |--J--|123456789|123456789|123456789|123456789|123456789|123456789|123456789|123456789|123456789|
(PID.TID 0000.0001)     40 aabcdbaaa----abcdddbbbbbbbbbbbbbbbbbbbbbbbbbbbbbbbbbbbbbbbbbbbbbbbbbbbbbbbbbbbbbbbbbbabaaa
(PID.TID 0000.0001)     39 bccddccbbaa---bbbddbbbbbbbbbbbbbbbbbbbbbbbbbbbbbbbbbbbbbbbbbbbbbbbbbbbbb----bbbbbbbbbbaaab
(PID.TID 0000.0001)     38 effeeeddddcbbbbbbbbbbbbbbbbbbbbbbbbbbbbbbbbbbbbbbbbbbbbbbbbbbbbbbbbbbbbb-----bbbbbbcaaabdd
(PID.TID 0000.0001)     37 gghbbbbbbbbbbbbbbbbbbbbbbbbbbbbbbbbbbbbbbbbbbbbbbbbbbbbbbbbbbbbbbbbbbbcbbbbabbbbedcdfbdeef
(PID.TID 0000.0001)     36 hgbbbbbbbbbbbbbbbbbbbbbbbbbbbbbbbbbbbbbbbbbcbbabbbbbbbbbbbbbbbbbbbbccccbbbbccdbedfgghhhhhh
(PID.TID 0000.0001)     35 ggbbbbbbbbbbbbbbbbbbbbbbbbbbbbbbbbba-aabbcccddccbbbffffgbbbbbbbbbbbbbbbbbbcceeeeefghijjiih
(PID.TID 0000.0001)     34 bbbbbbbbbbbbbbbbbbbbbbbbbbbbbbbbbbba--abcdddddddbeeeffgghbbbbbbbbbbbbbbbbbbcbceffghijjjjbb
(PID.TID 0000.0001)     33 bbbbbbbbbbbbbbbbbbbbbbbbbbbbbbbbbbbb-abccddeeeeefffffgghhhibbbbbbbbbbbbbbbbbbbehjjkkllkkkb
(PID.TID 0000.0001)     32 bbbbbbbbbbbbbbbbbbbbbbbbbbbbbbbbbbbbabccdeeffffgghhhhhiiiijbbbbbbbbbbbbbbbbcccekmmmmmlllkb
(PID.TID 0000.0001)     31 bbbbbbbbbbbbbbbbbbbbbbbbbbbbbbbbbbbbefghhhiiiijjjjjjkkkllkkbbbbbbbbbbbbbbhilkilnoonnnmmmbb
(PID.TID 0000.0001)     30 bbbbbbbbbbbbbbbbbbbbbbbbbbbbbbbbbbbmllmmmmmmmmmmlmmmmnnnnmlbbbbbbbbbbbbmnpqqqqqqqqppoooobb
(PID.TID 0000.0001)     29 bbbbbbbbbbbbbbbbbbbbbbbbbbbbbbbbbpppppppppooooooooooppppponmbbbbbbbbbbbrrrrrrrrrqqqqqpppbb
(PID.TID 0000.0001)     28 bbbbbbbbbbbbbbbbbbbbbbbbbbbbbbbpqrrrrrqrrrrrrrrrrrrrrrrrqppoobbbbbbbbbttssssssrrrrrrrqqqbb
(PID.TID 0000.0001)     27 bbbbbbbbbbbbbbvvbbbbbbbbbbbbbbsstsstttttttttttttttttttssrrqqqqbbbsstubuuuuuuuuttttsssrbbbb
(PID.TID 0000.0001)     26 bbbbbbbbbbbbbbvuubbbbbbbbbbbutuuuuuvvvvvvvvvvvvvvvvuuutttssrsstvbuuvwwvwvvvvvvvvuttssrbbbb
(PID.TID 0000.0001)     25 bbbbbbbbbbbbbbvvwxbbbxwxbbbuvvwwwwxxxxxxxxwwwwwwwwvvvvuuuuttuuvwxbbbxxxwwwwwwwvvvuutsqbbbb
(PID.TID 0000.0001)     24 bbbbbbbbbbbbwwwwxyybxxxybbbwwxbyxxyyyyxxxxxxxxxwwwwwvwwvvvvvwwwxxwvwbxxwwwwwwwwvvvvutrbbbb
(PID.TID 0000.0001)     23 bbbbbbbbbbbbxwxxyyzbxxyybbbxxxbbyyyyyyyyyyyxxxxxxxxxxxxxxwwxxxxwwwwwwbbbbwwxxxxwwwwvvvbbbb
(PID.TID 0000.0001)     22 wbbbbbbbbbbbxxyyyyyyyyyzbbbxxbyyzzzzzzzzzzzzzyyyyyyyyyxxwwxxxxxwwwwwxwbbbbbbyyxxxxxxxxxxxx
(PID.TID 0000.0001)     21 xxxbbbbbbbbxxxyyzzzzzzz++bbbbbzyzzzzzz++++zzzzyyyyyyyyxxwwwwwwwvvvvvvvbbbbbbbbyyyyyyyyyyxx
(PID.TID 0000.0001)     20 xwwbbbbbbbyyyyyyyzzzzzz++bbbbbbzbzzzz++++++zzzzzzyyyyyxxxwwxwwvvvvvvvubbbbbbbbbyyyyyyyyxwx
(PID.TID 0000.0001)     19 wvvbbbbbbbzzzyyxxyyzzzzzzzzbbbzzzbbbbb+++++++++++zzzyyyyxxxxxwwwwwwwvubbbbbbbbbbbyyyxxxwwx
(PID.TID 0000.0001)     18 vutbbbbbbbzzzyyyxyyzzyzzzzzzzz+zzbbb++++++++++++++++zzzzyyyxxwwwvvwvvutbbbbbbbbbbyyxxwvvww
(PID.TID 0000.0001)     17 uutbbbbbbbzbzyyyyyyyzyyyyyyyzzzbbbbbzzzzzzzzzzzzzzzzzzzyyyyxxwwvvuvuuuubbbbbbbbbyyyyxwuuvu
(PID.TID 0000.0001)     16 utsbbbbbbzybzyyyyxxxxxxxwxxxxzbbbbbbbyyyyyyyzyyzzyyyyyyyyyyyyxwwvvvuutttbbbbbbbbyyyyxwvuvu
(PID.TID 0000.0001)     15 utsrbbbbxyybxxxxxwwwwwwwvvwwxbbbbbbbbbxxxxxxxxxxxxxxyyxxxyyyxwwwvvuuutsssbbbbbbxxxxxxxwwvu
(PID.TID 0000.0001)     14 ttsqbbbbxyxxxxwwwxwvvuuuuuuuubbbbbbbbbwwwwwwwwwwwwwwwwwwxxxxxwwwvvuutsssrbbbbbvwxwwwxwwwvu
(PID.TID 0000.0001)     13 tttsbbbbwxwvvvuuuvvuuuutsttttbbbbbbbbbvvvvvvvvvuuuuuuvvvvvwwwwvvvuuutssrqbbbbvwwwvvvwwvvuu
(PID.TID 0000.0001)     12 ssssststuuttttssssssstsrrrsssrqrrqbbbbuvuttttssssssssssssstutttttsssssrqbbbbbuvvutttuttttt
(PID.TID 0000.0001)     11 qpprssssrrrrrrrqqppopqqppqppppqqpqqbbtttsssbrrqqqrrqqqqqqqrrqpqqrqrrrrqpbbbbprtsrrrrrqqqqq
(PID.TID 0000.0001)     10 mllnoopponoonoooonnmnnmmmmmlmnnnnooobqrqqqqbpppppppoppppooponoooooooopoobbnnoppoonnoooonmm
(PID.TID 0000.0001)      9 jiiijjjjiijjijjjiijjjjiiiijiijkklmnmmnoooobnnnnnoonnnnnnnnmlllmmmmllmmmmbmmmnnmllkkjkkjjii
(PID.TID 0000.0001)      8 ffffffffffgghhggfffghhgfggggghijjjkkjklllllkkllllklllllllkkjjjkkkkjjjkljbkkkkjjihhggggfeef
(PID.TID 0000.0001)      7 ddddddeeeeeeffeeeeeeeedeeffffggggggghhijjjjjjjkkjiihhhhhiiiihhiiiiiiiiiiiiiihhgfeeeeeedddd
(PID.TID 0000.0001)      6 bbccdddddddddeedddddddeeedddddeeeeeefffgghhhhhhihfeeeeeefffffffgghgghhhhhhggffeddccccccccb
(PID.TID 0000.0001)      5 cccddddccdddddddddddddddcccdddeeeeeddddeeeffeeeeedccccccddddddeeeeffffeeeeeeddccccbbbbbbbc
(PID.TID 0000.0001)      4 ccccccbbbbbbbbccccccbbbbbbabcbccbbbbcccccccccccccccbbbbbbbbcccccccccccccccbbaaabbbbbbbbbcc
(PID.TID 0000.0001)      3 bbbbbaaaaabbbbbbbbbbbbbbbbbbbbbbbbbbbbbbbabbbbbbbbbbbbbbaaaaabbbbbaabbbbbbbaaaaaabbbbbbbbb
(PID.TID 0000.0001)      2 bbbbbbbbbbbbbbbbbbbbbbbbbbbbbbbbbbbbbbbbbbbbbbbbbbaaaaaaaaaaaaaabbaaaabbbbbaaaaaabbbbbbbbb
(PID.TID 0000.0001)      1 bbbbbbbbbbbbbbbbbbbbbbbbbbbbbbbbbbbbbbbbbbbbbbbbbbbbbbbbbbbbbbbbbbbbbbbbbbbbbbbbbbbbbbbbbb
(PID.TID 0000.0001) // =======================================================
(PID.TID 0000.0001) // END OF FIELD                                          =
(PID.TID 0000.0001) // =======================================================
(PID.TID 0000.0001) 
(PID.TID 0000.0001) // =======================================================
(PID.TID 0000.0001) // Field Current etaN   at iteration         20
(PID.TID 0000.0001) // CMIN =         -1.615038691941218E+00
(PID.TID 0000.0001) // CMAX =          9.685789708817495E-01
(PID.TID 0000.0001) // CINT =          9.568954306751733E-02
(PID.TID 0000.0001) // SYMBOLS (CMIN->CMAX): -abcdefghijklmnopqrstuvwxyz+
(PID.TID 0000.0001) //                  0.0: .
(PID.TID 0000.0001) // RANGE I (Lo:Hi:Step):(    -1:    92:     1)
(PID.TID 0000.0001) // RANGE J (Lo:Hi:Step):(    42:    -1:    -1)
(PID.TID 0000.0001) // RANGE K (Lo:Hi:Step):(   1:   1:   1)
(PID.TID 0000.0001) // =======================================================
(PID.TID 0000.0001) K =   1
(PID.TID 0000.0001)                I=8       I=18      I=28      I=38      I=48      I=58      I=68      I=78      I=88
(PID.TID 0000.0001) |--J--|101234567|901234567|901234567|901234567|901234567|901234567|901234567|901234567|901234567|9012
(PID.TID 0000.0001)     42 ............................................bbcccccddddeeedddccccd..dddd.....-----aaaaaaa.....
(PID.TID 0000.0001)     41 ..............................................................................................
(PID.TID 0000.0001)     40 ggfffgg.hggggggffffff..................................................................gggggff
(PID.TID 0000.0001)     39 ggfffgghhgggffff...ff.....................................................eeee........hgggggff
(PID.TID 0000.0001)     38 ggghhhhgggggggg...........................................................fffff......hhggggggh
(PID.TID 0000.0001)     37 hhhhi..................................................................ij...fff...hgggf.hhhhhh
(PID.TID 0000.0001)     36 hhii.........................................oppp....................jjjjjihgfff.gfffgghhhhhii
(PID.TID 0000.0001)     35 iiij.................................nnnn..ooooopo...qqqqq...........jkk....gfeeeeeefgghhhiiij
(PID.TID 0000.0001)     34 .....................................onnn.oooooooo.qpooppqr..................ggfeeeffghiik....
(PID.TID 0000.0001)     33 k.....................................ooooooooooppppppppqqqrr.................ggfghhhijjjkk...
(PID.TID 0000.0001)     32 k.....................................opooooppppqqqqqqqqqrrrr................fhhhijjjkkkkjk...
(PID.TID 0000.0001)     31 ......................................oppppppqqqrrrrrrrrssssr..............jjkkkkkkkkkkkkj....
(PID.TID 0000.0001)     30 .....................................rrrsrrrsrrssssssssstttts............kklmnnnnnmmmlllkk....
(PID.TID 0000.0001)     29 ...................................uvuvvvuuuuuuuuuuutttttuttss...........nnooooonnnnmmllll....
(PID.TID 0000.0001)     28 .................................wxxxxxxxwwwwwvvvvvuuuuuuuuttss.........pppooooonnnnmmmlll....
(PID.TID 0000.0001)     27 ................rr..............zyyyyyyyyxxxxxwwwvvvvvvuuuutttss...qppp.qqqpppponnnnmmml......
(PID.TID 0000.0001)     26 ................rrr...........yyyyyyyyyyyyyyyxxxwwwwvvvvvuuuttssss.qppqrrrqqqppoonnnnmml......
(PID.TID 0000.0001)     25 ................srst...vvv...yyyyzyyyyyyyyyyyxxxwwwvvvvvuuutttttttt...rrrrrqqppooonnnmml......
(PID.TID 0000.0001)     24 ..............sssstuv.vvvv...yyy.+yyyyxxxxxyxxxxwwwvvvvuuutttttttttttt.rrqrqpppoonnnnmml......
(PID.TID 0000.0001)     23 ..............srsstuv.vvvv...zzz..yxxxxxxxxxxxxxwwwvvvuuutttttttttttttt....ppppoooonnnmn......
(PID.TID 0000.0001)     22 ooo...........sstttuuuvvuu...zz.xwxxwwwwxxxxxxxwwwwwvvvuutttttttttttttuu......popooooonnooooo.
(PID.TID 0000.0001)     21 nooop........tssstuuuuuuuuu.....xwwwwwwwwwwxxxwwwwwwwvvvuuuttttttssstttt........pppooooooonooo
(PID.TID 0000.0001)     20 nnooo.......ttttttttuuuuuuv......x.wwwwxxxxxxxxwxwwxwwwvvvuuuutttssssttt.........pppoooooonnoo
(PID.TID 0000.0001)     19 nnnno.......tttttsstuuvuvvvvv...wwx.....xxxxxxxxxxwwwwwwwvvuuuutttttsttt...........pppooonnnnn
(PID.TID 0000.0001)     18 nnmmn.......utuuuttuuvvvvvvvwwwwwwx...yyyyyxxxxxxxxxxxxwwwvvvvuuuttttttss..........qppponnnnmm
(PID.TID 0000.0001)     17 nnmmm.......v.wvvvvvvwwvvvvvvvvww.....yyxxxxxxxxxxxxxxwwwvvvvvuuuttttstss.........qqqpponnnnmm
(PID.TID 0000.0001)     16 onnnm......wv.xwwwvwvvwwvvvvuvvv.......xxxxxwwxwwwxxwwwwwwwvvvvvuutttttssr........qqqqppooonnn
(PID.TID 0000.0001)     15 poonnm....wwv.xwwwvvvuvvvuuuuuu.........xwwwwwwwwwwwwwwwwwwwwwvvvuuttttssrr......qqqqqqqqppoon
(PID.TID 0000.0001)     14 ppoonn....wwvvwwvvvvuuuttttttss.........wwvvvvvvvvvvvvvvvvvwwvvvvuuuutttsrr.....rqqqqqqqqqppoo
(PID.TID 0000.0001)     13 qppoon....vwvvvuuutuuttttttsssr.........vvvuuuuuuttttttuuuuvvvvvuuuuutttssr....qqqqqqqqqqqqppo
(PID.TID 0000.0001)     12 qpppoooortuvuuuuuttttsstttsrrrrrrrqq....uuttttssssssssssstttttuuuuuttttssr.....qqqqqppqqqqqppp
(PID.TID 0000.0001)     11 pooooooqqrrttttuuttsssrsssrrrrqrrqrrr..ssssss.rsssrrrrsssssssssstttsssssrr....npoooooooooppooo
(PID.TID 0000.0001)     10 nmmmmmmnnnnoppprrrrqqqqqppqpppppppqqqq.rrrrss.qqrrrrrrrrsssrrrrrstssrqrrrr..ijmnnmmmmmmmmmnmmm
(PID.TID 0000.0001)      9 jkkkkkkjjjjjllllmmmllmnnnmmmnnnnoppqrqppqqqr.nopqrrrrrrqrsssrqqqrrrqqpqqqq.jjjklllkjjjjjjijkkk
(PID.TID 0000.0001)      8 ffgggggffggghiiiiijiiijjjjjjjjkllmmnooooppppponopppppqqpqqpqpooppqqppppppr.kjjiiiihggfggffffgg
(PID.TID 0000.0001)      7 cdddcccdddeeefffggggffeffggggghhiiijiiijklmnmmmmnmmlllllmmmmmmmmnnnnnnnnnnmkjjihgfeedddddccddd
(PID.TID 0000.0001)      6 bbaaabbccccdddddeeeeddddeeeeeffffffffeefghijkkkjjjihhggghhijkkkkkllllkkkkkjigffeddcccccccbbbaa
(PID.TID 0000.0001)      5 aaaaaabbbcbbbccccdddccccccccdddddddddddddeefgggggfeeedddefghhhhhhhhhhhhhggfedcbbbaaaaaaaaaaaaa
(PID.TID 0000.0001)      4 aaaaaaaabbbbbccccccccccccccccccccccccccccccdddddddcccccddeefffeefffffeeeedde..-----aaaa---aaaa
(PID.TID 0000.0001)      3 aaaaabbbbbbb............................cccccccccccccccddddddddddddddddddee..------aaaaaaaaaaa
(PID.TID 0000.0001)      2 ............................................bbcccccddddeeedddccccd..dddd.....-----aaaaaaa.....
(PID.TID 0000.0001)      1 ..............................................................................................
(PID.TID 0000.0001)      0 ggfffgg.hggggggffffff..................................................................gggggff
(PID.TID 0000.0001)     -1 ggfffgghhgggffff...ff.....................................................eeee........hgggggff
(PID.TID 0000.0001) // =======================================================
(PID.TID 0000.0001) // END OF FIELD                                          =
(PID.TID 0000.0001) // =======================================================
(PID.TID 0000.0001) 
(PID.TID 0000.0001)  MDS_WRITE_FIELD: it,rec,kS,kL,kH=      20     1  15   1  15 file=U.0000000020
(PID.TID 0000.0001)  MDS_WRITE_FIELD: it,rec,kS,kL,kH=      20     1  15   1  15 file=V.0000000020
(PID.TID 0000.0001)  MDS_WRITE_FIELD: it,rec,kS,kL,kH=      20     1  15   1  15 file=T.0000000020
(PID.TID 0000.0001)  MDS_WRITE_FIELD: it,rec,kS,kL,kH=      20     1  15   1  15 file=S.0000000020
(PID.TID 0000.0001)  MDS_WRITE_FIELD: it,rec,kS,kL,kH=      20     1   1   1   1 file=Eta.0000000020
(PID.TID 0000.0001)  MDS_WRITE_FIELD: it,rec,kS,kL,kH=      20     1  15   1  15 file=W.0000000020
(PID.TID 0000.0001)  MDS_WRITE_FIELD: it,rec,kS,kL,kH=      20     1  15   1  15 file=PH.0000000020
(PID.TID 0000.0001)  MDS_WRITE_FIELD: it,rec,kS,kL,kH=      20     1   1   1   1 file=PHL.0000000020
(PID.TID 0000.0001)  MDS_WRITE_FIELD: it,rec,kS,kL,kH=      20     1   1   1   1 file=ETAtave.0000000020
(PID.TID 0000.0001)  MDS_WRITE_FIELD: it,rec,kS,kL,kH=      20     1  15   1  15 file=Ttave.0000000020
(PID.TID 0000.0001)  MDS_WRITE_FIELD: it,rec,kS,kL,kH=      20     1  15   1  15 file=Stave.0000000020
(PID.TID 0000.0001)  MDS_WRITE_FIELD: it,rec,kS,kL,kH=      20     1  15   1  15 file=uVeltave.0000000020
(PID.TID 0000.0001)  MDS_WRITE_FIELD: it,rec,kS,kL,kH=      20     1  15   1  15 file=vVeltave.0000000020
(PID.TID 0000.0001)  MDS_WRITE_FIELD: it,rec,kS,kL,kH=      20     1  15   1  15 file=wVeltave.0000000020
(PID.TID 0000.0001)  MDS_WRITE_FIELD: it,rec,kS,kL,kH=      20     1   1   1   1 file=Eta2tave.0000000020
(PID.TID 0000.0001)  MDS_WRITE_FIELD: it,rec,kS,kL,kH=      20     1  15   1  15 file=UTtave.0000000020
(PID.TID 0000.0001)  MDS_WRITE_FIELD: it,rec,kS,kL,kH=      20     1  15   1  15 file=VTtave.0000000020
(PID.TID 0000.0001)  MDS_WRITE_FIELD: it,rec,kS,kL,kH=      20     1  15   1  15 file=WTtave.0000000020
(PID.TID 0000.0001)  MDS_WRITE_FIELD: it,rec,kS,kL,kH=      20     1  15   1  15 file=UStave.0000000020
(PID.TID 0000.0001)  MDS_WRITE_FIELD: it,rec,kS,kL,kH=      20     1  15   1  15 file=VStave.0000000020
(PID.TID 0000.0001)  MDS_WRITE_FIELD: it,rec,kS,kL,kH=      20     1  15   1  15 file=WStave.0000000020
(PID.TID 0000.0001)  MDS_WRITE_FIELD: it,rec,kS,kL,kH=      20     1  15   1  15 file=TTtave.0000000020
(PID.TID 0000.0001)  MDS_WRITE_FIELD: it,rec,kS,kL,kH=      20     1  15   1  15 file=UUtave.0000000020
(PID.TID 0000.0001)  MDS_WRITE_FIELD: it,rec,kS,kL,kH=      20     1  15   1  15 file=VVtave.0000000020
(PID.TID 0000.0001)  MDS_WRITE_FIELD: it,rec,kS,kL,kH=      20     1  15   1  15 file=UVtave.0000000020
(PID.TID 0000.0001)  MDS_WRITE_FIELD: it,rec,kS,kL,kH=      20     1  15   1  15 file=Tdiftave.0000000020
(PID.TID 0000.0001)  MDS_WRITE_FIELD: it,rec,kS,kL,kH=      20     1  15   1  15 file=PhHytave.0000000020
(PID.TID 0000.0001)  MDS_WRITE_FIELD: it,rec,kS,kL,kH=      20     1   1   1   1 file=PHLtave.0000000020
(PID.TID 0000.0001)  MDS_WRITE_FIELD: it,rec,kS,kL,kH=      20     1   1   1   1 file=uFluxtave.0000000020
(PID.TID 0000.0001)  MDS_WRITE_FIELD: it,rec,kS,kL,kH=      20     1   1   1   1 file=vFluxtave.0000000020
(PID.TID 0000.0001)  MDS_WRITE_FIELD: it,rec,kS,kL,kH=      20     1   1   1   1 file=tFluxtave.0000000020
(PID.TID 0000.0001)  MDS_WRITE_FIELD: it,rec,kS,kL,kH=      20     1   1   1   1 file=sFluxtave.0000000020
(PID.TID 0000.0001)  MDS_WRITE_FIELD: it,rec,kS,kL,kH=      20     1   1   1   1 file=PHL2tave.0000000020
(PID.TID 0000.0001)  MDS_WRITE_FIELD: it,rec,kS,kL,kH=      20     1  15   1  15 file=Convtave.0000000020
(PID.TID 0000.0001) // Time-average data written, t-step        20
(PID.TID 0000.0001) 
(PID.TID 0000.0001)  MDS_WRITE_FIELD: it,rec,kS,kL,kH=      20     1  15   1  15 file=GM_Kwx-T.0000000020
(PID.TID 0000.0001)  MDS_WRITE_FIELD: it,rec,kS,kL,kH=      20     1  15   1  15 file=GM_Kwy-T.0000000020
(PID.TID 0000.0001)  MDS_WRITE_FIELD: it,rec,kS,kL,kH=      20     1  15   1  15 file=GM_Kwz-T.0000000020
(PID.TID 0000.0001)  MDS_WRITE_FIELD: it,rec,kS,kL,kH=      20     1   1   1   1 file=ETAN_forecast.0000000020
(PID.TID 0000.0001)  MDS_WRITE_FIELD: it,rec,kS,kL,kH=      20     1  15   1  15 file=THETA_forecast.0000000020
(PID.TID 0000.0001)  MDS_WRITE_FIELD: it,rec,kS,kL,kH=      20     1  15   1  15 file=SALT_forecast.0000000020
(PID.TID 0000.0001)  MDS_WRITE_FIELD: it,rec,kS,kL,kH=      20     1  15   1  15 file=UVEL_forecast.0000000020
(PID.TID 0000.0001)  MDS_WRITE_FIELD: it,rec,kS,kL,kH=      20     1  15   1  15 file=VVEL_forecast.0000000020
(PID.TID 0000.0001)  MDS_WRITE_FIELD: it,rec,kS,kL,kH=      20     1   1   1   1 file=ETAN_001_forecast.0000000020
(PID.TID 0000.0001)  MDS_WRITE_FIELD: it,rec,kS,kL,kH=      20     1  15   1  15 file=THETA_001_forecast.0000000020
(PID.TID 0000.0001)  MDS_WRITE_FIELD: it,rec,kS,kL,kH=      20     1  15   1  15 file=SALT_001_forecast.0000000020
(PID.TID 0000.0001)  MDS_WRITE_FIELD: it,rec,kS,kL,kH=      20     1  15   1  15 file=UVEL_001_forecast.0000000020
(PID.TID 0000.0001)  MDS_WRITE_FIELD: it,rec,kS,kL,kH=      20     1  15   1  15 file=VVEL_001_forecast.0000000020
(PID.TID 0000.0001)  MDS_WRITE_FIELD: it,rec,kS,kL,kH=      20     1   1   1   1 file=ETAN_002_forecast.0000000020
(PID.TID 0000.0001)  MDS_WRITE_FIELD: it,rec,kS,kL,kH=      20     1  15   1  15 file=THETA_002_forecast.0000000020
(PID.TID 0000.0001)  MDS_WRITE_FIELD: it,rec,kS,kL,kH=      20     1  15   1  15 file=SALT_002_forecast.0000000020
(PID.TID 0000.0001)  MDS_WRITE_FIELD: it,rec,kS,kL,kH=      20     1  15   1  15 file=UVEL_002_forecast.0000000020
(PID.TID 0000.0001)  MDS_WRITE_FIELD: it,rec,kS,kL,kH=      20     1  15   1  15 file=VVEL_002_forecast.0000000020
(PID.TID 0000.0001)  MDS_WRITE_FIELD: it,rec,kS,kL,kH=      20     1   1   1   1 file=ETAN_003_forecast.0000000020
(PID.TID 0000.0001)  MDS_WRITE_FIELD: it,rec,kS,kL,kH=      20     1  15   1  15 file=THETA_003_forecast.0000000020
(PID.TID 0000.0001)  MDS_WRITE_FIELD: it,rec,kS,kL,kH=      20     1  15   1  15 file=SALT_003_forecast.0000000020
(PID.TID 0000.0001)  MDS_WRITE_FIELD: it,rec,kS,kL,kH=      20     1  15   1  15 file=UVEL_003_forecast.0000000020
(PID.TID 0000.0001)  MDS_WRITE_FIELD: it,rec,kS,kL,kH=      20     1  15   1  15 file=VVEL_003_forecast.0000000020
(PID.TID 0000.0001)  MDS_WRITE_FIELD: it,rec,kS,kL,kH=      20     1   1   1   1 file=ETAN_004_forecast.0000000020
(PID.TID 0000.0001)  MDS_WRITE_FIELD: it,rec,kS,kL,kH=      20     1  15   1  15 file=THETA_004_forecast.0000000020
(PID.TID 0000.0001)  MDS_WRITE_FIELD: it,rec,kS,kL,kH=      20     1  15   1  15 file=SALT_004_forecast.0000000020
(PID.TID 0000.0001)  MDS_WRITE_FIELD: it,rec,kS,kL,kH=      20     1  15   1  15 file=UVEL_004_forecast.0000000020
(PID.TID 0000.0001)  MDS_WRITE_FIELD: it,rec,kS,kL,kH=      20     1  15   1  15 file=VVEL_004_forecast.0000000020
(PID.TID 0000.0001)  MDS_WRITE_FIELD: it,rec,kS,kL,kH=      20     1   1   1   1 file=ETAN_analysis.0000000020
(PID.TID 0000.0001)  MDS_WRITE_FIELD: it,rec,kS,kL,kH=      20     1  15   1  15 file=THETA_analysis.0000000020
(PID.TID 0000.0001)  MDS_WRITE_FIELD: it,rec,kS,kL,kH=      20     1  15   1  15 file=SALT_analysis.0000000020
(PID.TID 0000.0001)  MDS_WRITE_FIELD: it,rec,kS,kL,kH=      20     1  15   1  15 file=UVEL_analysis.0000000020
(PID.TID 0000.0001)  MDS_WRITE_FIELD: it,rec,kS,kL,kH=      20     1  15   1  15 file=VVEL_analysis.0000000020
(PID.TID 0000.0001)  MDS_WRITE_FIELD: it,rec,kS,kL,kH=      20     1   1   1   1 file=ETAN_001_analysis.0000000020
(PID.TID 0000.0001)  MDS_WRITE_FIELD: it,rec,kS,kL,kH=      20     1  15   1  15 file=THETA_001_analysis.0000000020
(PID.TID 0000.0001)  MDS_WRITE_FIELD: it,rec,kS,kL,kH=      20     1  15   1  15 file=SALT_001_analysis.0000000020
(PID.TID 0000.0001)  MDS_WRITE_FIELD: it,rec,kS,kL,kH=      20     1  15   1  15 file=UVEL_001_analysis.0000000020
(PID.TID 0000.0001)  MDS_WRITE_FIELD: it,rec,kS,kL,kH=      20     1  15   1  15 file=VVEL_001_analysis.0000000020
(PID.TID 0000.0001)  MDS_WRITE_FIELD: it,rec,kS,kL,kH=      20     1   1   1   1 file=ETAN_002_analysis.0000000020
(PID.TID 0000.0001)  MDS_WRITE_FIELD: it,rec,kS,kL,kH=      20     1  15   1  15 file=THETA_002_analysis.0000000020
(PID.TID 0000.0001)  MDS_WRITE_FIELD: it,rec,kS,kL,kH=      20     1  15   1  15 file=SALT_002_analysis.0000000020
(PID.TID 0000.0001)  MDS_WRITE_FIELD: it,rec,kS,kL,kH=      20     1  15   1  15 file=UVEL_002_analysis.0000000020
(PID.TID 0000.0001)  MDS_WRITE_FIELD: it,rec,kS,kL,kH=      20     1  15   1  15 file=VVEL_002_analysis.0000000020
(PID.TID 0000.0001)  MDS_WRITE_FIELD: it,rec,kS,kL,kH=      20     1   1   1   1 file=ETAN_003_analysis.0000000020
(PID.TID 0000.0001)  MDS_WRITE_FIELD: it,rec,kS,kL,kH=      20     1  15   1  15 file=THETA_003_analysis.0000000020
(PID.TID 0000.0001)  MDS_WRITE_FIELD: it,rec,kS,kL,kH=      20     1  15   1  15 file=SALT_003_analysis.0000000020
(PID.TID 0000.0001)  MDS_WRITE_FIELD: it,rec,kS,kL,kH=      20     1  15   1  15 file=UVEL_003_analysis.0000000020
(PID.TID 0000.0001)  MDS_WRITE_FIELD: it,rec,kS,kL,kH=      20     1  15   1  15 file=VVEL_003_analysis.0000000020
(PID.TID 0000.0001)  MDS_WRITE_FIELD: it,rec,kS,kL,kH=      20     1   1   1   1 file=ETAN_004_analysis.0000000020
(PID.TID 0000.0001)  MDS_WRITE_FIELD: it,rec,kS,kL,kH=      20     1  15   1  15 file=THETA_004_analysis.0000000020
(PID.TID 0000.0001)  MDS_WRITE_FIELD: it,rec,kS,kL,kH=      20     1  15   1  15 file=SALT_004_analysis.0000000020
(PID.TID 0000.0001)  MDS_WRITE_FIELD: it,rec,kS,kL,kH=      20     1  15   1  15 file=UVEL_004_analysis.0000000020
(PID.TID 0000.0001)  MDS_WRITE_FIELD: it,rec,kS,kL,kH=      20     1  15   1  15 file=VVEL_004_analysis.0000000020
 EXTERNAL_FIELDS_LOAD,        20 : iP,iLd,i0,i1=    1    2    1    2 ; Wght=  0.8333333333  0.1666666667
 EXTERNAL_FIELDS_LOAD: (fu0,1),fu,fv= -3.5633E-02 -1.4435E-02 -3.2100E-02 -5.0653E-02
 EXTERNAL_FIELDS_LOAD: SST,SSS,Q,E-P=  7.1005E-01  3.4666E+01  2.6156E+02  1.1093E-05
DEBUG_STATS_RL:          Uvel (THERMODYNAMICS)  min= -1.36040286499487E-01
DEBUG_STATS_RL:          Uvel (THERMODYNAMICS)  max=  1.73383401190237E-01
DEBUG_STATS_RL:          Uvel (THERMODYNAMICS) mean=  4.95302897346589E-03
DEBUG_STATS_RL:          Uvel (THERMODYNAMICS) S.D.=  2.31527396836103E-02
DEBUG_STATS_RL:          Vvel (THERMODYNAMICS)  min= -1.13129301827553E-01
DEBUG_STATS_RL:          Vvel (THERMODYNAMICS)  max=  1.44633845565329E-01
DEBUG_STATS_RL:          Vvel (THERMODYNAMICS) mean=  1.85160131026682E-03
DEBUG_STATS_RL:          Vvel (THERMODYNAMICS) S.D.=  1.62543733556614E-02
DEBUG_STATS_RL:          Wvel (THERMODYNAMICS)  min= -1.69013607645862E-04
DEBUG_STATS_RL:          Wvel (THERMODYNAMICS)  max=  1.22731561578092E-04
DEBUG_STATS_RL:          Wvel (THERMODYNAMICS) mean=  4.13749149673257E-07
DEBUG_STATS_RL:          Wvel (THERMODYNAMICS) S.D.=  1.64184392119909E-05
DEBUG_STATS_RL:         Theta (THERMODYNAMICS)  min= -1.98835873534258E+00
DEBUG_STATS_RL:         Theta (THERMODYNAMICS)  max=  2.96980339508248E+01
DEBUG_STATS_RL:         Theta (THERMODYNAMICS) mean=  3.20594213452485E+00
DEBUG_STATS_RL:         Theta (THERMODYNAMICS) S.D.=  5.85336746257682E+00
DEBUG_STATS_RL:          Salt (THERMODYNAMICS)  min= -6.85830501234083E-04
DEBUG_STATS_RL:          Salt (THERMODYNAMICS)  max=  3.74434970732095E+01
DEBUG_STATS_RL:          Salt (THERMODYNAMICS) mean=  1.88444738145747E+01
DEBUG_STATS_RL:          Salt (THERMODYNAMICS) S.D.=  1.73006423758344E+01
DEBUG_STATS_RL:         GtNm1 (THERMODYNAMICS)  min= -4.82985747148433E-06
DEBUG_STATS_RL:         GtNm1 (THERMODYNAMICS)  max=  2.82817224959223E-06
DEBUG_STATS_RL:         GtNm1 (THERMODYNAMICS) mean= -1.35291267655679E-09
DEBUG_STATS_RL:         GtNm1 (THERMODYNAMICS) S.D.=  2.19738818554155E-07
DEBUG_STATS_RL:         GsNm1 (THERMODYNAMICS)  min= -1.16475334898039E-06
DEBUG_STATS_RL:         GsNm1 (THERMODYNAMICS)  max=  7.72506507470042E-07
DEBUG_STATS_RL:         GsNm1 (THERMODYNAMICS) mean= -2.79599649822329E-10
DEBUG_STATS_RL:         GsNm1 (THERMODYNAMICS) S.D.=  2.28055267187532E-08
DEBUG_STATS_RL:                EtaN (DYNAMICS)  min= -1.55470561066199E+00
DEBUG_STATS_RL:                EtaN (DYNAMICS)  max=  9.85156370411742E-01
DEBUG_STATS_RL:                EtaN (DYNAMICS) mean= -1.72661315113989E-01
DEBUG_STATS_RL:                EtaN (DYNAMICS) S.D.=  6.57650427189166E-01
DEBUG_STATS_RL:                Uvel (DYNAMICS)  min= -1.36040286499487E-01
DEBUG_STATS_RL:                Uvel (DYNAMICS)  max=  1.73383401190237E-01
DEBUG_STATS_RL:                Uvel (DYNAMICS) mean=  4.95302897346589E-03
DEBUG_STATS_RL:                Uvel (DYNAMICS) S.D.=  2.31527396836103E-02
DEBUG_STATS_RL:                Vvel (DYNAMICS)  min= -1.13129301827553E-01
DEBUG_STATS_RL:                Vvel (DYNAMICS)  max=  1.44633845565329E-01
DEBUG_STATS_RL:                Vvel (DYNAMICS) mean=  1.85160131026682E-03
DEBUG_STATS_RL:                Vvel (DYNAMICS) S.D.=  1.62543733556614E-02
DEBUG_STATS_RL:                Wvel (DYNAMICS)  min= -1.69013607645862E-04
DEBUG_STATS_RL:                Wvel (DYNAMICS)  max=  1.22731561578092E-04
DEBUG_STATS_RL:                Wvel (DYNAMICS) mean=  4.13749149673257E-07
DEBUG_STATS_RL:                Wvel (DYNAMICS) S.D.=  1.64184392119909E-05
DEBUG_STATS_RL:               Theta (DYNAMICS)  min= -1.98835873534258E+00
DEBUG_STATS_RL:               Theta (DYNAMICS)  max=  2.96980339508248E+01
DEBUG_STATS_RL:               Theta (DYNAMICS) mean=  3.20594213452485E+00
DEBUG_STATS_RL:               Theta (DYNAMICS) S.D.=  5.85336746257682E+00
DEBUG_STATS_RL:                Salt (DYNAMICS)  min= -6.85830501234083E-04
DEBUG_STATS_RL:                Salt (DYNAMICS)  max=  3.74434970732095E+01
DEBUG_STATS_RL:                Salt (DYNAMICS) mean=  1.88444738145747E+01
DEBUG_STATS_RL:                Salt (DYNAMICS) S.D.=  1.73006423758344E+01
DEBUG_STATS_RL:                  Gu (DYNAMICS)  min= -1.42356881496287E-01
DEBUG_STATS_RL:                  Gu (DYNAMICS)  max=  1.72856315725280E-01
DEBUG_STATS_RL:                  Gu (DYNAMICS) mean=  4.47708350250240E-03
DEBUG_STATS_RL:                  Gu (DYNAMICS) S.D.=  2.24852676136939E-02
DEBUG_STATS_RL:                  Gv (DYNAMICS)  min= -1.31320999504162E-01
DEBUG_STATS_RL:                  Gv (DYNAMICS)  max=  1.69998472402226E-01
DEBUG_STATS_RL:                  Gv (DYNAMICS) mean=  4.10745283598980E-03
DEBUG_STATS_RL:                  Gv (DYNAMICS) S.D.=  1.83624755227723E-02
DEBUG_STATS_RL:               GuNm1 (DYNAMICS)  min= -7.53590082937961E-06
DEBUG_STATS_RL:               GuNm1 (DYNAMICS)  max=  7.67107390234801E-06
DEBUG_STATS_RL:               GuNm1 (DYNAMICS) mean= -1.21347886503580E-08
DEBUG_STATS_RL:               GuNm1 (DYNAMICS) S.D.=  1.14366763507780E-06
DEBUG_STATS_RL:               GvNm1 (DYNAMICS)  min= -9.41201661253288E-06
DEBUG_STATS_RL:               GvNm1 (DYNAMICS)  max=  1.70058038779704E-05
DEBUG_STATS_RL:               GvNm1 (DYNAMICS) mean=  7.71791383324935E-07
DEBUG_STATS_RL:               GvNm1 (DYNAMICS) S.D.=  2.58654432354401E-06
DEBUG_STATS_RL:               GtNm1 (DYNAMICS)  min= -4.82985747148433E-06
DEBUG_STATS_RL:               GtNm1 (DYNAMICS)  max=  2.82817224959223E-06
DEBUG_STATS_RL:               GtNm1 (DYNAMICS) mean= -1.35291267655679E-09
DEBUG_STATS_RL:               GtNm1 (DYNAMICS) S.D.=  2.19738818554155E-07
DEBUG_STATS_RL:               GsNm1 (DYNAMICS)  min= -1.16475334898039E-06
DEBUG_STATS_RL:               GsNm1 (DYNAMICS)  max=  7.72506507470042E-07
DEBUG_STATS_RL:               GsNm1 (DYNAMICS) mean= -2.79599649822329E-10
DEBUG_STATS_RL:               GsNm1 (DYNAMICS) S.D.=  2.28055267187532E-08
DEBUG_STATS_RL:    cg2d_b (SOLVE_FOR_PRESSURE)  min= -2.15109564291183E+04
DEBUG_STATS_RL:    cg2d_b (SOLVE_FOR_PRESSURE)  max=  1.55455470534476E+04
DEBUG_STATS_RL:    cg2d_b (SOLVE_FOR_PRESSURE) mean=  1.47014613224232E+00
DEBUG_STATS_RL:    cg2d_b (SOLVE_FOR_PRESSURE) S.D.=  3.39496176061732E+03
 cg2d: Sum(rhs),rhsMax =   1.58216502708895E-01  1.41289721225232E+00
(PID.TID 0000.0001)  cg2d: iter=     1 ; resid.=  2.67323679440140E-01
(PID.TID 0000.0001)  cg2d: iter=     2 ; resid.=  2.49268481206746E-01
(PID.TID 0000.0001)  cg2d: iter=     3 ; resid.=  2.48200079924253E-01
(PID.TID 0000.0001)  cg2d: iter=     4 ; resid.=  2.15376536606315E-01
(PID.TID 0000.0001)  cg2d: iter=     5 ; resid.=  1.78340327306139E-01
(PID.TID 0000.0001)  cg2d: iter=     6 ; resid.=  1.38397461446544E-01
(PID.TID 0000.0001)  cg2d: iter=     7 ; resid.=  1.22448800195028E-01
(PID.TID 0000.0001)  cg2d: iter=     8 ; resid.=  1.02882642569316E-01
(PID.TID 0000.0001)  cg2d: iter=     9 ; resid.=  8.88210649748386E-02
(PID.TID 0000.0001)  cg2d: iter=    10 ; resid.=  8.00614963745448E-02
(PID.TID 0000.0001)  cg2d: iter=    11 ; resid.=  7.49486182821340E-02
(PID.TID 0000.0001)  cg2d: iter=    12 ; resid.=  6.29422922908867E-02
(PID.TID 0000.0001)  cg2d: iter=    13 ; resid.=  4.96343699877125E-02
(PID.TID 0000.0001)  cg2d: iter=    14 ; resid.=  3.87510164539578E-02
(PID.TID 0000.0001)  cg2d: iter=    15 ; resid.=  2.95918087142600E-02
(PID.TID 0000.0001)  cg2d: iter=    16 ; resid.=  2.59938507000872E-02
(PID.TID 0000.0001)  cg2d: iter=    17 ; resid.=  2.24514185545821E-02
(PID.TID 0000.0001)  cg2d: iter=    18 ; resid.=  1.90760181394420E-02
(PID.TID 0000.0001)  cg2d: iter=    19 ; resid.=  1.49832939703873E-02
(PID.TID 0000.0001)  cg2d: iter=    20 ; resid.=  1.18138322358870E-02
(PID.TID 0000.0001)  cg2d: iter=    21 ; resid.=  9.56352599681098E-03
(PID.TID 0000.0001)  cg2d: iter=    22 ; resid.=  7.24169240813673E-03
(PID.TID 0000.0001)  cg2d: iter=    23 ; resid.=  5.76102240527518E-03
(PID.TID 0000.0001)  cg2d: iter=    24 ; resid.=  4.79195737204642E-03
(PID.TID 0000.0001)  cg2d: iter=    25 ; resid.=  3.67291577690080E-03
(PID.TID 0000.0001)  cg2d: iter=    26 ; resid.=  2.95894270377972E-03
(PID.TID 0000.0001)  cg2d: iter=    27 ; resid.=  2.74466691768953E-03
(PID.TID 0000.0001)  cg2d: iter=    28 ; resid.=  2.10955230381552E-03
(PID.TID 0000.0001)  cg2d: iter=    29 ; resid.=  1.65978256466383E-03
(PID.TID 0000.0001)  cg2d: iter=    30 ; resid.=  1.49479789838470E-03
(PID.TID 0000.0001)  cg2d: iter=    31 ; resid.=  1.38815805382622E-03
(PID.TID 0000.0001)  cg2d: iter=    32 ; resid.=  1.21964651143530E-03
(PID.TID 0000.0001)  cg2d: iter=    33 ; resid.=  1.02370521930769E-03
(PID.TID 0000.0001)  cg2d: iter=    34 ; resid.=  8.05506870979983E-04
(PID.TID 0000.0001)  cg2d: iter=    35 ; resid.=  6.15274954121030E-04
(PID.TID 0000.0001)  cg2d: iter=    36 ; resid.=  4.78458985011481E-04
(PID.TID 0000.0001)  cg2d: iter=    37 ; resid.=  4.13659339560646E-04
(PID.TID 0000.0001)  cg2d: iter=    38 ; resid.=  3.69610066301914E-04
(PID.TID 0000.0001)  cg2d: iter=    39 ; resid.=  3.03227528717110E-04
(PID.TID 0000.0001)  cg2d: iter=    40 ; resid.=  2.44483692519046E-04
(PID.TID 0000.0001)  cg2d: iter=    41 ; resid.=  2.04386078395907E-04
(PID.TID 0000.0001)  cg2d: iter=    42 ; resid.=  1.82578522874192E-04
(PID.TID 0000.0001)  cg2d: iter=    43 ; resid.=  1.58497652351940E-04
(PID.TID 0000.0001)  cg2d: iter=    44 ; resid.=  1.43178771694982E-04
(PID.TID 0000.0001)  cg2d: iter=    45 ; resid.=  1.24675839134359E-04
(PID.TID 0000.0001)  cg2d: iter=    46 ; resid.=  1.07083277352198E-04
(PID.TID 0000.0001)  cg2d: iter=    47 ; resid.=  9.13245334553869E-05
(PID.TID 0000.0001)  cg2d: iter=    48 ; resid.=  7.31073938992862E-05
(PID.TID 0000.0001)  cg2d: iter=    49 ; resid.=  5.58521688705278E-05
(PID.TID 0000.0001)  cg2d: iter=    50 ; resid.=  4.47345843170321E-05
(PID.TID 0000.0001)  cg2d: iter=    51 ; resid.=  3.87215006234881E-05
(PID.TID 0000.0001)  cg2d: iter=    52 ; resid.=  3.31078952600147E-05
(PID.TID 0000.0001)  cg2d: iter=    53 ; resid.=  2.95970231406346E-05
(PID.TID 0000.0001)  cg2d: iter=    54 ; resid.=  2.39945060578737E-05
(PID.TID 0000.0001)  cg2d: iter=    55 ; resid.=  1.84048699663321E-05
(PID.TID 0000.0001)  cg2d: iter=    56 ; resid.=  1.50923683814375E-05
(PID.TID 0000.0001)  cg2d: iter=    57 ; resid.=  1.19872809787964E-05
(PID.TID 0000.0001)  cg2d: iter=    58 ; resid.=  9.90325089709561E-06
(PID.TID 0000.0001)  cg2d: iter=    59 ; resid.=  8.33404532019813E-06
(PID.TID 0000.0001)  cg2d: iter=    60 ; resid.=  6.76086278228646E-06
(PID.TID 0000.0001)  cg2d: iter=    61 ; resid.=  5.63241344454549E-06
(PID.TID 0000.0001)  cg2d: iter=    62 ; resid.=  4.44909804797950E-06
(PID.TID 0000.0001)  cg2d: iter=    63 ; resid.=  3.52481889830391E-06
(PID.TID 0000.0001)  cg2d: iter=    64 ; resid.=  3.06911775632890E-06
(PID.TID 0000.0001)  cg2d: iter=    65 ; resid.=  2.81543057142916E-06
(PID.TID 0000.0001)  cg2d: iter=    66 ; resid.=  2.34472406239951E-06
(PID.TID 0000.0001)  cg2d: iter=    67 ; resid.=  2.05515793840939E-06
(PID.TID 0000.0001)  cg2d: iter=    68 ; resid.=  1.74909053989336E-06
(PID.TID 0000.0001)  cg2d: iter=    69 ; resid.=  1.44337159939293E-06
(PID.TID 0000.0001)  cg2d: iter=    70 ; resid.=  1.22737607797093E-06
(PID.TID 0000.0001)  cg2d: iter=    71 ; resid.=  9.43695903437421E-07
(PID.TID 0000.0001)  cg2d: iter=    72 ; resid.=  7.53790046167683E-07
(PID.TID 0000.0001)  cg2d: iter=    73 ; resid.=  6.34825216797460E-07
(PID.TID 0000.0001)  cg2d: iter=    74 ; resid.=  4.65224583284106E-07
(PID.TID 0000.0001)  cg2d: iter=    75 ; resid.=  3.39648015304837E-07
(PID.TID 0000.0001)  cg2d: iter=    76 ; resid.=  2.81430355202872E-07
(PID.TID 0000.0001)  cg2d: iter=    77 ; resid.=  2.35590687876628E-07
(PID.TID 0000.0001)  cg2d: iter=    78 ; resid.=  1.94131284266029E-07
(PID.TID 0000.0001)  cg2d: iter=    79 ; resid.=  1.70272930371245E-07
(PID.TID 0000.0001)  cg2d: iter=    80 ; resid.=  1.41574598692169E-07
(PID.TID 0000.0001)  cg2d: iter=    81 ; resid.=  1.17540599407563E-07
(PID.TID 0000.0001)  cg2d: iter=    82 ; resid.=  9.08133425726020E-08
(PID.TID 0000.0001)  cg2d: iter=    83 ; resid.=  6.50693263874439E-08
(PID.TID 0000.0001)  cg2d: iter=    84 ; resid.=  5.23070819518334E-08
(PID.TID 0000.0001)  cg2d: iter=    85 ; resid.=  3.96268514960125E-08
(PID.TID 0000.0001)  cg2d: iter=    86 ; resid.=  3.11325411690106E-08
(PID.TID 0000.0001)  cg2d: iter=    87 ; resid.=  2.59888556512867E-08
(PID.TID 0000.0001)  cg2d: iter=    88 ; resid.=  2.10221129080359E-08
(PID.TID 0000.0001)  cg2d: iter=    89 ; resid.=  1.79346072667305E-08
(PID.TID 0000.0001)  cg2d: iter=    90 ; resid.=  1.41986075068571E-08
(PID.TID 0000.0001)  cg2d: iter=    91 ; resid.=  1.03159187206675E-08
(PID.TID 0000.0001)  cg2d: iter=    92 ; resid.=  7.42722452355112E-09
(PID.TID 0000.0001)  cg2d: iter=    93 ; resid.=  5.32760263203116E-09
(PID.TID 0000.0001)  cg2d: iter=    94 ; resid.=  3.89596313143176E-09
(PID.TID 0000.0001)  cg2d: iter=    95 ; resid.=  3.11416244397733E-09
(PID.TID 0000.0001)  cg2d: iter=    96 ; resid.=  2.46340466575517E-09
(PID.TID 0000.0001)  cg2d: iter=    97 ; resid.=  1.94163378435016E-09
(PID.TID 0000.0001)  cg2d: iter=    98 ; resid.=  1.53237445699132E-09
(PID.TID 0000.0001)  cg2d: iter=    99 ; resid.=  1.24055036704174E-09
(PID.TID 0000.0001)  cg2d: iter=   100 ; resid.=  9.19080519358959E-10
(PID.TID 0000.0001)  cg2d: iter=   101 ; resid.=  6.74588071003997E-10
(PID.TID 0000.0001)  cg2d: iter=   102 ; resid.=  5.24852298242824E-10
(PID.TID 0000.0001)  cg2d: iter=   103 ; resid.=  4.13128399646236E-10
(PID.TID 0000.0001)  cg2d: iter=   104 ; resid.=  3.29679282276040E-10
(PID.TID 0000.0001)  cg2d: iter=   105 ; resid.=  2.53832687558746E-10
(PID.TID 0000.0001)  cg2d: iter=   106 ; resid.=  2.21742918763296E-10
(PID.TID 0000.0001)  cg2d: iter=   107 ; resid.=  2.12433407642761E-10
(PID.TID 0000.0001)  cg2d: iter=   108 ; resid.=  1.75303455440507E-10
(PID.TID 0000.0001)  cg2d: iter=   109 ; resid.=  1.35989424324448E-10
(PID.TID 0000.0001)  cg2d: iter=   110 ; resid.=  1.06769433893260E-10
(PID.TID 0000.0001)  cg2d: iter=   111 ; resid.=  8.57091898275378E-11
(PID.TID 0000.0001)  cg2d: iter=   112 ; resid.=  7.32133464102092E-11
(PID.TID 0000.0001)  cg2d: iter=   113 ; resid.=  5.75787537311720E-11
(PID.TID 0000.0001)  cg2d: iter=   114 ; resid.=  4.61557769384206E-11
(PID.TID 0000.0001)  cg2d: iter=   115 ; resid.=  3.61622178183368E-11
(PID.TID 0000.0001)  cg2d: iter=   116 ; resid.=  2.78044417067903E-11
(PID.TID 0000.0001)  cg2d: iter=   117 ; resid.=  2.25031694826187E-11
(PID.TID 0000.0001)  cg2d: iter=   118 ; resid.=  1.87109714744880E-11
(PID.TID 0000.0001)  cg2d: iter=   119 ; resid.=  1.61236078599137E-11
(PID.TID 0000.0001)  cg2d: iter=   120 ; resid.=  1.25859074938933E-11
(PID.TID 0000.0001)  cg2d: iter=   121 ; resid.=  9.12591134119008E-12
(PID.TID 0000.0001)  cg2d: iter=   122 ; resid.=  6.70678206308012E-12
(PID.TID 0000.0001)  cg2d: iter=   123 ; resid.=  4.95818608209719E-12
(PID.TID 0000.0001)  cg2d: iter=   124 ; resid.=  3.64842512882054E-12
(PID.TID 0000.0001)  cg2d: iter=   125 ; resid.=  2.65756973812052E-12
(PID.TID 0000.0001)  cg2d: iter=   126 ; resid.=  1.77359090346544E-12
(PID.TID 0000.0001)  cg2d: iter=   127 ; resid.=  1.19247075907418E-12
(PID.TID 0000.0001)  cg2d: iter=   128 ; resid.=  9.03091863974512E-13
(PID.TID 0000.0001)  cg2d: iter=   129 ; resid.=  7.02688067253927E-13
(PID.TID 0000.0001)  cg2d: iter=   130 ; resid.=  4.94062520263244E-13
(PID.TID 0000.0001)  cg2d: iter=   131 ; resid.=  3.64655524408483E-13
(PID.TID 0000.0001)  cg2d: iter=   132 ; resid.=  2.41939923537227E-13
(PID.TID 0000.0001)  cg2d: iter=   133 ; resid.=  1.75376992714692E-13
(PID.TID 0000.0001)  cg2d: iter=   134 ; resid.=  1.28960202955442E-13
(PID.TID 0000.0001)  cg2d: iter=   135 ; resid.=  9.58159007933477E-14
DEBUG_STATS_RL:    cg2d_x (SOLVE_FOR_PRESSURE)  min= -1.60006589228622E+01
DEBUG_STATS_RL:    cg2d_x (SOLVE_FOR_PRESSURE)  max=  9.41774034001364E+00
DEBUG_STATS_RL:    cg2d_x (SOLVE_FOR_PRESSURE) mean= -1.67383406329449E+00
DEBUG_STATS_RL:    cg2d_x (SOLVE_FOR_PRESSURE) S.D.=  6.49427297585174E+00
(PID.TID 0000.0001)      cg2d_init_res =   5.51176570741624E-01
(PID.TID 0000.0001)      cg2d_iters(min,last) =      -1     135
(PID.TID 0000.0001)      cg2d_last_res =   9.58159007933477E-14
(PID.TID 0000.0001) // =======================================================
(PID.TID 0000.0001) // Begin MONITOR dynamic field statistics
(PID.TID 0000.0001) // =======================================================
(PID.TID 0000.0001) %MON time_tsnumber                =                    21
(PID.TID 0000.0001) %MON time_secondsf                =   1.8144000000000E+06
(PID.TID 0000.0001) %MON dynstat_eta_max              =   9.6001430581184E-01
(PID.TID 0000.0001) %MON dynstat_eta_min              =  -1.6310559554395E+00
(PID.TID 0000.0001) %MON dynstat_eta_mean             =  -1.5339151968920E-03
(PID.TID 0000.0001) %MON dynstat_eta_sd               =   5.8341329088636E-01
(PID.TID 0000.0001) %MON dynstat_eta_del2             =   1.8637706153875E-03
(PID.TID 0000.0001) %MON dynstat_uvel_max             =   1.6533051381467E-01
(PID.TID 0000.0001) %MON dynstat_uvel_min             =  -1.4161477113957E-01
(PID.TID 0000.0001) %MON dynstat_uvel_mean            =   8.6426479930478E-04
(PID.TID 0000.0001) %MON dynstat_uvel_sd              =   1.3672740452255E-02
(PID.TID 0000.0001) %MON dynstat_uvel_del2            =   8.9501615363817E-05
(PID.TID 0000.0001) %MON dynstat_vvel_max             =   1.5065569291083E-01
(PID.TID 0000.0001) %MON dynstat_vvel_min             =  -1.2151174825108E-01
(PID.TID 0000.0001) %MON dynstat_vvel_mean            =   3.9064325540466E-05
(PID.TID 0000.0001) %MON dynstat_vvel_sd              =   9.7844278409878E-03
(PID.TID 0000.0001) %MON dynstat_vvel_del2            =   8.7889126937524E-05
(PID.TID 0000.0001) %MON dynstat_wvel_max             =   1.2197006898302E-04
(PID.TID 0000.0001) %MON dynstat_wvel_min             =  -1.5929183904130E-04
(PID.TID 0000.0001) %MON dynstat_wvel_mean            =  -3.5957845115120E-11
(PID.TID 0000.0001) %MON dynstat_wvel_sd              =   1.7811246878214E-05
(PID.TID 0000.0001) %MON dynstat_wvel_del2            =   2.0398953530381E-07
(PID.TID 0000.0001) %MON dynstat_theta_max            =   2.9698033950825E+01
(PID.TID 0000.0001) %MON dynstat_theta_min            =  -1.9883587353426E+00
(PID.TID 0000.0001) %MON dynstat_theta_mean           =   3.6191136681771E+00
(PID.TID 0000.0001) %MON dynstat_theta_sd             =   4.4143457018211E+00
(PID.TID 0000.0001) %MON dynstat_theta_del2           =   4.8184121385255E-03
(PID.TID 0000.0001) %MON dynstat_salt_max             =   3.7443497073210E+01
(PID.TID 0000.0001) %MON dynstat_salt_min             =   2.9770968726896E+01
(PID.TID 0000.0001) %MON dynstat_salt_mean            =   3.4717283951443E+01
(PID.TID 0000.0001) %MON dynstat_salt_sd              =   2.9619179207379E-01
(PID.TID 0000.0001) %MON dynstat_salt_del2            =   1.0069851493193E-03
(PID.TID 0000.0001) %MON dynstat_sst_max              =   2.9698033950825E+01
(PID.TID 0000.0001) %MON dynstat_sst_min              =  -1.9883587353426E+00
(PID.TID 0000.0001) %MON dynstat_sst_mean             =   1.8629995290514E+01
(PID.TID 0000.0001) %MON dynstat_sst_sd               =   9.0826664139243E+00
(PID.TID 0000.0001) %MON dynstat_sst_del2             =   2.5689940358662E-02
(PID.TID 0000.0001) %MON dynstat_sss_max              =   3.7429416921306E+01
(PID.TID 0000.0001) %MON dynstat_sss_min              =   2.9770968726896E+01
(PID.TID 0000.0001) %MON dynstat_sss_mean             =   3.4851462615813E+01
(PID.TID 0000.0001) %MON dynstat_sss_sd               =   9.7190813968666E-01
(PID.TID 0000.0001) %MON dynstat_sss_del2             =   7.9236593890340E-03
(PID.TID 0000.0001) %MON forcing_qnet_max             =   4.2501818339030E+02
(PID.TID 0000.0001) %MON forcing_qnet_min             =  -1.7882195027669E+02
(PID.TID 0000.0001) %MON forcing_qnet_mean            =  -1.6087980164027E+01
(PID.TID 0000.0001) %MON forcing_qnet_sd              =   1.0451573706380E+02
(PID.TID 0000.0001) %MON forcing_qnet_del2            =   1.0046269814196E+00
(PID.TID 0000.0001) %MON forcing_qsw_max              =   0.0000000000000E+00
(PID.TID 0000.0001) %MON forcing_qsw_min              =   0.0000000000000E+00
(PID.TID 0000.0001) %MON forcing_qsw_mean             =   0.0000000000000E+00
(PID.TID 0000.0001) %MON forcing_qsw_sd               =   0.0000000000000E+00
(PID.TID 0000.0001) %MON forcing_qsw_del2             =   0.0000000000000E+00
(PID.TID 0000.0001) %MON forcing_empmr_max            =   8.0603790308942E-05
(PID.TID 0000.0001) %MON forcing_empmr_min            =  -7.6554177515694E-05
(PID.TID 0000.0001) %MON forcing_empmr_mean           =   9.2634904841042E-07
(PID.TID 0000.0001) %MON forcing_empmr_sd             =   2.8551238028456E-05
(PID.TID 0000.0001) %MON forcing_empmr_del2           =   3.6194392674950E-07
(PID.TID 0000.0001) %MON forcing_fu_max               =   2.7779850363731E-01
(PID.TID 0000.0001) %MON forcing_fu_min               =  -1.7423425614834E-01
(PID.TID 0000.0001) %MON forcing_fu_mean              =   1.6273236229911E-02
(PID.TID 0000.0001) %MON forcing_fu_sd                =   9.0302370992227E-02
(PID.TID 0000.0001) %MON forcing_fu_del2              =   6.9156155412209E-04
(PID.TID 0000.0001) %MON forcing_fv_max               =   2.1707908560832E-01
(PID.TID 0000.0001) %MON forcing_fv_min               =  -1.7318040132523E-01
(PID.TID 0000.0001) %MON forcing_fv_mean              =  -5.5852022730810E-03
(PID.TID 0000.0001) %MON forcing_fv_sd                =   4.6781725511238E-02
(PID.TID 0000.0001) %MON forcing_fv_del2              =   4.7604155407923E-04
(PID.TID 0000.0001) %MON trAdv_CFL_u_max              =   4.5337671406554E-02
(PID.TID 0000.0001) %MON trAdv_CFL_v_max              =   2.9104349762535E-02
(PID.TID 0000.0001) %MON trAdv_CFL_w_max              =   5.6317980236518E-02
(PID.TID 0000.0001) %MON advcfl_uvel_max              =   4.3223159403558E-02
(PID.TID 0000.0001) %MON advcfl_vvel_max              =   2.9269984905752E-02
(PID.TID 0000.0001) %MON advcfl_wvel_max              =   4.7940937073495E-02
(PID.TID 0000.0001) %MON advcfl_W_hf_max              =   5.2934784685317E-02
(PID.TID 0000.0001) %MON pe_b_mean                    =   4.3554881818622E-04
(PID.TID 0000.0001) %MON ke_max                       =   1.5232773832243E-02
(PID.TID 0000.0001) %MON ke_mean                      =   1.2825110013759E-04
(PID.TID 0000.0001) %MON ke_vol                       =   1.3226782436723E+18
(PID.TID 0000.0001) %MON vort_r_min                   =  -2.5143828669259E-07
(PID.TID 0000.0001) %MON vort_r_max                   =   3.9597605191375E-07
(PID.TID 0000.0001) %MON vort_a_mean                  =  -2.5274807047580E-05
(PID.TID 0000.0001) %MON vort_a_sd                    =   7.3604455863742E-05
(PID.TID 0000.0001) %MON vort_p_mean                  =  -3.1845655358643E-05
(PID.TID 0000.0001) %MON vort_p_sd                    =   1.3162453056688E-04
(PID.TID 0000.0001) %MON surfExpan_theta_mean         =   2.1149698105415E-07
(PID.TID 0000.0001) %MON surfExpan_salt_mean          =   8.6437259335528E-08
(PID.TID 0000.0001) // =======================================================
(PID.TID 0000.0001) // End MONITOR dynamic field statistics
(PID.TID 0000.0001) // =======================================================
 EXTERNAL_FIELDS_LOAD,        21 : iP,iLd,i0,i1=    1    2    1    2 ; Wght=  0.8000000000  0.2000000000
 EXTERNAL_FIELDS_LOAD: (fu0,1),fu,fv= -3.5633E-02 -1.4435E-02 -3.1393E-02 -4.9332E-02
 EXTERNAL_FIELDS_LOAD: SST,SSS,Q,E-P=  6.6037E-01  3.4656E+01  2.6071E+02  1.0985E-05
DEBUG_STATS_RL:          Uvel (THERMODYNAMICS)  min= -1.41614771139566E-01
DEBUG_STATS_RL:          Uvel (THERMODYNAMICS)  max=  1.65330513814674E-01
DEBUG_STATS_RL:          Uvel (THERMODYNAMICS) mean=  4.56258806503994E-03
DEBUG_STATS_RL:          Uvel (THERMODYNAMICS) S.D.=  2.21410380993915E-02
DEBUG_STATS_RL:          Vvel (THERMODYNAMICS)  min= -1.21511748251079E-01
DEBUG_STATS_RL:          Vvel (THERMODYNAMICS)  max=  1.50655692910828E-01
DEBUG_STATS_RL:          Vvel (THERMODYNAMICS) mean=  1.96178669321250E-03
DEBUG_STATS_RL:          Vvel (THERMODYNAMICS) S.D.=  1.65038811172269E-02
DEBUG_STATS_RL:          Wvel (THERMODYNAMICS)  min= -1.59291839041304E-04
DEBUG_STATS_RL:          Wvel (THERMODYNAMICS)  max=  1.21970068983016E-04
DEBUG_STATS_RL:          Wvel (THERMODYNAMICS) mean=  4.51940345289501E-07
DEBUG_STATS_RL:          Wvel (THERMODYNAMICS) S.D.=  1.63049254585439E-05
DEBUG_STATS_RL:         Theta (THERMODYNAMICS)  min= -1.98752185026034E+00
DEBUG_STATS_RL:         Theta (THERMODYNAMICS)  max=  2.97041177166702E+01
DEBUG_STATS_RL:         Theta (THERMODYNAMICS) mean=  3.20573163765790E+00
DEBUG_STATS_RL:         Theta (THERMODYNAMICS) S.D.=  5.85337308644607E+00
DEBUG_STATS_RL:          Salt (THERMODYNAMICS)  min= -6.85830501234083E-04
DEBUG_STATS_RL:          Salt (THERMODYNAMICS)  max=  3.74446610724781E+01
DEBUG_STATS_RL:          Salt (THERMODYNAMICS) mean=  1.88444535579184E+01
DEBUG_STATS_RL:          Salt (THERMODYNAMICS) S.D.=  1.73006241169105E+01
DEBUG_STATS_RL:         GtNm1 (THERMODYNAMICS)  min= -4.60786239929539E-06
DEBUG_STATS_RL:         GtNm1 (THERMODYNAMICS)  max=  2.57981469655561E-06
DEBUG_STATS_RL:         GtNm1 (THERMODYNAMICS) mean= -2.61550391334127E-09
DEBUG_STATS_RL:         GtNm1 (THERMODYNAMICS) S.D.=  2.16732133569458E-07
DEBUG_STATS_RL:         GsNm1 (THERMODYNAMICS)  min= -1.08051896168663E-06
DEBUG_STATS_RL:         GsNm1 (THERMODYNAMICS)  max=  6.92308586596672E-07
DEBUG_STATS_RL:         GsNm1 (THERMODYNAMICS) mean= -3.84225116378815E-10
DEBUG_STATS_RL:         GsNm1 (THERMODYNAMICS) S.D.=  2.20485868125224E-08
DEBUG_STATS_RL:                EtaN (DYNAMICS)  min= -1.63105595543952E+00
DEBUG_STATS_RL:                EtaN (DYNAMICS)  max=  9.60014305811842E-01
DEBUG_STATS_RL:                EtaN (DYNAMICS) mean= -1.70625286778237E-01
DEBUG_STATS_RL:                EtaN (DYNAMICS) S.D.=  6.62005400188763E-01
DEBUG_STATS_RL:                Uvel (DYNAMICS)  min= -1.41614771139566E-01
DEBUG_STATS_RL:                Uvel (DYNAMICS)  max=  1.65330513814674E-01
DEBUG_STATS_RL:                Uvel (DYNAMICS) mean=  4.56258806503994E-03
DEBUG_STATS_RL:                Uvel (DYNAMICS) S.D.=  2.21410380993915E-02
DEBUG_STATS_RL:                Vvel (DYNAMICS)  min= -1.21511748251079E-01
DEBUG_STATS_RL:                Vvel (DYNAMICS)  max=  1.50655692910828E-01
DEBUG_STATS_RL:                Vvel (DYNAMICS) mean=  1.96178669321250E-03
DEBUG_STATS_RL:                Vvel (DYNAMICS) S.D.=  1.65038811172269E-02
DEBUG_STATS_RL:                Wvel (DYNAMICS)  min= -1.59291839041304E-04
DEBUG_STATS_RL:                Wvel (DYNAMICS)  max=  1.21970068983016E-04
DEBUG_STATS_RL:                Wvel (DYNAMICS) mean=  4.51940345289501E-07
DEBUG_STATS_RL:                Wvel (DYNAMICS) S.D.=  1.63049254585439E-05
DEBUG_STATS_RL:               Theta (DYNAMICS)  min= -1.98752185026034E+00
DEBUG_STATS_RL:               Theta (DYNAMICS)  max=  2.97041177166702E+01
DEBUG_STATS_RL:               Theta (DYNAMICS) mean=  3.20573163765790E+00
DEBUG_STATS_RL:               Theta (DYNAMICS) S.D.=  5.85337308644607E+00
DEBUG_STATS_RL:                Salt (DYNAMICS)  min= -6.85830501234083E-04
DEBUG_STATS_RL:                Salt (DYNAMICS)  max=  3.74446610724781E+01
DEBUG_STATS_RL:                Salt (DYNAMICS) mean=  1.88444535579184E+01
DEBUG_STATS_RL:                Salt (DYNAMICS) S.D.=  1.73006241169105E+01
DEBUG_STATS_RL:                  Gu (DYNAMICS)  min= -1.47551309040381E-01
DEBUG_STATS_RL:                  Gu (DYNAMICS)  max=  1.62784686988311E-01
DEBUG_STATS_RL:                  Gu (DYNAMICS) mean=  4.06640024559799E-03
DEBUG_STATS_RL:                  Gu (DYNAMICS) S.D.=  2.14609982767356E-02
DEBUG_STATS_RL:                  Gv (DYNAMICS)  min= -1.38138578167067E-01
DEBUG_STATS_RL:                  Gv (DYNAMICS)  max=  1.72551110695760E-01
DEBUG_STATS_RL:                  Gv (DYNAMICS) mean=  4.14829276796165E-03
DEBUG_STATS_RL:                  Gv (DYNAMICS) S.D.=  1.85025756244296E-02
DEBUG_STATS_RL:               GuNm1 (DYNAMICS)  min= -7.61166351369924E-06
DEBUG_STATS_RL:               GuNm1 (DYNAMICS)  max=  7.73870393084002E-06
DEBUG_STATS_RL:               GuNm1 (DYNAMICS) mean= -1.20362908432322E-08
DEBUG_STATS_RL:               GuNm1 (DYNAMICS) S.D.=  1.15443821032437E-06
DEBUG_STATS_RL:               GvNm1 (DYNAMICS)  min= -9.63584081933610E-06
DEBUG_STATS_RL:               GvNm1 (DYNAMICS)  max=  1.70529192291677E-05
DEBUG_STATS_RL:               GvNm1 (DYNAMICS) mean=  7.71049274025239E-07
DEBUG_STATS_RL:               GvNm1 (DYNAMICS) S.D.=  2.59547128395742E-06
DEBUG_STATS_RL:               GtNm1 (DYNAMICS)  min= -4.60786239929539E-06
DEBUG_STATS_RL:               GtNm1 (DYNAMICS)  max=  2.57981469655561E-06
DEBUG_STATS_RL:               GtNm1 (DYNAMICS) mean= -2.61550391334127E-09
DEBUG_STATS_RL:               GtNm1 (DYNAMICS) S.D.=  2.16732133569458E-07
DEBUG_STATS_RL:               GsNm1 (DYNAMICS)  min= -1.08051896168663E-06
DEBUG_STATS_RL:               GsNm1 (DYNAMICS)  max=  6.92308586596672E-07
DEBUG_STATS_RL:               GsNm1 (DYNAMICS) mean= -3.84225116378815E-10
DEBUG_STATS_RL:               GsNm1 (DYNAMICS) S.D.=  2.20485868125224E-08
DEBUG_STATS_RL:    cg2d_b (SOLVE_FOR_PRESSURE)  min= -2.20218758812083E+04
DEBUG_STATS_RL:    cg2d_b (SOLVE_FOR_PRESSURE)  max=  1.62779612324888E+04
DEBUG_STATS_RL:    cg2d_b (SOLVE_FOR_PRESSURE) mean=  1.53949544810501E+00
DEBUG_STATS_RL:    cg2d_b (SOLVE_FOR_PRESSURE) S.D.=  3.46553434148097E+03
 cg2d: Sum(rhs),rhsMax =   1.61835984435923E-01  1.44645576981447E+00
(PID.TID 0000.0001)  cg2d: iter=     1 ; resid.=  1.35765215791417E-01
(PID.TID 0000.0001)  cg2d: iter=     2 ; resid.=  7.69268713761358E-02
(PID.TID 0000.0001)  cg2d: iter=     3 ; resid.=  6.95290626849032E-02
(PID.TID 0000.0001)  cg2d: iter=     4 ; resid.=  7.03442449365444E-02
(PID.TID 0000.0001)  cg2d: iter=     5 ; resid.=  6.74553553022644E-02
(PID.TID 0000.0001)  cg2d: iter=     6 ; resid.=  5.95849253041115E-02
(PID.TID 0000.0001)  cg2d: iter=     7 ; resid.=  5.15257770324059E-02
(PID.TID 0000.0001)  cg2d: iter=     8 ; resid.=  3.90812799643985E-02
(PID.TID 0000.0001)  cg2d: iter=     9 ; resid.=  2.95255815499633E-02
(PID.TID 0000.0001)  cg2d: iter=    10 ; resid.=  2.10536263893145E-02
(PID.TID 0000.0001)  cg2d: iter=    11 ; resid.=  1.58463456385836E-02
(PID.TID 0000.0001)  cg2d: iter=    12 ; resid.=  1.27790614251260E-02
(PID.TID 0000.0001)  cg2d: iter=    13 ; resid.=  1.08096082205026E-02
(PID.TID 0000.0001)  cg2d: iter=    14 ; resid.=  8.79908620796641E-03
(PID.TID 0000.0001)  cg2d: iter=    15 ; resid.=  7.42812241388108E-03
(PID.TID 0000.0001)  cg2d: iter=    16 ; resid.=  5.89549852720941E-03
(PID.TID 0000.0001)  cg2d: iter=    17 ; resid.=  5.08885314108018E-03
(PID.TID 0000.0001)  cg2d: iter=    18 ; resid.=  4.63821021656564E-03
(PID.TID 0000.0001)  cg2d: iter=    19 ; resid.=  4.07433419969059E-03
(PID.TID 0000.0001)  cg2d: iter=    20 ; resid.=  3.36244893046704E-03
(PID.TID 0000.0001)  cg2d: iter=    21 ; resid.=  2.64793635606670E-03
(PID.TID 0000.0001)  cg2d: iter=    22 ; resid.=  2.13514775926168E-03
(PID.TID 0000.0001)  cg2d: iter=    23 ; resid.=  1.75488337698894E-03
(PID.TID 0000.0001)  cg2d: iter=    24 ; resid.=  1.60254043651309E-03
(PID.TID 0000.0001)  cg2d: iter=    25 ; resid.=  1.39309438497029E-03
(PID.TID 0000.0001)  cg2d: iter=    26 ; resid.=  1.14460521576417E-03
(PID.TID 0000.0001)  cg2d: iter=    27 ; resid.=  9.25291155129921E-04
(PID.TID 0000.0001)  cg2d: iter=    28 ; resid.=  7.96949598546282E-04
(PID.TID 0000.0001)  cg2d: iter=    29 ; resid.=  6.68804799685495E-04
(PID.TID 0000.0001)  cg2d: iter=    30 ; resid.=  5.58771585798730E-04
(PID.TID 0000.0001)  cg2d: iter=    31 ; resid.=  4.82312412456802E-04
(PID.TID 0000.0001)  cg2d: iter=    32 ; resid.=  4.25919412520584E-04
(PID.TID 0000.0001)  cg2d: iter=    33 ; resid.=  3.31951661946432E-04
(PID.TID 0000.0001)  cg2d: iter=    34 ; resid.=  2.42914215504271E-04
(PID.TID 0000.0001)  cg2d: iter=    35 ; resid.=  1.92232857989603E-04
(PID.TID 0000.0001)  cg2d: iter=    36 ; resid.=  1.62554311554209E-04
(PID.TID 0000.0001)  cg2d: iter=    37 ; resid.=  1.43857374749256E-04
(PID.TID 0000.0001)  cg2d: iter=    38 ; resid.=  1.32577775293751E-04
(PID.TID 0000.0001)  cg2d: iter=    39 ; resid.=  1.19233686556252E-04
(PID.TID 0000.0001)  cg2d: iter=    40 ; resid.=  1.07029381808736E-04
(PID.TID 0000.0001)  cg2d: iter=    41 ; resid.=  8.29681905017751E-05
(PID.TID 0000.0001)  cg2d: iter=    42 ; resid.=  6.62051263795123E-05
(PID.TID 0000.0001)  cg2d: iter=    43 ; resid.=  5.56325245522495E-05
(PID.TID 0000.0001)  cg2d: iter=    44 ; resid.=  4.80460566996491E-05
(PID.TID 0000.0001)  cg2d: iter=    45 ; resid.=  3.84581192398614E-05
(PID.TID 0000.0001)  cg2d: iter=    46 ; resid.=  3.11251140688975E-05
(PID.TID 0000.0001)  cg2d: iter=    47 ; resid.=  2.47344954230118E-05
(PID.TID 0000.0001)  cg2d: iter=    48 ; resid.=  2.19122511560301E-05
(PID.TID 0000.0001)  cg2d: iter=    49 ; resid.=  1.85337204746300E-05
(PID.TID 0000.0001)  cg2d: iter=    50 ; resid.=  1.57919175091324E-05
(PID.TID 0000.0001)  cg2d: iter=    51 ; resid.=  1.28498190949964E-05
(PID.TID 0000.0001)  cg2d: iter=    52 ; resid.=  1.07781842280828E-05
(PID.TID 0000.0001)  cg2d: iter=    53 ; resid.=  9.32222618742759E-06
(PID.TID 0000.0001)  cg2d: iter=    54 ; resid.=  8.21745416858220E-06
(PID.TID 0000.0001)  cg2d: iter=    55 ; resid.=  7.20333667650725E-06
(PID.TID 0000.0001)  cg2d: iter=    56 ; resid.=  5.84809750316653E-06
(PID.TID 0000.0001)  cg2d: iter=    57 ; resid.=  4.41499947367380E-06
(PID.TID 0000.0001)  cg2d: iter=    58 ; resid.=  3.41071671836437E-06
(PID.TID 0000.0001)  cg2d: iter=    59 ; resid.=  2.69170280267911E-06
(PID.TID 0000.0001)  cg2d: iter=    60 ; resid.=  2.16895651231138E-06
(PID.TID 0000.0001)  cg2d: iter=    61 ; resid.=  1.97054882785787E-06
(PID.TID 0000.0001)  cg2d: iter=    62 ; resid.=  1.65226902586466E-06
(PID.TID 0000.0001)  cg2d: iter=    63 ; resid.=  1.37142697388418E-06
(PID.TID 0000.0001)  cg2d: iter=    64 ; resid.=  1.07112773287411E-06
(PID.TID 0000.0001)  cg2d: iter=    65 ; resid.=  8.62080557835382E-07
(PID.TID 0000.0001)  cg2d: iter=    66 ; resid.=  6.41921602549822E-07
(PID.TID 0000.0001)  cg2d: iter=    67 ; resid.=  4.70850388013040E-07
(PID.TID 0000.0001)  cg2d: iter=    68 ; resid.=  3.71759035283077E-07
(PID.TID 0000.0001)  cg2d: iter=    69 ; resid.=  3.11124306623561E-07
(PID.TID 0000.0001)  cg2d: iter=    70 ; resid.=  2.70454685352157E-07
(PID.TID 0000.0001)  cg2d: iter=    71 ; resid.=  2.45989916796400E-07
(PID.TID 0000.0001)  cg2d: iter=    72 ; resid.=  2.17569516472193E-07
(PID.TID 0000.0001)  cg2d: iter=    73 ; resid.=  2.01085898658576E-07
(PID.TID 0000.0001)  cg2d: iter=    74 ; resid.=  1.68759370542802E-07
(PID.TID 0000.0001)  cg2d: iter=    75 ; resid.=  1.36955815839605E-07
(PID.TID 0000.0001)  cg2d: iter=    76 ; resid.=  1.12696519544801E-07
(PID.TID 0000.0001)  cg2d: iter=    77 ; resid.=  9.76816179581077E-08
(PID.TID 0000.0001)  cg2d: iter=    78 ; resid.=  7.47552096568087E-08
(PID.TID 0000.0001)  cg2d: iter=    79 ; resid.=  5.82443636837271E-08
(PID.TID 0000.0001)  cg2d: iter=    80 ; resid.=  4.73797831859753E-08
(PID.TID 0000.0001)  cg2d: iter=    81 ; resid.=  3.98343267252670E-08
(PID.TID 0000.0001)  cg2d: iter=    82 ; resid.=  3.38009986747506E-08
(PID.TID 0000.0001)  cg2d: iter=    83 ; resid.=  2.76152418340361E-08
(PID.TID 0000.0001)  cg2d: iter=    84 ; resid.=  2.18324192991353E-08
(PID.TID 0000.0001)  cg2d: iter=    85 ; resid.=  1.64212824686067E-08
(PID.TID 0000.0001)  cg2d: iter=    86 ; resid.=  1.23225371858031E-08
(PID.TID 0000.0001)  cg2d: iter=    87 ; resid.=  1.02543155209299E-08
(PID.TID 0000.0001)  cg2d: iter=    88 ; resid.=  7.69619907489351E-09
(PID.TID 0000.0001)  cg2d: iter=    89 ; resid.=  6.02081391077547E-09
(PID.TID 0000.0001)  cg2d: iter=    90 ; resid.=  4.69701677562718E-09
(PID.TID 0000.0001)  cg2d: iter=    91 ; resid.=  3.61958050060234E-09
(PID.TID 0000.0001)  cg2d: iter=    92 ; resid.=  2.74486934809427E-09
(PID.TID 0000.0001)  cg2d: iter=    93 ; resid.=  1.97356443838649E-09
(PID.TID 0000.0001)  cg2d: iter=    94 ; resid.=  1.54190550493609E-09
(PID.TID 0000.0001)  cg2d: iter=    95 ; resid.=  1.26327809907758E-09
(PID.TID 0000.0001)  cg2d: iter=    96 ; resid.=  9.65597327308693E-10
(PID.TID 0000.0001)  cg2d: iter=    97 ; resid.=  7.55601834676660E-10
(PID.TID 0000.0001)  cg2d: iter=    98 ; resid.=  6.76670204323655E-10
(PID.TID 0000.0001)  cg2d: iter=    99 ; resid.=  6.60842466822307E-10
(PID.TID 0000.0001)  cg2d: iter=   100 ; resid.=  6.01952025951156E-10
(PID.TID 0000.0001)  cg2d: iter=   101 ; resid.=  5.05384567428272E-10
(PID.TID 0000.0001)  cg2d: iter=   102 ; resid.=  4.02838638942393E-10
(PID.TID 0000.0001)  cg2d: iter=   103 ; resid.=  3.09099948388363E-10
(PID.TID 0000.0001)  cg2d: iter=   104 ; resid.=  2.20467710766049E-10
(PID.TID 0000.0001)  cg2d: iter=   105 ; resid.=  1.50206302955231E-10
(PID.TID 0000.0001)  cg2d: iter=   106 ; resid.=  1.04198807883002E-10
(PID.TID 0000.0001)  cg2d: iter=   107 ; resid.=  7.76452015809373E-11
(PID.TID 0000.0001)  cg2d: iter=   108 ; resid.=  5.63555476573510E-11
(PID.TID 0000.0001)  cg2d: iter=   109 ; resid.=  4.51914491727052E-11
(PID.TID 0000.0001)  cg2d: iter=   110 ; resid.=  3.70591235161709E-11
(PID.TID 0000.0001)  cg2d: iter=   111 ; resid.=  2.98318527169997E-11
(PID.TID 0000.0001)  cg2d: iter=   112 ; resid.=  2.36565832667323E-11
(PID.TID 0000.0001)  cg2d: iter=   113 ; resid.=  1.76288988681737E-11
(PID.TID 0000.0001)  cg2d: iter=   114 ; resid.=  1.23081677826542E-11
(PID.TID 0000.0001)  cg2d: iter=   115 ; resid.=  9.49888148734878E-12
(PID.TID 0000.0001)  cg2d: iter=   116 ; resid.=  7.68693196086707E-12
(PID.TID 0000.0001)  cg2d: iter=   117 ; resid.=  6.50688610959604E-12
(PID.TID 0000.0001)  cg2d: iter=   118 ; resid.=  5.14536441754493E-12
(PID.TID 0000.0001)  cg2d: iter=   119 ; resid.=  3.64231504249098E-12
(PID.TID 0000.0001)  cg2d: iter=   120 ; resid.=  2.64600456147922E-12
(PID.TID 0000.0001)  cg2d: iter=   121 ; resid.=  1.92168962791456E-12
(PID.TID 0000.0001)  cg2d: iter=   122 ; resid.=  1.34762086509196E-12
(PID.TID 0000.0001)  cg2d: iter=   123 ; resid.=  1.02857199231952E-12
(PID.TID 0000.0001)  cg2d: iter=   124 ; resid.=  7.45281774592999E-13
(PID.TID 0000.0001)  cg2d: iter=   125 ; resid.=  5.28364368984492E-13
(PID.TID 0000.0001)  cg2d: iter=   126 ; resid.=  3.90167262734372E-13
(PID.TID 0000.0001)  cg2d: iter=   127 ; resid.=  2.96718971390013E-13
(PID.TID 0000.0001)  cg2d: iter=   128 ; resid.=  2.06852188777638E-13
(PID.TID 0000.0001)  cg2d: iter=   129 ; resid.=  1.43659258376436E-13
(PID.TID 0000.0001)  cg2d: iter=   130 ; resid.=  1.05816326770355E-13
(PID.TID 0000.0001)  cg2d: iter=   131 ; resid.=  8.12603883695052E-14
DEBUG_STATS_RL:    cg2d_x (SOLVE_FOR_PRESSURE)  min= -1.61984139564045E+01
DEBUG_STATS_RL:    cg2d_x (SOLVE_FOR_PRESSURE)  max=  9.24156011617454E+00
DEBUG_STATS_RL:    cg2d_x (SOLVE_FOR_PRESSURE) mean= -1.67092389966559E+00
DEBUG_STATS_RL:    cg2d_x (SOLVE_FOR_PRESSURE) S.D.=  6.45843555657853E+00
(PID.TID 0000.0001)      cg2d_init_res =   4.74065849342330E-01
(PID.TID 0000.0001)      cg2d_iters(min,last) =      -1     131
(PID.TID 0000.0001)      cg2d_last_res =   8.12603883695052E-14
(PID.TID 0000.0001) // =======================================================
(PID.TID 0000.0001) // Begin MONITOR dynamic field statistics
(PID.TID 0000.0001) // =======================================================
(PID.TID 0000.0001) %MON time_tsnumber                =                    22
(PID.TID 0000.0001) %MON time_secondsf                =   1.9008000000000E+06
(PID.TID 0000.0001) %MON dynstat_eta_max              =   9.4205505771398E-01
(PID.TID 0000.0001) %MON dynstat_eta_min              =  -1.6512144705816E+00
(PID.TID 0000.0001) %MON dynstat_eta_mean             =  -1.6062726089638E-03
(PID.TID 0000.0001) %MON dynstat_eta_sd               =   5.7870388173789E-01
(PID.TID 0000.0001) %MON dynstat_eta_del2             =   1.9044746379332E-03
(PID.TID 0000.0001) %MON dynstat_uvel_max             =   1.5497709742209E-01
(PID.TID 0000.0001) %MON dynstat_uvel_min             =  -1.4668181403234E-01
(PID.TID 0000.0001) %MON dynstat_uvel_mean            =   9.5280762767309E-04
(PID.TID 0000.0001) %MON dynstat_uvel_sd              =   1.3069888354592E-02
(PID.TID 0000.0001) %MON dynstat_uvel_del2            =   8.6683174959297E-05
(PID.TID 0000.0001) %MON dynstat_vvel_max             =   1.5292356275723E-01
(PID.TID 0000.0001) %MON dynstat_vvel_min             =  -1.2825407023493E-01
(PID.TID 0000.0001) %MON dynstat_vvel_mean            =   2.8496036499676E-05
(PID.TID 0000.0001) %MON dynstat_vvel_sd              =   9.8632446981108E-03
(PID.TID 0000.0001) %MON dynstat_vvel_del2            =   8.6935165822208E-05
(PID.TID 0000.0001) %MON dynstat_wvel_max             =   1.2134300959131E-04
(PID.TID 0000.0001) %MON dynstat_wvel_min             =  -1.4886292018474E-04
(PID.TID 0000.0001) %MON dynstat_wvel_mean            =   1.3484191918667E-11
(PID.TID 0000.0001) %MON dynstat_wvel_sd              =   1.7312146935387E-05
(PID.TID 0000.0001) %MON dynstat_wvel_del2            =   1.9507601640710E-07
(PID.TID 0000.0001) %MON dynstat_theta_max            =   2.9704117716670E+01
(PID.TID 0000.0001) %MON dynstat_theta_min            =  -1.9875218502603E+00
(PID.TID 0000.0001) %MON dynstat_theta_mean           =   3.6191738047551E+00
(PID.TID 0000.0001) %MON dynstat_theta_sd             =   4.4144162653570E+00
(PID.TID 0000.0001) %MON dynstat_theta_del2           =   4.8148879791741E-03
(PID.TID 0000.0001) %MON dynstat_salt_max             =   3.7444661072478E+01
(PID.TID 0000.0001) %MON dynstat_salt_min             =   2.9775185469262E+01
(PID.TID 0000.0001) %MON dynstat_salt_mean            =   3.4717282396524E+01
(PID.TID 0000.0001) %MON dynstat_salt_sd              =   2.9619157875846E-01
(PID.TID 0000.0001) %MON dynstat_salt_del2            =   1.0058670576221E-03
(PID.TID 0000.0001) %MON dynstat_sst_max              =   2.9704117716670E+01
(PID.TID 0000.0001) %MON dynstat_sst_min              =  -1.9875218502603E+00
(PID.TID 0000.0001) %MON dynstat_sst_mean             =   1.8630160985025E+01
(PID.TID 0000.0001) %MON dynstat_sst_sd               =   9.0861730285701E+00
(PID.TID 0000.0001) %MON dynstat_sst_del2             =   2.5685043195648E-02
(PID.TID 0000.0001) %MON dynstat_sss_max              =   3.7429322290519E+01
(PID.TID 0000.0001) %MON dynstat_sss_min              =   2.9775185469262E+01
(PID.TID 0000.0001) %MON dynstat_sss_mean             =   3.4850729579695E+01
(PID.TID 0000.0001) %MON dynstat_sss_sd               =   9.7232155082180E-01
(PID.TID 0000.0001) %MON dynstat_sss_del2             =   7.9149767063893E-03
(PID.TID 0000.0001) %MON forcing_qnet_max             =   4.2169909667969E+02
(PID.TID 0000.0001) %MON forcing_qnet_min             =  -1.7858243103027E+02
(PID.TID 0000.0001) %MON forcing_qnet_mean            =  -1.6003070996624E+01
(PID.TID 0000.0001) %MON forcing_qnet_sd              =   1.0345568885738E+02
(PID.TID 0000.0001) %MON forcing_qnet_del2            =   1.0009668564957E+00
(PID.TID 0000.0001) %MON forcing_qsw_max              =   0.0000000000000E+00
(PID.TID 0000.0001) %MON forcing_qsw_min              =   0.0000000000000E+00
(PID.TID 0000.0001) %MON forcing_qsw_mean             =   0.0000000000000E+00
(PID.TID 0000.0001) %MON forcing_qsw_sd               =   0.0000000000000E+00
(PID.TID 0000.0001) %MON forcing_qsw_del2             =   0.0000000000000E+00
(PID.TID 0000.0001) %MON forcing_empmr_max            =   8.0289700576941E-05
(PID.TID 0000.0001) %MON forcing_empmr_min            =  -7.6633821777250E-05
(PID.TID 0000.0001) %MON forcing_empmr_mean           =   9.2703144567037E-07
(PID.TID 0000.0001) %MON forcing_empmr_sd             =   2.8506708365835E-05
(PID.TID 0000.0001) %MON forcing_empmr_del2           =   3.6098786833147E-07
(PID.TID 0000.0001) %MON forcing_fu_max               =   2.7760242819786E-01
(PID.TID 0000.0001) %MON forcing_fu_min               =  -1.7589417994022E-01
(PID.TID 0000.0001) %MON forcing_fu_mean              =   1.6327536445380E-02
(PID.TID 0000.0001) %MON forcing_fu_sd                =   9.0202228865328E-02
(PID.TID 0000.0001) %MON forcing_fu_del2              =   6.8655513835804E-04
(PID.TID 0000.0001) %MON forcing_fv_max               =   2.1387063860893E-01
(PID.TID 0000.0001) %MON forcing_fv_min               =  -1.7218910157681E-01
(PID.TID 0000.0001) %MON forcing_fv_mean              =  -5.6504631797962E-03
(PID.TID 0000.0001) %MON forcing_fv_sd                =   4.6529078937274E-02
(PID.TID 0000.0001) %MON forcing_fv_del2              =   4.7274716093950E-04
(PID.TID 0000.0001) %MON trAdv_CFL_u_max              =   4.3231938336370E-02
(PID.TID 0000.0001) %MON trAdv_CFL_v_max              =   3.0316112823076E-02
(PID.TID 0000.0001) %MON trAdv_CFL_w_max              =   5.2934784685317E-02
(PID.TID 0000.0001) %MON advcfl_uvel_max              =   4.0516415459063E-02
(PID.TID 0000.0001) %MON advcfl_vvel_max              =   2.9710595644649E-02
(PID.TID 0000.0001) %MON advcfl_wvel_max              =   4.4640997379823E-02
(PID.TID 0000.0001) %MON advcfl_W_hf_max              =   4.9291101273554E-02
(PID.TID 0000.0001) %MON pe_b_mean                    =   4.2854589260380E-04
(PID.TID 0000.0001) %MON ke_max                       =   1.4052727051308E-02
(PID.TID 0000.0001) %MON ke_mean                      =   1.2169469341522E-04
(PID.TID 0000.0001) %MON ke_vol                       =   1.3226782436723E+18
(PID.TID 0000.0001) %MON vort_r_min                   =  -2.2630802559817E-07
(PID.TID 0000.0001) %MON vort_r_max                   =   3.8514363494140E-07
(PID.TID 0000.0001) %MON vort_a_mean                  =  -2.5274807138276E-05
(PID.TID 0000.0001) %MON vort_a_sd                    =   7.3604473782794E-05
(PID.TID 0000.0001) %MON vort_p_mean                  =  -3.1845655472918E-05
(PID.TID 0000.0001) %MON vort_p_sd                    =   1.3162474394448E-04
(PID.TID 0000.0001) %MON surfExpan_theta_mean         =   1.4500891060142E-08
(PID.TID 0000.0001) %MON surfExpan_salt_mean          =   8.4632506312589E-08
(PID.TID 0000.0001) // =======================================================
(PID.TID 0000.0001) // End MONITOR dynamic field statistics
(PID.TID 0000.0001) // =======================================================
 EXTERNAL_FIELDS_LOAD,        22 : iP,iLd,i0,i1=    1    2    1    2 ; Wght=  0.7666666667  0.2333333333
 EXTERNAL_FIELDS_LOAD: (fu0,1),fu,fv= -3.5633E-02 -1.4435E-02 -3.0687E-02 -4.8012E-02
 EXTERNAL_FIELDS_LOAD: SST,SSS,Q,E-P=  6.1069E-01  3.4646E+01  2.5987E+02  1.0876E-05
DEBUG_STATS_RL:          Uvel (THERMODYNAMICS)  min= -1.46681814032339E-01
DEBUG_STATS_RL:          Uvel (THERMODYNAMICS)  max=  1.54977097422089E-01
DEBUG_STATS_RL:          Uvel (THERMODYNAMICS) mean=  4.14194095055625E-03
DEBUG_STATS_RL:          Uvel (THERMODYNAMICS) S.D.=  2.11020682410641E-02
DEBUG_STATS_RL:          Vvel (THERMODYNAMICS)  min= -1.28254070234931E-01
DEBUG_STATS_RL:          Vvel (THERMODYNAMICS)  max=  1.52923562757228E-01
DEBUG_STATS_RL:          Vvel (THERMODYNAMICS) mean=  1.99702817972857E-03
DEBUG_STATS_RL:          Vvel (THERMODYNAMICS) S.D.=  1.65705643332693E-02
DEBUG_STATS_RL:          Wvel (THERMODYNAMICS)  min= -1.48862920184737E-04
DEBUG_STATS_RL:          Wvel (THERMODYNAMICS)  max=  1.21343009591312E-04
DEBUG_STATS_RL:          Wvel (THERMODYNAMICS) mean=  4.73508594216191E-07
DEBUG_STATS_RL:          Wvel (THERMODYNAMICS) S.D.=  1.58299260283022E-05
DEBUG_STATS_RL:         Theta (THERMODYNAMICS)  min= -1.98649798356349E+00
DEBUG_STATS_RL:         Theta (THERMODYNAMICS)  max=  2.97110685229067E+01
DEBUG_STATS_RL:         Theta (THERMODYNAMICS) mean=  3.20550653516438E+00
DEBUG_STATS_RL:         Theta (THERMODYNAMICS) S.D.=  5.85336510466290E+00
DEBUG_STATS_RL:          Salt (THERMODYNAMICS)  min= -6.85830501234083E-04
DEBUG_STATS_RL:          Salt (THERMODYNAMICS)  max=  3.74458517003027E+01
DEBUG_STATS_RL:          Salt (THERMODYNAMICS) mean=  1.88444314276344E+01
DEBUG_STATS_RL:          Salt (THERMODYNAMICS) S.D.=  1.73006041194905E+01
DEBUG_STATS_RL:         GtNm1 (THERMODYNAMICS)  min= -3.71572010527003E-06
DEBUG_STATS_RL:         GtNm1 (THERMODYNAMICS)  max=  2.53332631416029E-06
DEBUG_STATS_RL:         GtNm1 (THERMODYNAMICS) mean= -3.28871721718436E-09
DEBUG_STATS_RL:         GtNm1 (THERMODYNAMICS) S.D.=  2.15267967188714E-07
DEBUG_STATS_RL:         GsNm1 (THERMODYNAMICS)  min= -8.08052830916486E-07
DEBUG_STATS_RL:         GsNm1 (THERMODYNAMICS)  max=  4.79733046148679E-07
DEBUG_STATS_RL:         GsNm1 (THERMODYNAMICS) mean= -4.47802704590786E-10
DEBUG_STATS_RL:         GsNm1 (THERMODYNAMICS) S.D.=  2.14129810887295E-08
DEBUG_STATS_RL:                EtaN (DYNAMICS)  min= -1.65121447058156E+00
DEBUG_STATS_RL:                EtaN (DYNAMICS)  max=  9.42055057713977E-01
DEBUG_STATS_RL:                EtaN (DYNAMICS) mean= -1.70328634012802E-01
DEBUG_STATS_RL:                EtaN (DYNAMICS) S.D.=  6.58352248377015E-01
DEBUG_STATS_RL:                Uvel (DYNAMICS)  min= -1.46681814032339E-01
DEBUG_STATS_RL:                Uvel (DYNAMICS)  max=  1.54977097422089E-01
DEBUG_STATS_RL:                Uvel (DYNAMICS) mean=  4.14194095055625E-03
DEBUG_STATS_RL:                Uvel (DYNAMICS) S.D.=  2.11020682410641E-02
DEBUG_STATS_RL:                Vvel (DYNAMICS)  min= -1.28254070234931E-01
DEBUG_STATS_RL:                Vvel (DYNAMICS)  max=  1.52923562757228E-01
DEBUG_STATS_RL:                Vvel (DYNAMICS) mean=  1.99702817972857E-03
DEBUG_STATS_RL:                Vvel (DYNAMICS) S.D.=  1.65705643332693E-02
DEBUG_STATS_RL:                Wvel (DYNAMICS)  min= -1.48862920184737E-04
DEBUG_STATS_RL:                Wvel (DYNAMICS)  max=  1.21343009591312E-04
DEBUG_STATS_RL:                Wvel (DYNAMICS) mean=  4.73508594216191E-07
DEBUG_STATS_RL:                Wvel (DYNAMICS) S.D.=  1.58299260283022E-05
DEBUG_STATS_RL:               Theta (DYNAMICS)  min= -1.98649798356349E+00
DEBUG_STATS_RL:               Theta (DYNAMICS)  max=  2.97110685229067E+01
DEBUG_STATS_RL:               Theta (DYNAMICS) mean=  3.20550653516438E+00
DEBUG_STATS_RL:               Theta (DYNAMICS) S.D.=  5.85336510466290E+00
DEBUG_STATS_RL:                Salt (DYNAMICS)  min= -6.85830501234083E-04
DEBUG_STATS_RL:                Salt (DYNAMICS)  max=  3.74458517003027E+01
DEBUG_STATS_RL:                Salt (DYNAMICS) mean=  1.88444314276344E+01
DEBUG_STATS_RL:                Salt (DYNAMICS) S.D.=  1.73006041194905E+01
DEBUG_STATS_RL:                  Gu (DYNAMICS)  min= -1.52204226722109E-01
DEBUG_STATS_RL:                  Gu (DYNAMICS)  max=  1.54401893934316E-01
DEBUG_STATS_RL:                  Gu (DYNAMICS) mean=  3.64798247451188E-03
DEBUG_STATS_RL:                  Gu (DYNAMICS) S.D.=  2.04616364700568E-02
DEBUG_STATS_RL:                  Gv (DYNAMICS)  min= -1.43197401186041E-01
DEBUG_STATS_RL:                  Gv (DYNAMICS)  max=  1.71402726583546E-01
DEBUG_STATS_RL:                  Gv (DYNAMICS) mean=  4.12154857992308E-03
DEBUG_STATS_RL:                  Gv (DYNAMICS) S.D.=  1.84212953491903E-02
DEBUG_STATS_RL:               GuNm1 (DYNAMICS)  min= -7.66214020582453E-06
DEBUG_STATS_RL:               GuNm1 (DYNAMICS)  max=  7.78528107265192E-06
DEBUG_STATS_RL:               GuNm1 (DYNAMICS) mean= -1.20651436168888E-08
DEBUG_STATS_RL:               GuNm1 (DYNAMICS) S.D.=  1.16476864015597E-06
DEBUG_STATS_RL:               GvNm1 (DYNAMICS)  min= -9.85738399401943E-06
DEBUG_STATS_RL:               GvNm1 (DYNAMICS)  max=  1.70659589498894E-05
DEBUG_STATS_RL:               GvNm1 (DYNAMICS) mean=  7.70217160663560E-07
DEBUG_STATS_RL:               GvNm1 (DYNAMICS) S.D.=  2.60513323963826E-06
DEBUG_STATS_RL:               GtNm1 (DYNAMICS)  min= -3.71572010527003E-06
DEBUG_STATS_RL:               GtNm1 (DYNAMICS)  max=  2.53332631416029E-06
DEBUG_STATS_RL:               GtNm1 (DYNAMICS) mean= -3.28871721718436E-09
DEBUG_STATS_RL:               GtNm1 (DYNAMICS) S.D.=  2.15267967188714E-07
DEBUG_STATS_RL:               GsNm1 (DYNAMICS)  min= -8.08052830916486E-07
DEBUG_STATS_RL:               GsNm1 (DYNAMICS)  max=  4.79733046148679E-07
DEBUG_STATS_RL:               GsNm1 (DYNAMICS) mean= -4.47802704590786E-10
DEBUG_STATS_RL:               GsNm1 (DYNAMICS) S.D.=  2.14129810887295E-08
DEBUG_STATS_RL:    cg2d_b (SOLVE_FOR_PRESSURE)  min= -2.24184850776788E+04
DEBUG_STATS_RL:    cg2d_b (SOLVE_FOR_PRESSURE)  max=  1.69277292068148E+04
DEBUG_STATS_RL:    cg2d_b (SOLVE_FOR_PRESSURE) mean=  1.61371982923766E+00
DEBUG_STATS_RL:    cg2d_b (SOLVE_FOR_PRESSURE) S.D.=  3.53313568378174E+03
 cg2d: Sum(rhs),rhsMax =   1.66637548957483E-01  1.47250612373031E+00
(PID.TID 0000.0001)  cg2d: iter=     1 ; resid.=  1.27186367800007E-01
(PID.TID 0000.0001)  cg2d: iter=     2 ; resid.=  7.39340995623819E-02
(PID.TID 0000.0001)  cg2d: iter=     3 ; resid.=  6.85593110737358E-02
(PID.TID 0000.0001)  cg2d: iter=     4 ; resid.=  6.89754012782618E-02
(PID.TID 0000.0001)  cg2d: iter=     5 ; resid.=  6.25648604111845E-02
(PID.TID 0000.0001)  cg2d: iter=     6 ; resid.=  5.54454975079156E-02
(PID.TID 0000.0001)  cg2d: iter=     7 ; resid.=  4.80256043690026E-02
(PID.TID 0000.0001)  cg2d: iter=     8 ; resid.=  3.76169807549133E-02
(PID.TID 0000.0001)  cg2d: iter=     9 ; resid.=  2.90604472735610E-02
(PID.TID 0000.0001)  cg2d: iter=    10 ; resid.=  2.14854160423818E-02
(PID.TID 0000.0001)  cg2d: iter=    11 ; resid.=  1.64508395389213E-02
(PID.TID 0000.0001)  cg2d: iter=    12 ; resid.=  1.32271741355186E-02
(PID.TID 0000.0001)  cg2d: iter=    13 ; resid.=  1.07942801010191E-02
(PID.TID 0000.0001)  cg2d: iter=    14 ; resid.=  8.43341084117178E-03
(PID.TID 0000.0001)  cg2d: iter=    15 ; resid.=  6.86629694538639E-03
(PID.TID 0000.0001)  cg2d: iter=    16 ; resid.=  5.30371675305543E-03
(PID.TID 0000.0001)  cg2d: iter=    17 ; resid.=  4.54785746670822E-03
(PID.TID 0000.0001)  cg2d: iter=    18 ; resid.=  4.22957468868782E-03
(PID.TID 0000.0001)  cg2d: iter=    19 ; resid.=  3.71828038257308E-03
(PID.TID 0000.0001)  cg2d: iter=    20 ; resid.=  2.98832491149294E-03
(PID.TID 0000.0001)  cg2d: iter=    21 ; resid.=  2.26780481302243E-03
(PID.TID 0000.0001)  cg2d: iter=    22 ; resid.=  1.80074845149754E-03
(PID.TID 0000.0001)  cg2d: iter=    23 ; resid.=  1.47997756090039E-03
(PID.TID 0000.0001)  cg2d: iter=    24 ; resid.=  1.36020202779465E-03
(PID.TID 0000.0001)  cg2d: iter=    25 ; resid.=  1.15750274251697E-03
(PID.TID 0000.0001)  cg2d: iter=    26 ; resid.=  9.14701569000974E-04
(PID.TID 0000.0001)  cg2d: iter=    27 ; resid.=  7.24183833688173E-04
(PID.TID 0000.0001)  cg2d: iter=    28 ; resid.=  6.20428682998525E-04
(PID.TID 0000.0001)  cg2d: iter=    29 ; resid.=  5.19065520431381E-04
(PID.TID 0000.0001)  cg2d: iter=    30 ; resid.=  4.31681257665900E-04
(PID.TID 0000.0001)  cg2d: iter=    31 ; resid.=  3.69952922004981E-04
(PID.TID 0000.0001)  cg2d: iter=    32 ; resid.=  3.23951550773351E-04
(PID.TID 0000.0001)  cg2d: iter=    33 ; resid.=  2.52160602384292E-04
(PID.TID 0000.0001)  cg2d: iter=    34 ; resid.=  1.80007119810366E-04
(PID.TID 0000.0001)  cg2d: iter=    35 ; resid.=  1.39174310939651E-04
(PID.TID 0000.0001)  cg2d: iter=    36 ; resid.=  1.13692793852749E-04
(PID.TID 0000.0001)  cg2d: iter=    37 ; resid.=  9.52390098934364E-05
(PID.TID 0000.0001)  cg2d: iter=    38 ; resid.=  7.93192441132213E-05
(PID.TID 0000.0001)  cg2d: iter=    39 ; resid.=  6.80249415652687E-05
(PID.TID 0000.0001)  cg2d: iter=    40 ; resid.=  6.03983245585940E-05
(PID.TID 0000.0001)  cg2d: iter=    41 ; resid.=  4.87780779840505E-05
(PID.TID 0000.0001)  cg2d: iter=    42 ; resid.=  4.03069779929234E-05
(PID.TID 0000.0001)  cg2d: iter=    43 ; resid.=  3.57012838857885E-05
(PID.TID 0000.0001)  cg2d: iter=    44 ; resid.=  3.08722935064054E-05
(PID.TID 0000.0001)  cg2d: iter=    45 ; resid.=  2.44935510857336E-05
(PID.TID 0000.0001)  cg2d: iter=    46 ; resid.=  1.89301152325517E-05
(PID.TID 0000.0001)  cg2d: iter=    47 ; resid.=  1.47645520890561E-05
(PID.TID 0000.0001)  cg2d: iter=    48 ; resid.=  1.27172871795623E-05
(PID.TID 0000.0001)  cg2d: iter=    49 ; resid.=  1.08572769353460E-05
(PID.TID 0000.0001)  cg2d: iter=    50 ; resid.=  9.19682408952391E-06
(PID.TID 0000.0001)  cg2d: iter=    51 ; resid.=  7.36441846975095E-06
(PID.TID 0000.0001)  cg2d: iter=    52 ; resid.=  6.01911327413939E-06
(PID.TID 0000.0001)  cg2d: iter=    53 ; resid.=  5.23828169101980E-06
(PID.TID 0000.0001)  cg2d: iter=    54 ; resid.=  4.89505028611584E-06
(PID.TID 0000.0001)  cg2d: iter=    55 ; resid.=  4.67418136586415E-06
(PID.TID 0000.0001)  cg2d: iter=    56 ; resid.=  4.08906217272319E-06
(PID.TID 0000.0001)  cg2d: iter=    57 ; resid.=  3.19412662302250E-06
(PID.TID 0000.0001)  cg2d: iter=    58 ; resid.=  2.53198028051138E-06
(PID.TID 0000.0001)  cg2d: iter=    59 ; resid.=  2.05585649218445E-06
(PID.TID 0000.0001)  cg2d: iter=    60 ; resid.=  1.69386489530754E-06
(PID.TID 0000.0001)  cg2d: iter=    61 ; resid.=  1.55639109675682E-06
(PID.TID 0000.0001)  cg2d: iter=    62 ; resid.=  1.31792368647920E-06
(PID.TID 0000.0001)  cg2d: iter=    63 ; resid.=  1.08706290026641E-06
(PID.TID 0000.0001)  cg2d: iter=    64 ; resid.=  8.52173124533261E-07
(PID.TID 0000.0001)  cg2d: iter=    65 ; resid.=  6.99782063168819E-07
(PID.TID 0000.0001)  cg2d: iter=    66 ; resid.=  5.46846456571312E-07
(PID.TID 0000.0001)  cg2d: iter=    67 ; resid.=  4.12078883291166E-07
(PID.TID 0000.0001)  cg2d: iter=    68 ; resid.=  3.29831422349332E-07
(PID.TID 0000.0001)  cg2d: iter=    69 ; resid.=  2.53961483410122E-07
(PID.TID 0000.0001)  cg2d: iter=    70 ; resid.=  1.99317923769798E-07
(PID.TID 0000.0001)  cg2d: iter=    71 ; resid.=  1.63897775358443E-07
(PID.TID 0000.0001)  cg2d: iter=    72 ; resid.=  1.39606054393587E-07
(PID.TID 0000.0001)  cg2d: iter=    73 ; resid.=  1.37454137577945E-07
(PID.TID 0000.0001)  cg2d: iter=    74 ; resid.=  1.31443326805006E-07
(PID.TID 0000.0001)  cg2d: iter=    75 ; resid.=  1.16588719936804E-07
(PID.TID 0000.0001)  cg2d: iter=    76 ; resid.=  9.72385298647497E-08
(PID.TID 0000.0001)  cg2d: iter=    77 ; resid.=  8.23507880111515E-08
(PID.TID 0000.0001)  cg2d: iter=    78 ; resid.=  6.20454345578587E-08
(PID.TID 0000.0001)  cg2d: iter=    79 ; resid.=  4.79187659469502E-08
(PID.TID 0000.0001)  cg2d: iter=    80 ; resid.=  3.92576583589532E-08
(PID.TID 0000.0001)  cg2d: iter=    81 ; resid.=  3.35708190545079E-08
(PID.TID 0000.0001)  cg2d: iter=    82 ; resid.=  2.97080211776701E-08
(PID.TID 0000.0001)  cg2d: iter=    83 ; resid.=  2.48139391046469E-08
(PID.TID 0000.0001)  cg2d: iter=    84 ; resid.=  1.91119278913569E-08
(PID.TID 0000.0001)  cg2d: iter=    85 ; resid.=  1.42343292635890E-08
(PID.TID 0000.0001)  cg2d: iter=    86 ; resid.=  1.10287227042011E-08
(PID.TID 0000.0001)  cg2d: iter=    87 ; resid.=  9.52571435103712E-09
(PID.TID 0000.0001)  cg2d: iter=    88 ; resid.=  7.52983476781300E-09
(PID.TID 0000.0001)  cg2d: iter=    89 ; resid.=  5.84609176422404E-09
(PID.TID 0000.0001)  cg2d: iter=    90 ; resid.=  4.56947174252776E-09
(PID.TID 0000.0001)  cg2d: iter=    91 ; resid.=  3.62897070744367E-09
(PID.TID 0000.0001)  cg2d: iter=    92 ; resid.=  2.88736494652479E-09
(PID.TID 0000.0001)  cg2d: iter=    93 ; resid.=  2.12874638602301E-09
(PID.TID 0000.0001)  cg2d: iter=    94 ; resid.=  1.65371065897639E-09
(PID.TID 0000.0001)  cg2d: iter=    95 ; resid.=  1.31878952517870E-09
(PID.TID 0000.0001)  cg2d: iter=    96 ; resid.=  9.86676742247556E-10
(PID.TID 0000.0001)  cg2d: iter=    97 ; resid.=  7.59496104123323E-10
(PID.TID 0000.0001)  cg2d: iter=    98 ; resid.=  6.89282693485091E-10
(PID.TID 0000.0001)  cg2d: iter=    99 ; resid.=  6.86760371180758E-10
(PID.TID 0000.0001)  cg2d: iter=   100 ; resid.=  6.25530044988580E-10
(PID.TID 0000.0001)  cg2d: iter=   101 ; resid.=  5.18242141474010E-10
(PID.TID 0000.0001)  cg2d: iter=   102 ; resid.=  4.00849363732744E-10
(PID.TID 0000.0001)  cg2d: iter=   103 ; resid.=  3.01398450549287E-10
(PID.TID 0000.0001)  cg2d: iter=   104 ; resid.=  2.15537113123403E-10
(PID.TID 0000.0001)  cg2d: iter=   105 ; resid.=  1.50596705835572E-10
(PID.TID 0000.0001)  cg2d: iter=   106 ; resid.=  1.08689052597846E-10
(PID.TID 0000.0001)  cg2d: iter=   107 ; resid.=  8.64384028186583E-11
(PID.TID 0000.0001)  cg2d: iter=   108 ; resid.=  6.64646513161790E-11
(PID.TID 0000.0001)  cg2d: iter=   109 ; resid.=  5.24334136045192E-11
(PID.TID 0000.0001)  cg2d: iter=   110 ; resid.=  3.96935192257467E-11
(PID.TID 0000.0001)  cg2d: iter=   111 ; resid.=  2.97569746755566E-11
(PID.TID 0000.0001)  cg2d: iter=   112 ; resid.=  2.34090280476159E-11
(PID.TID 0000.0001)  cg2d: iter=   113 ; resid.=  1.86539633080771E-11
(PID.TID 0000.0001)  cg2d: iter=   114 ; resid.=  1.45452192831412E-11
(PID.TID 0000.0001)  cg2d: iter=   115 ; resid.=  1.17294455231040E-11
(PID.TID 0000.0001)  cg2d: iter=   116 ; resid.=  9.29431790850858E-12
(PID.TID 0000.0001)  cg2d: iter=   117 ; resid.=  7.03516372291510E-12
(PID.TID 0000.0001)  cg2d: iter=   118 ; resid.=  5.11491041568637E-12
(PID.TID 0000.0001)  cg2d: iter=   119 ; resid.=  3.47979037198823E-12
(PID.TID 0000.0001)  cg2d: iter=   120 ; resid.=  2.57056985034221E-12
(PID.TID 0000.0001)  cg2d: iter=   121 ; resid.=  1.91313382361393E-12
(PID.TID 0000.0001)  cg2d: iter=   122 ; resid.=  1.40415795311871E-12
(PID.TID 0000.0001)  cg2d: iter=   123 ; resid.=  1.13545121579215E-12
(PID.TID 0000.0001)  cg2d: iter=   124 ; resid.=  8.65834289953964E-13
(PID.TID 0000.0001)  cg2d: iter=   125 ; resid.=  6.40371872086660E-13
(PID.TID 0000.0001)  cg2d: iter=   126 ; resid.=  4.95541412473461E-13
(PID.TID 0000.0001)  cg2d: iter=   127 ; resid.=  3.79069259259578E-13
(PID.TID 0000.0001)  cg2d: iter=   128 ; resid.=  2.62900240649302E-13
(PID.TID 0000.0001)  cg2d: iter=   129 ; resid.=  1.85506777491946E-13
(PID.TID 0000.0001)  cg2d: iter=   130 ; resid.=  1.35225800963201E-13
(PID.TID 0000.0001)  cg2d: iter=   131 ; resid.=  9.95501338248971E-14
DEBUG_STATS_RL:    cg2d_x (SOLVE_FOR_PRESSURE)  min= -1.63214805338585E+01
DEBUG_STATS_RL:    cg2d_x (SOLVE_FOR_PRESSURE)  max=  9.03327078627650E+00
DEBUG_STATS_RL:    cg2d_x (SOLVE_FOR_PRESSURE) mean= -1.66227594765779E+00
DEBUG_STATS_RL:    cg2d_x (SOLVE_FOR_PRESSURE) S.D.=  6.41104559614821E+00
(PID.TID 0000.0001)      cg2d_init_res =   4.57548549606021E-01
(PID.TID 0000.0001)      cg2d_iters(min,last) =      -1     131
(PID.TID 0000.0001)      cg2d_last_res =   9.95501338248971E-14
(PID.TID 0000.0001) // =======================================================
(PID.TID 0000.0001) // Begin MONITOR dynamic field statistics
(PID.TID 0000.0001) // =======================================================
(PID.TID 0000.0001) %MON time_tsnumber                =                    23
(PID.TID 0000.0001) %MON time_secondsf                =   1.9872000000000E+06
(PID.TID 0000.0001) %MON dynstat_eta_max              =   9.2082271012000E-01
(PID.TID 0000.0001) %MON dynstat_eta_min              =  -1.6637594835739E+00
(PID.TID 0000.0001) %MON dynstat_eta_mean             =  -1.6837165471559E-03
(PID.TID 0000.0001) %MON dynstat_eta_sd               =   5.7322408436285E-01
(PID.TID 0000.0001) %MON dynstat_eta_del2             =   1.9448858425681E-03
(PID.TID 0000.0001) %MON dynstat_uvel_max             =   1.4632597577451E-01
(PID.TID 0000.0001) %MON dynstat_uvel_min             =  -1.5123543009815E-01
(PID.TID 0000.0001) %MON dynstat_uvel_mean            =   1.0310283336307E-03
(PID.TID 0000.0001) %MON dynstat_uvel_sd              =   1.2481411904830E-02
(PID.TID 0000.0001) %MON dynstat_uvel_del2            =   8.3763634950754E-05
(PID.TID 0000.0001) %MON dynstat_vvel_max             =   1.5148180651628E-01
(PID.TID 0000.0001) %MON dynstat_vvel_min             =  -1.3321880326241E-01
(PID.TID 0000.0001) %MON dynstat_vvel_mean            =   2.1403608479198E-05
(PID.TID 0000.0001) %MON dynstat_vvel_sd              =   9.8404275986195E-03
(PID.TID 0000.0001) %MON dynstat_vvel_del2            =   8.5295573549085E-05
(PID.TID 0000.0001) %MON dynstat_wvel_max             =   1.2032392567328E-04
(PID.TID 0000.0001) %MON dynstat_wvel_min             =  -1.3758830437943E-04
(PID.TID 0000.0001) %MON dynstat_wvel_mean            =   1.0835402370059E-22
(PID.TID 0000.0001) %MON dynstat_wvel_sd              =   1.6618270838424E-05
(PID.TID 0000.0001) %MON dynstat_wvel_del2            =   1.8436542932422E-07
(PID.TID 0000.0001) %MON dynstat_theta_max            =   2.9711068522907E+01
(PID.TID 0000.0001) %MON dynstat_theta_min            =  -1.9864979835635E+00
(PID.TID 0000.0001) %MON dynstat_theta_mean           =   3.6192409275978E+00
(PID.TID 0000.0001) %MON dynstat_theta_sd             =   4.4145103817770E+00
(PID.TID 0000.0001) %MON dynstat_theta_del2           =   4.8126872562103E-03
(PID.TID 0000.0001) %MON dynstat_salt_max             =   3.7445851700303E+01
(PID.TID 0000.0001) %MON dynstat_salt_min             =   2.9779420811476E+01
(PID.TID 0000.0001) %MON dynstat_salt_mean            =   3.4717281607621E+01
(PID.TID 0000.0001) %MON dynstat_salt_sd              =   2.9619197442399E-01
(PID.TID 0000.0001) %MON dynstat_salt_del2            =   1.0046653575835E-03
(PID.TID 0000.0001) %MON dynstat_sst_max              =   2.9711068522907E+01
(PID.TID 0000.0001) %MON dynstat_sst_min              =  -1.9864979835635E+00
(PID.TID 0000.0001) %MON dynstat_sst_mean             =   1.8630382673992E+01
(PID.TID 0000.0001) %MON dynstat_sst_sd               =   9.0895194597023E+00
(PID.TID 0000.0001) %MON dynstat_sst_del2             =   2.5682902110931E-02
(PID.TID 0000.0001) %MON dynstat_sss_max              =   3.7429199086255E+01
(PID.TID 0000.0001) %MON dynstat_sss_min              =   2.9779420811476E+01
(PID.TID 0000.0001) %MON dynstat_sss_mean             =   3.4849975418812E+01
(PID.TID 0000.0001) %MON dynstat_sss_sd               =   9.7271032274010E-01
(PID.TID 0000.0001) %MON dynstat_sss_del2             =   7.9071276284412E-03
(PID.TID 0000.0001) %MON forcing_qnet_max             =   4.1838000996908E+02
(PID.TID 0000.0001) %MON forcing_qnet_min             =  -1.7834291178385E+02
(PID.TID 0000.0001) %MON forcing_qnet_mean            =  -1.5918161829221E+01
(PID.TID 0000.0001) %MON forcing_qnet_sd              =   1.0239971019621E+02
(PID.TID 0000.0001) %MON forcing_qnet_del2            =   9.9741913177861E-01
(PID.TID 0000.0001) %MON forcing_qsw_max              =   0.0000000000000E+00
(PID.TID 0000.0001) %MON forcing_qsw_min              =   0.0000000000000E+00
(PID.TID 0000.0001) %MON forcing_qsw_mean             =   0.0000000000000E+00
(PID.TID 0000.0001) %MON forcing_qsw_sd               =   0.0000000000000E+00
(PID.TID 0000.0001) %MON forcing_qsw_del2             =   0.0000000000000E+00
(PID.TID 0000.0001) %MON forcing_empmr_max            =   7.9975610844940E-05
(PID.TID 0000.0001) %MON forcing_empmr_min            =  -7.6713466038806E-05
(PID.TID 0000.0001) %MON forcing_empmr_mean           =   9.2771384293034E-07
(PID.TID 0000.0001) %MON forcing_empmr_sd             =   2.8463942811171E-05
(PID.TID 0000.0001) %MON forcing_empmr_del2           =   3.6008973554056E-07
(PID.TID 0000.0001) %MON forcing_fu_max               =   2.7740635275841E-01
(PID.TID 0000.0001) %MON forcing_fu_min               =  -1.7755410373211E-01
(PID.TID 0000.0001) %MON forcing_fu_mean              =   1.6381836660849E-02
(PID.TID 0000.0001) %MON forcing_fu_sd                =   9.0119528995688E-02
(PID.TID 0000.0001) %MON forcing_fu_del2              =   6.8212946826367E-04
(PID.TID 0000.0001) %MON forcing_fv_max               =   2.1066219160954E-01
(PID.TID 0000.0001) %MON forcing_fv_min               =  -1.7119780182838E-01
(PID.TID 0000.0001) %MON forcing_fv_mean              =  -5.7157240865113E-03
(PID.TID 0000.0001) %MON forcing_fv_sd                =   4.6290555441337E-02
(PID.TID 0000.0001) %MON forcing_fv_del2              =   4.6994343397308E-04
(PID.TID 0000.0001) %MON trAdv_CFL_u_max              =   4.0524644632821E-02
(PID.TID 0000.0001) %MON trAdv_CFL_v_max              =   3.0772471270627E-02
(PID.TID 0000.0001) %MON trAdv_CFL_w_max              =   4.9291101273554E-02
(PID.TID 0000.0001) %MON advcfl_uvel_max              =   3.8254710699516E-02
(PID.TID 0000.0001) %MON advcfl_vvel_max              =   2.9430485530022E-02
(PID.TID 0000.0001) %MON advcfl_wvel_max              =   4.1082460188178E-02
(PID.TID 0000.0001) %MON advcfl_W_hf_max              =   4.5361883124446E-02
(PID.TID 0000.0001) %MON pe_b_mean                    =   4.2046882919922E-04
(PID.TID 0000.0001) %MON ke_max                       =   1.3089157471783E-02
(PID.TID 0000.0001) %MON ke_mean                      =   1.1473196126437E-04
(PID.TID 0000.0001) %MON ke_vol                       =   1.3226782436723E+18
(PID.TID 0000.0001) %MON vort_r_min                   =  -2.2696763139081E-07
(PID.TID 0000.0001) %MON vort_r_max                   =   3.7166033152421E-07
(PID.TID 0000.0001) %MON vort_a_mean                  =  -2.5274807203285E-05
(PID.TID 0000.0001) %MON vort_a_sd                    =   7.3604489580746E-05
(PID.TID 0000.0001) %MON vort_p_mean                  =  -3.1845655554828E-05
(PID.TID 0000.0001) %MON vort_p_sd                    =   1.3162494567308E-04
(PID.TID 0000.0001) %MON surfExpan_theta_mean         =  -1.3273720114028E-07
(PID.TID 0000.0001) %MON surfExpan_salt_mean          =   7.2201864069163E-08
(PID.TID 0000.0001) // =======================================================
(PID.TID 0000.0001) // End MONITOR dynamic field statistics
(PID.TID 0000.0001) // =======================================================
 EXTERNAL_FIELDS_LOAD,        23 : iP,iLd,i0,i1=    1    2    1    2 ; Wght=  0.7333333333  0.2666666667
 EXTERNAL_FIELDS_LOAD: (fu0,1),fu,fv= -3.5633E-02 -1.4435E-02 -2.9980E-02 -4.6691E-02
 EXTERNAL_FIELDS_LOAD: SST,SSS,Q,E-P=  5.6102E-01  3.4636E+01  2.5903E+02  1.0767E-05
DEBUG_STATS_RL:          Uvel (THERMODYNAMICS)  min= -1.51235430098153E-01
DEBUG_STATS_RL:          Uvel (THERMODYNAMICS)  max=  1.46325975774509E-01
DEBUG_STATS_RL:          Uvel (THERMODYNAMICS) mean=  3.71359155072839E-03
DEBUG_STATS_RL:          Uvel (THERMODYNAMICS) S.D.=  2.00924011296258E-02
DEBUG_STATS_RL:          Vvel (THERMODYNAMICS)  min= -1.33218803262413E-01
DEBUG_STATS_RL:          Vvel (THERMODYNAMICS)  max=  1.51481806516276E-01
DEBUG_STATS_RL:          Vvel (THERMODYNAMICS) mean=  1.96807159262865E-03
DEBUG_STATS_RL:          Vvel (THERMODYNAMICS) S.D.=  1.64465812692046E-02
DEBUG_STATS_RL:          Wvel (THERMODYNAMICS)  min= -1.37588304379426E-04
DEBUG_STATS_RL:          Wvel (THERMODYNAMICS)  max=  1.20323925673283E-04
DEBUG_STATS_RL:          Wvel (THERMODYNAMICS) mean=  4.71368206661880E-07
DEBUG_STATS_RL:          Wvel (THERMODYNAMICS) S.D.=  1.51370035395268E-05
DEBUG_STATS_RL:         Theta (THERMODYNAMICS)  min= -1.98544965492835E+00
DEBUG_STATS_RL:         Theta (THERMODYNAMICS)  max=  2.97188256585047E+01
DEBUG_STATS_RL:         Theta (THERMODYNAMICS) mean=  3.20528183592964E+00
DEBUG_STATS_RL:         Theta (THERMODYNAMICS) S.D.=  5.85334048667318E+00
DEBUG_STATS_RL:          Salt (THERMODYNAMICS)  min= -6.85830501234083E-04
DEBUG_STATS_RL:          Salt (THERMODYNAMICS)  max=  3.74470316975534E+01
DEBUG_STATS_RL:          Salt (THERMODYNAMICS) mean=  1.88444071291739E+01
DEBUG_STATS_RL:          Salt (THERMODYNAMICS) S.D.=  1.73005821324585E+01
DEBUG_STATS_RL:         GtNm1 (THERMODYNAMICS)  min= -2.85615988208669E-06
DEBUG_STATS_RL:         GtNm1 (THERMODYNAMICS)  max=  2.56949235032658E-06
DEBUG_STATS_RL:         GtNm1 (THERMODYNAMICS) mean= -3.54187038047640E-09
DEBUG_STATS_RL:         GtNm1 (THERMODYNAMICS) S.D.=  2.11700840257076E-07
DEBUG_STATS_RL:         GsNm1 (THERMODYNAMICS)  min= -4.84708475344670E-07
DEBUG_STATS_RL:         GsNm1 (THERMODYNAMICS)  max=  4.48770754462931E-07
DEBUG_STATS_RL:         GsNm1 (THERMODYNAMICS) mean= -5.00101487550611E-10
DEBUG_STATS_RL:         GsNm1 (THERMODYNAMICS) S.D.=  2.06170090087937E-08
DEBUG_STATS_RL:                EtaN (DYNAMICS)  min= -1.66375948357385E+00
DEBUG_STATS_RL:                EtaN (DYNAMICS)  max=  9.20822710120000E-01
DEBUG_STATS_RL:                EtaN (DYNAMICS) mean= -1.69447089465626E-01
DEBUG_STATS_RL:                EtaN (DYNAMICS) S.D.=  6.53521467497273E-01
DEBUG_STATS_RL:                Uvel (DYNAMICS)  min= -1.51235430098153E-01
DEBUG_STATS_RL:                Uvel (DYNAMICS)  max=  1.46325975774509E-01
DEBUG_STATS_RL:                Uvel (DYNAMICS) mean=  3.71359155072839E-03
DEBUG_STATS_RL:                Uvel (DYNAMICS) S.D.=  2.00924011296258E-02
DEBUG_STATS_RL:                Vvel (DYNAMICS)  min= -1.33218803262413E-01
DEBUG_STATS_RL:                Vvel (DYNAMICS)  max=  1.51481806516276E-01
DEBUG_STATS_RL:                Vvel (DYNAMICS) mean=  1.96807159262865E-03
DEBUG_STATS_RL:                Vvel (DYNAMICS) S.D.=  1.64465812692046E-02
DEBUG_STATS_RL:                Wvel (DYNAMICS)  min= -1.37588304379426E-04
DEBUG_STATS_RL:                Wvel (DYNAMICS)  max=  1.20323925673283E-04
DEBUG_STATS_RL:                Wvel (DYNAMICS) mean=  4.71368206661880E-07
DEBUG_STATS_RL:                Wvel (DYNAMICS) S.D.=  1.51370035395268E-05
DEBUG_STATS_RL:               Theta (DYNAMICS)  min= -1.98544965492835E+00
DEBUG_STATS_RL:               Theta (DYNAMICS)  max=  2.97188256585047E+01
DEBUG_STATS_RL:               Theta (DYNAMICS) mean=  3.20528183592964E+00
DEBUG_STATS_RL:               Theta (DYNAMICS) S.D.=  5.85334048667318E+00
DEBUG_STATS_RL:                Salt (DYNAMICS)  min= -6.85830501234083E-04
DEBUG_STATS_RL:                Salt (DYNAMICS)  max=  3.74470316975534E+01
DEBUG_STATS_RL:                Salt (DYNAMICS) mean=  1.88444071291739E+01
DEBUG_STATS_RL:                Salt (DYNAMICS) S.D.=  1.73005821324585E+01
DEBUG_STATS_RL:                  Gu (DYNAMICS)  min= -1.56314784556048E-01
DEBUG_STATS_RL:                  Gu (DYNAMICS)  max=  1.45402402804573E-01
DEBUG_STATS_RL:                  Gu (DYNAMICS) mean=  3.23554360391720E-03
DEBUG_STATS_RL:                  Gu (DYNAMICS) S.D.=  1.95354298407332E-02
DEBUG_STATS_RL:                  Gv (DYNAMICS)  min= -1.46394838002351E-01
DEBUG_STATS_RL:                  Gv (DYNAMICS)  max=  1.66713926522126E-01
DEBUG_STATS_RL:                  Gv (DYNAMICS) mean=  4.03507770265449E-03
DEBUG_STATS_RL:                  Gv (DYNAMICS) S.D.=  1.81351375116871E-02
DEBUG_STATS_RL:               GuNm1 (DYNAMICS)  min= -7.68440129195789E-06
DEBUG_STATS_RL:               GuNm1 (DYNAMICS)  max=  7.80734500819044E-06
DEBUG_STATS_RL:               GuNm1 (DYNAMICS) mean= -1.23605442783929E-08
DEBUG_STATS_RL:               GuNm1 (DYNAMICS) S.D.=  1.17406120127708E-06
DEBUG_STATS_RL:               GvNm1 (DYNAMICS)  min= -1.00670715317194E-05
DEBUG_STATS_RL:               GvNm1 (DYNAMICS)  max=  1.70451679260284E-05
DEBUG_STATS_RL:               GvNm1 (DYNAMICS) mean=  7.69287750791949E-07
DEBUG_STATS_RL:               GvNm1 (DYNAMICS) S.D.=  2.61473715342597E-06
DEBUG_STATS_RL:               GtNm1 (DYNAMICS)  min= -2.85615988208669E-06
DEBUG_STATS_RL:               GtNm1 (DYNAMICS)  max=  2.56949235032658E-06
DEBUG_STATS_RL:               GtNm1 (DYNAMICS) mean= -3.54187038047640E-09
DEBUG_STATS_RL:               GtNm1 (DYNAMICS) S.D.=  2.11700840257076E-07
DEBUG_STATS_RL:               GsNm1 (DYNAMICS)  min= -4.84708475344670E-07
DEBUG_STATS_RL:               GsNm1 (DYNAMICS)  max=  4.48770754462931E-07
DEBUG_STATS_RL:               GsNm1 (DYNAMICS) mean= -5.00101487550611E-10
DEBUG_STATS_RL:               GsNm1 (DYNAMICS) S.D.=  2.06170090087937E-08
DEBUG_STATS_RL:    cg2d_b (SOLVE_FOR_PRESSURE)  min= -2.26437651767182E+04
DEBUG_STATS_RL:    cg2d_b (SOLVE_FOR_PRESSURE)  max=  1.74801740774465E+04
DEBUG_STATS_RL:    cg2d_b (SOLVE_FOR_PRESSURE) mean=  1.68799880750156E+00
DEBUG_STATS_RL:    cg2d_b (SOLVE_FOR_PRESSURE) S.D.=  3.59546159943436E+03
 cg2d: Sum(rhs),rhsMax =   1.72573651460735E-01  1.48730312380595E+00
(PID.TID 0000.0001)  cg2d: iter=     1 ; resid.=  1.21948845733383E-01
(PID.TID 0000.0001)  cg2d: iter=     2 ; resid.=  6.99886780632135E-02
(PID.TID 0000.0001)  cg2d: iter=     3 ; resid.=  6.38020278856171E-02
(PID.TID 0000.0001)  cg2d: iter=     4 ; resid.=  6.33185398983114E-02
(PID.TID 0000.0001)  cg2d: iter=     5 ; resid.=  5.66065929084307E-02
(PID.TID 0000.0001)  cg2d: iter=     6 ; resid.=  4.99993443358205E-02
(PID.TID 0000.0001)  cg2d: iter=     7 ; resid.=  4.38877249467732E-02
(PID.TID 0000.0001)  cg2d: iter=     8 ; resid.=  3.53385349099363E-02
(PID.TID 0000.0001)  cg2d: iter=     9 ; resid.=  2.77327543156343E-02
(PID.TID 0000.0001)  cg2d: iter=    10 ; resid.=  2.09665779468234E-02
(PID.TID 0000.0001)  cg2d: iter=    11 ; resid.=  1.63019158529150E-02
(PID.TID 0000.0001)  cg2d: iter=    12 ; resid.=  1.31287961100042E-02
(PID.TID 0000.0001)  cg2d: iter=    13 ; resid.=  1.06075433838047E-02
(PID.TID 0000.0001)  cg2d: iter=    14 ; resid.=  8.11570430367150E-03
(PID.TID 0000.0001)  cg2d: iter=    15 ; resid.=  6.50142297468860E-03
(PID.TID 0000.0001)  cg2d: iter=    16 ; resid.=  4.94538345407913E-03
(PID.TID 0000.0001)  cg2d: iter=    17 ; resid.=  4.24764255641855E-03
(PID.TID 0000.0001)  cg2d: iter=    18 ; resid.=  4.03262674634288E-03
(PID.TID 0000.0001)  cg2d: iter=    19 ; resid.=  3.58432431873631E-03
(PID.TID 0000.0001)  cg2d: iter=    20 ; resid.=  2.86230211184092E-03
(PID.TID 0000.0001)  cg2d: iter=    21 ; resid.=  2.15078468214449E-03
(PID.TID 0000.0001)  cg2d: iter=    22 ; resid.=  1.69372792981605E-03
(PID.TID 0000.0001)  cg2d: iter=    23 ; resid.=  1.40213486530557E-03
(PID.TID 0000.0001)  cg2d: iter=    24 ; resid.=  1.29582466301118E-03
(PID.TID 0000.0001)  cg2d: iter=    25 ; resid.=  1.10154359634544E-03
(PID.TID 0000.0001)  cg2d: iter=    26 ; resid.=  8.63128640485811E-04
(PID.TID 0000.0001)  cg2d: iter=    27 ; resid.=  6.72462390262993E-04
(PID.TID 0000.0001)  cg2d: iter=    28 ; resid.=  5.72910030322545E-04
(PID.TID 0000.0001)  cg2d: iter=    29 ; resid.=  4.77993413260906E-04
(PID.TID 0000.0001)  cg2d: iter=    30 ; resid.=  3.93194820996171E-04
(PID.TID 0000.0001)  cg2d: iter=    31 ; resid.=  3.34185469812595E-04
(PID.TID 0000.0001)  cg2d: iter=    32 ; resid.=  2.95806869631890E-04
(PID.TID 0000.0001)  cg2d: iter=    33 ; resid.=  2.34823308346800E-04
(PID.TID 0000.0001)  cg2d: iter=    34 ; resid.=  1.69990152108673E-04
(PID.TID 0000.0001)  cg2d: iter=    35 ; resid.=  1.29937866587706E-04
(PID.TID 0000.0001)  cg2d: iter=    36 ; resid.=  1.04779485411442E-04
(PID.TID 0000.0001)  cg2d: iter=    37 ; resid.=  8.58217971963418E-05
(PID.TID 0000.0001)  cg2d: iter=    38 ; resid.=  6.86150902591869E-05
(PID.TID 0000.0001)  cg2d: iter=    39 ; resid.=  5.68424061208215E-05
(PID.TID 0000.0001)  cg2d: iter=    40 ; resid.=  4.96126349702419E-05
(PID.TID 0000.0001)  cg2d: iter=    41 ; resid.=  4.09530951405840E-05
(PID.TID 0000.0001)  cg2d: iter=    42 ; resid.=  3.45199279111704E-05
(PID.TID 0000.0001)  cg2d: iter=    43 ; resid.=  3.09505053509459E-05
(PID.TID 0000.0001)  cg2d: iter=    44 ; resid.=  2.63961356492866E-05
(PID.TID 0000.0001)  cg2d: iter=    45 ; resid.=  2.09287913096704E-05
(PID.TID 0000.0001)  cg2d: iter=    46 ; resid.=  1.59027284862202E-05
(PID.TID 0000.0001)  cg2d: iter=    47 ; resid.=  1.23622314325847E-05
(PID.TID 0000.0001)  cg2d: iter=    48 ; resid.=  1.04190980913005E-05
(PID.TID 0000.0001)  cg2d: iter=    49 ; resid.=  8.86526763625451E-06
(PID.TID 0000.0001)  cg2d: iter=    50 ; resid.=  7.48521394652704E-06
(PID.TID 0000.0001)  cg2d: iter=    51 ; resid.=  5.96447409556650E-06
(PID.TID 0000.0001)  cg2d: iter=    52 ; resid.=  4.73791752320427E-06
(PID.TID 0000.0001)  cg2d: iter=    53 ; resid.=  3.99063727881991E-06
(PID.TID 0000.0001)  cg2d: iter=    54 ; resid.=  3.73165342119735E-06
(PID.TID 0000.0001)  cg2d: iter=    55 ; resid.=  3.63394730145592E-06
(PID.TID 0000.0001)  cg2d: iter=    56 ; resid.=  3.26446581325840E-06
(PID.TID 0000.0001)  cg2d: iter=    57 ; resid.=  2.64256183965393E-06
(PID.TID 0000.0001)  cg2d: iter=    58 ; resid.=  2.14386743435356E-06
(PID.TID 0000.0001)  cg2d: iter=    59 ; resid.=  1.74424797982840E-06
(PID.TID 0000.0001)  cg2d: iter=    60 ; resid.=  1.44431183372016E-06
(PID.TID 0000.0001)  cg2d: iter=    61 ; resid.=  1.31977699716387E-06
(PID.TID 0000.0001)  cg2d: iter=    62 ; resid.=  1.11171114255833E-06
(PID.TID 0000.0001)  cg2d: iter=    63 ; resid.=  9.14270888001898E-07
(PID.TID 0000.0001)  cg2d: iter=    64 ; resid.=  7.29617811988796E-07
(PID.TID 0000.0001)  cg2d: iter=    65 ; resid.=  5.98887500304754E-07
(PID.TID 0000.0001)  cg2d: iter=    66 ; resid.=  4.88042908198098E-07
(PID.TID 0000.0001)  cg2d: iter=    67 ; resid.=  3.76150899223221E-07
(PID.TID 0000.0001)  cg2d: iter=    68 ; resid.=  2.97715721840402E-07
(PID.TID 0000.0001)  cg2d: iter=    69 ; resid.=  2.18475665869092E-07
(PID.TID 0000.0001)  cg2d: iter=    70 ; resid.=  1.61457655943465E-07
(PID.TID 0000.0001)  cg2d: iter=    71 ; resid.=  1.23037881087037E-07
(PID.TID 0000.0001)  cg2d: iter=    72 ; resid.=  9.72994503597497E-08
(PID.TID 0000.0001)  cg2d: iter=    73 ; resid.=  9.24919814137197E-08
(PID.TID 0000.0001)  cg2d: iter=    74 ; resid.=  8.96642253959320E-08
(PID.TID 0000.0001)  cg2d: iter=    75 ; resid.=  8.19872644089757E-08
(PID.TID 0000.0001)  cg2d: iter=    76 ; resid.=  6.97725982428508E-08
(PID.TID 0000.0001)  cg2d: iter=    77 ; resid.=  5.97201708996674E-08
(PID.TID 0000.0001)  cg2d: iter=    78 ; resid.=  4.71251995215311E-08
(PID.TID 0000.0001)  cg2d: iter=    79 ; resid.=  3.83545108062201E-08
(PID.TID 0000.0001)  cg2d: iter=    80 ; resid.=  3.14791452082341E-08
(PID.TID 0000.0001)  cg2d: iter=    81 ; resid.=  2.64860806533703E-08
(PID.TID 0000.0001)  cg2d: iter=    82 ; resid.=  2.35600865459751E-08
(PID.TID 0000.0001)  cg2d: iter=    83 ; resid.=  1.99138220054002E-08
(PID.TID 0000.0001)  cg2d: iter=    84 ; resid.=  1.54200527017070E-08
(PID.TID 0000.0001)  cg2d: iter=    85 ; resid.=  1.13601484333070E-08
(PID.TID 0000.0001)  cg2d: iter=    86 ; resid.=  8.89093226100957E-09
(PID.TID 0000.0001)  cg2d: iter=    87 ; resid.=  7.86279472362686E-09
(PID.TID 0000.0001)  cg2d: iter=    88 ; resid.=  6.56527429367377E-09
(PID.TID 0000.0001)  cg2d: iter=    89 ; resid.=  5.19326658441698E-09
(PID.TID 0000.0001)  cg2d: iter=    90 ; resid.=  4.10979983388461E-09
(PID.TID 0000.0001)  cg2d: iter=    91 ; resid.=  3.36068387645255E-09
(PID.TID 0000.0001)  cg2d: iter=    92 ; resid.=  2.82232006864580E-09
(PID.TID 0000.0001)  cg2d: iter=    93 ; resid.=  2.11247218928647E-09
(PID.TID 0000.0001)  cg2d: iter=    94 ; resid.=  1.60302885067997E-09
(PID.TID 0000.0001)  cg2d: iter=    95 ; resid.=  1.24718797360962E-09
(PID.TID 0000.0001)  cg2d: iter=    96 ; resid.=  9.42490934060513E-10
(PID.TID 0000.0001)  cg2d: iter=    97 ; resid.=  7.35742388167624E-10
(PID.TID 0000.0001)  cg2d: iter=    98 ; resid.=  6.63267063362234E-10
(PID.TID 0000.0001)  cg2d: iter=    99 ; resid.=  6.48429288372211E-10
(PID.TID 0000.0001)  cg2d: iter=   100 ; resid.=  5.91650502788106E-10
(PID.TID 0000.0001)  cg2d: iter=   101 ; resid.=  4.85717210351668E-10
(PID.TID 0000.0001)  cg2d: iter=   102 ; resid.=  3.72010304227760E-10
(PID.TID 0000.0001)  cg2d: iter=   103 ; resid.=  2.80869204957542E-10
(PID.TID 0000.0001)  cg2d: iter=   104 ; resid.=  2.07351910254642E-10
(PID.TID 0000.0001)  cg2d: iter=   105 ; resid.=  1.47149034950229E-10
(PID.TID 0000.0001)  cg2d: iter=   106 ; resid.=  1.05683116439875E-10
(PID.TID 0000.0001)  cg2d: iter=   107 ; resid.=  8.39370243326178E-11
(PID.TID 0000.0001)  cg2d: iter=   108 ; resid.=  6.57642964250687E-11
(PID.TID 0000.0001)  cg2d: iter=   109 ; resid.=  5.14137614375756E-11
(PID.TID 0000.0001)  cg2d: iter=   110 ; resid.=  3.77103265574753E-11
(PID.TID 0000.0001)  cg2d: iter=   111 ; resid.=  2.83083629288321E-11
(PID.TID 0000.0001)  cg2d: iter=   112 ; resid.=  2.32006227971214E-11
(PID.TID 0000.0001)  cg2d: iter=   113 ; resid.=  1.92272065539508E-11
(PID.TID 0000.0001)  cg2d: iter=   114 ; resid.=  1.51523336039931E-11
(PID.TID 0000.0001)  cg2d: iter=   115 ; resid.=  1.19510875115584E-11
(PID.TID 0000.0001)  cg2d: iter=   116 ; resid.=  9.38698329060865E-12
(PID.TID 0000.0001)  cg2d: iter=   117 ; resid.=  6.98919039712032E-12
(PID.TID 0000.0001)  cg2d: iter=   118 ; resid.=  4.95696995107692E-12
(PID.TID 0000.0001)  cg2d: iter=   119 ; resid.=  3.27704209022300E-12
(PID.TID 0000.0001)  cg2d: iter=   120 ; resid.=  2.34675426223352E-12
(PID.TID 0000.0001)  cg2d: iter=   121 ; resid.=  1.69662028743549E-12
(PID.TID 0000.0001)  cg2d: iter=   122 ; resid.=  1.19914687797454E-12
(PID.TID 0000.0001)  cg2d: iter=   123 ; resid.=  9.28273840810370E-13
(PID.TID 0000.0001)  cg2d: iter=   124 ; resid.=  7.26966865811825E-13
(PID.TID 0000.0001)  cg2d: iter=   125 ; resid.=  5.73030838170416E-13
(PID.TID 0000.0001)  cg2d: iter=   126 ; resid.=  4.72299587958228E-13
(PID.TID 0000.0001)  cg2d: iter=   127 ; resid.=  3.72361442726290E-13
(PID.TID 0000.0001)  cg2d: iter=   128 ; resid.=  2.60384613237680E-13
(PID.TID 0000.0001)  cg2d: iter=   129 ; resid.=  1.90775828404847E-13
(PID.TID 0000.0001)  cg2d: iter=   130 ; resid.=  1.43422036890537E-13
(PID.TID 0000.0001)  cg2d: iter=   131 ; resid.=  1.06426194330488E-13
(PID.TID 0000.0001)  cg2d: iter=   132 ; resid.=  7.96502289812297E-14
DEBUG_STATS_RL:    cg2d_x (SOLVE_FOR_PRESSURE)  min= -1.64111411115369E+01
DEBUG_STATS_RL:    cg2d_x (SOLVE_FOR_PRESSURE)  max=  8.83265545002129E+00
DEBUG_STATS_RL:    cg2d_x (SOLVE_FOR_PRESSURE) mean= -1.65057593997633E+00
DEBUG_STATS_RL:    cg2d_x (SOLVE_FOR_PRESSURE) S.D.=  6.36221542347000E+00
(PID.TID 0000.0001)      cg2d_init_res =   4.45681618406747E-01
(PID.TID 0000.0001)      cg2d_iters(min,last) =      -1     132
(PID.TID 0000.0001)      cg2d_last_res =   7.96502289812297E-14
(PID.TID 0000.0001) // =======================================================
(PID.TID 0000.0001) // Begin MONITOR dynamic field statistics
(PID.TID 0000.0001) // =======================================================
(PID.TID 0000.0001) %MON time_tsnumber                =                    24
(PID.TID 0000.0001) %MON time_secondsf                =   2.0736000000000E+06
(PID.TID 0000.0001) %MON dynstat_eta_max              =   9.0037262487471E-01
(PID.TID 0000.0001) %MON dynstat_eta_min              =  -1.6728991958753E+00
(PID.TID 0000.0001) %MON dynstat_eta_mean             =  -1.7612174506854E-03
(PID.TID 0000.0001) %MON dynstat_eta_sd               =   5.6789051533776E-01
(PID.TID 0000.0001) %MON dynstat_eta_del2             =   1.9836324731837E-03
(PID.TID 0000.0001) %MON dynstat_uvel_max             =   1.3706556489317E-01
(PID.TID 0000.0001) %MON dynstat_uvel_min             =  -1.5524634612329E-01
(PID.TID 0000.0001) %MON dynstat_uvel_mean            =   1.0970180249620E-03
(PID.TID 0000.0001) %MON dynstat_uvel_sd              =   1.1938567424138E-02
(PID.TID 0000.0001) %MON dynstat_uvel_del2            =   8.0941831918249E-05
(PID.TID 0000.0001) %MON dynstat_vvel_max             =   1.4652026251073E-01
(PID.TID 0000.0001) %MON dynstat_vvel_min             =  -1.3631407165027E-01
(PID.TID 0000.0001) %MON dynstat_vvel_mean            =   1.9082619577851E-05
(PID.TID 0000.0001) %MON dynstat_vvel_sd              =   9.7172514359319E-03
(PID.TID 0000.0001) %MON dynstat_vvel_del2            =   8.3103872725970E-05
(PID.TID 0000.0001) %MON dynstat_wvel_max             =   1.1895471056938E-04
(PID.TID 0000.0001) %MON dynstat_wvel_min             =  -1.3212614527094E-04
(PID.TID 0000.0001) %MON dynstat_wvel_mean            =  -4.1850136069750E-22
(PID.TID 0000.0001) %MON dynstat_wvel_sd              =   1.5798456348062E-05
(PID.TID 0000.0001) %MON dynstat_wvel_del2            =   1.7336477162831E-07
(PID.TID 0000.0001) %MON dynstat_theta_max            =   2.9718825658505E+01
(PID.TID 0000.0001) %MON dynstat_theta_min            =  -1.9854496549284E+00
(PID.TID 0000.0001) %MON dynstat_theta_mean           =   3.6193113490514E+00
(PID.TID 0000.0001) %MON dynstat_theta_sd             =   4.4146172808932E+00
(PID.TID 0000.0001) %MON dynstat_theta_del2           =   4.8109902727626E-03
(PID.TID 0000.0001) %MON dynstat_salt_max             =   3.7447031697553E+01
(PID.TID 0000.0001) %MON dynstat_salt_min             =   2.9783572547862E+01
(PID.TID 0000.0001) %MON dynstat_salt_mean            =   3.4717281124305E+01
(PID.TID 0000.0001) %MON dynstat_salt_sd              =   2.9619240755291E-01
(PID.TID 0000.0001) %MON dynstat_salt_del2            =   1.0033226484973E-03
(PID.TID 0000.0001) %MON dynstat_sst_max              =   2.9718825658505E+01
(PID.TID 0000.0001) %MON dynstat_sst_min              =  -1.9854496549284E+00
(PID.TID 0000.0001) %MON dynstat_sst_mean             =   1.8630756129132E+01
(PID.TID 0000.0001) %MON dynstat_sst_sd               =   9.0925448387019E+00
(PID.TID 0000.0001) %MON dynstat_sst_del2             =   2.5668901326781E-02
(PID.TID 0000.0001) %MON dynstat_sss_max              =   3.7429021540527E+01
(PID.TID 0000.0001) %MON dynstat_sss_min              =   2.9783572547862E+01
(PID.TID 0000.0001) %MON dynstat_sss_mean             =   3.4849213607260E+01
(PID.TID 0000.0001) %MON dynstat_sss_sd               =   9.7307915395219E-01
(PID.TID 0000.0001) %MON dynstat_sss_del2             =   7.8984009233380E-03
(PID.TID 0000.0001) %MON forcing_qnet_max             =   4.1506092325846E+02
(PID.TID 0000.0001) %MON forcing_qnet_min             =  -1.7810339253743E+02
(PID.TID 0000.0001) %MON forcing_qnet_mean            =  -1.5833252661817E+01
(PID.TID 0000.0001) %MON forcing_qnet_sd              =   1.0134792828630E+02
(PID.TID 0000.0001) %MON forcing_qnet_del2            =   9.9398501080315E-01
(PID.TID 0000.0001) %MON forcing_qsw_max              =   0.0000000000000E+00
(PID.TID 0000.0001) %MON forcing_qsw_min              =   0.0000000000000E+00
(PID.TID 0000.0001) %MON forcing_qsw_mean             =   0.0000000000000E+00
(PID.TID 0000.0001) %MON forcing_qsw_sd               =   0.0000000000000E+00
(PID.TID 0000.0001) %MON forcing_qsw_del2             =   0.0000000000000E+00
(PID.TID 0000.0001) %MON forcing_empmr_max            =   7.9661521112939E-05
(PID.TID 0000.0001) %MON forcing_empmr_min            =  -7.6793110300362E-05
(PID.TID 0000.0001) %MON forcing_empmr_mean           =   9.2839624019029E-07
(PID.TID 0000.0001) %MON forcing_empmr_sd             =   2.8422949327368E-05
(PID.TID 0000.0001) %MON forcing_empmr_del2           =   3.5924996282303E-07
(PID.TID 0000.0001) %MON forcing_fu_max               =   2.7721027731895E-01
(PID.TID 0000.0001) %MON forcing_fu_min               =  -1.7921402752399E-01
(PID.TID 0000.0001) %MON forcing_fu_mean              =   1.6436136876318E-02
(PID.TID 0000.0001) %MON forcing_fu_sd                =   9.0054319436731E-02
(PID.TID 0000.0001) %MON forcing_fu_del2              =   6.7829591148946E-04
(PID.TID 0000.0001) %MON forcing_fv_max               =   2.0745374461015E-01
(PID.TID 0000.0001) %MON forcing_fv_min               =  -1.7020650207996E-01
(PID.TID 0000.0001) %MON forcing_fv_mean              =  -5.7809849932265E-03
(PID.TID 0000.0001) %MON forcing_fv_sd                =   4.6066374404308E-02
(PID.TID 0000.0001) %MON forcing_fv_del2              =   4.6763919861826E-04
(PID.TID 0000.0001) %MON trAdv_CFL_u_max              =   3.8262480504861E-02
(PID.TID 0000.0001) %MON trAdv_CFL_v_max              =   3.0482349841960E-02
(PID.TID 0000.0001) %MON trAdv_CFL_w_max              =   4.5361883124446E-02
(PID.TID 0000.0001) %MON advcfl_uvel_max              =   3.5833716495655E-02
(PID.TID 0000.0001) %MON advcfl_vvel_max              =   2.8466537103344E-02
(PID.TID 0000.0001) %MON advcfl_wvel_max              =   3.7721974039102E-02
(PID.TID 0000.0001) %MON advcfl_W_hf_max              =   4.5805254190338E-02
(PID.TID 0000.0001) %MON pe_b_mean                    =   4.1268112709925E-04
(PID.TID 0000.0001) %MON ke_max                       =   1.2626930126615E-02
(PID.TID 0000.0001) %MON ke_mean                      =   1.0769167913382E-04
(PID.TID 0000.0001) %MON ke_vol                       =   1.3226782436723E+18
(PID.TID 0000.0001) %MON vort_r_min                   =  -2.2637622745483E-07
(PID.TID 0000.0001) %MON vort_r_max                   =   3.5595090909145E-07
(PID.TID 0000.0001) %MON vort_a_mean                  =  -2.5274807252155E-05
(PID.TID 0000.0001) %MON vort_a_sd                    =   7.3604502744451E-05
(PID.TID 0000.0001) %MON vort_p_mean                  =  -3.1845655616402E-05
(PID.TID 0000.0001) %MON vort_p_sd                    =   1.3162512121437E-04
(PID.TID 0000.0001) %MON surfExpan_theta_mean         =  -2.0426941641391E-07
(PID.TID 0000.0001) %MON surfExpan_salt_mean          =   6.1877946212241E-08
(PID.TID 0000.0001) // =======================================================
(PID.TID 0000.0001) // End MONITOR dynamic field statistics
(PID.TID 0000.0001) // =======================================================
 EXTERNAL_FIELDS_LOAD,        24 : iP,iLd,i0,i1=    1    2    1    2 ; Wght=  0.7000000000  0.3000000000
 EXTERNAL_FIELDS_LOAD: (fu0,1),fu,fv= -3.5633E-02 -1.4435E-02 -2.9273E-02 -4.5370E-02
 EXTERNAL_FIELDS_LOAD: SST,SSS,Q,E-P=  5.1134E-01  3.4627E+01  2.5818E+02  1.0659E-05
DEBUG_STATS_RL:          Uvel (THERMODYNAMICS)  min= -1.55246346123293E-01
DEBUG_STATS_RL:          Uvel (THERMODYNAMICS)  max=  1.37065564893166E-01
DEBUG_STATS_RL:          Uvel (THERMODYNAMICS) mean=  3.29266927474309E-03
DEBUG_STATS_RL:          Uvel (THERMODYNAMICS) S.D.=  1.91602735969844E-02
DEBUG_STATS_RL:          Vvel (THERMODYNAMICS)  min= -1.36314071650271E-01
DEBUG_STATS_RL:          Vvel (THERMODYNAMICS)  max=  1.46520262510733E-01
DEBUG_STATS_RL:          Vvel (THERMODYNAMICS) mean=  1.88055524121409E-03
DEBUG_STATS_RL:          Vvel (THERMODYNAMICS) S.D.=  1.61460875784942E-02
DEBUG_STATS_RL:          Wvel (THERMODYNAMICS)  min= -1.32126145270936E-04
DEBUG_STATS_RL:          Wvel (THERMODYNAMICS)  max=  1.18954710569379E-04
DEBUG_STATS_RL:          Wvel (THERMODYNAMICS) mean=  4.46486668152333E-07
DEBUG_STATS_RL:          Wvel (THERMODYNAMICS) S.D.=  1.43036991526273E-05
DEBUG_STATS_RL:         Theta (THERMODYNAMICS)  min= -1.98439919304749E+00
DEBUG_STATS_RL:         Theta (THERMODYNAMICS)  max=  2.97273636830042E+01
DEBUG_STATS_RL:         Theta (THERMODYNAMICS) mean=  3.20507501107957E+00
DEBUG_STATS_RL:         Theta (THERMODYNAMICS) S.D.=  5.85330702442588E+00
DEBUG_STATS_RL:          Salt (THERMODYNAMICS)  min= -6.85830501234083E-04
DEBUG_STATS_RL:          Salt (THERMODYNAMICS)  max=  3.74481752922880E+01
DEBUG_STATS_RL:          Salt (THERMODYNAMICS) mean=  1.88443809356541E+01
DEBUG_STATS_RL:          Salt (THERMODYNAMICS) S.D.=  1.73005584298128E+01
DEBUG_STATS_RL:         GtNm1 (THERMODYNAMICS)  min= -2.71404902381119E-06
DEBUG_STATS_RL:         GtNm1 (THERMODYNAMICS)  max=  2.59439399835295E-06
DEBUG_STATS_RL:         GtNm1 (THERMODYNAMICS) mean= -3.38684373762461E-09
DEBUG_STATS_RL:         GtNm1 (THERMODYNAMICS) S.D.=  2.11713807976679E-07
DEBUG_STATS_RL:         GsNm1 (THERMODYNAMICS)  min= -4.66028788204632E-07
DEBUG_STATS_RL:         GsNm1 (THERMODYNAMICS)  max=  4.17941264824976E-07
DEBUG_STATS_RL:         GsNm1 (THERMODYNAMICS) mean= -5.48204496977393E-10
DEBUG_STATS_RL:         GsNm1 (THERMODYNAMICS) S.D.=  2.06575328520332E-08
DEBUG_STATS_RL:                EtaN (DYNAMICS)  min= -1.67289919587529E+00
DEBUG_STATS_RL:                EtaN (DYNAMICS)  max=  9.00372624874712E-01
DEBUG_STATS_RL:                EtaN (DYNAMICS) mean= -1.68254428132143E-01
DEBUG_STATS_RL:                EtaN (DYNAMICS) S.D.=  6.48543875990828E-01
DEBUG_STATS_RL:                Uvel (DYNAMICS)  min= -1.55246346123293E-01
DEBUG_STATS_RL:                Uvel (DYNAMICS)  max=  1.37065564893166E-01
DEBUG_STATS_RL:                Uvel (DYNAMICS) mean=  3.29266927474309E-03
DEBUG_STATS_RL:                Uvel (DYNAMICS) S.D.=  1.91602735969844E-02
DEBUG_STATS_RL:                Vvel (DYNAMICS)  min= -1.36314071650271E-01
DEBUG_STATS_RL:                Vvel (DYNAMICS)  max=  1.46520262510733E-01
DEBUG_STATS_RL:                Vvel (DYNAMICS) mean=  1.88055524121409E-03
DEBUG_STATS_RL:                Vvel (DYNAMICS) S.D.=  1.61460875784942E-02
DEBUG_STATS_RL:                Wvel (DYNAMICS)  min= -1.32126145270936E-04
DEBUG_STATS_RL:                Wvel (DYNAMICS)  max=  1.18954710569379E-04
DEBUG_STATS_RL:                Wvel (DYNAMICS) mean=  4.46486668152333E-07
DEBUG_STATS_RL:                Wvel (DYNAMICS) S.D.=  1.43036991526273E-05
DEBUG_STATS_RL:               Theta (DYNAMICS)  min= -1.98439919304749E+00
DEBUG_STATS_RL:               Theta (DYNAMICS)  max=  2.97273636830042E+01
DEBUG_STATS_RL:               Theta (DYNAMICS) mean=  3.20507501107957E+00
DEBUG_STATS_RL:               Theta (DYNAMICS) S.D.=  5.85330702442588E+00
DEBUG_STATS_RL:                Salt (DYNAMICS)  min= -6.85830501234083E-04
DEBUG_STATS_RL:                Salt (DYNAMICS)  max=  3.74481752922880E+01
DEBUG_STATS_RL:                Salt (DYNAMICS) mean=  1.88443809356541E+01
DEBUG_STATS_RL:                Salt (DYNAMICS) S.D.=  1.73005584298128E+01
DEBUG_STATS_RL:                  Gu (DYNAMICS)  min= -1.59857011603207E-01
DEBUG_STATS_RL:                  Gu (DYNAMICS)  max=  1.34905383863811E-01
DEBUG_STATS_RL:                  Gu (DYNAMICS) mean=  2.84315128769624E-03
DEBUG_STATS_RL:                  Gu (DYNAMICS) S.D.=  1.87206900846393E-02
DEBUG_STATS_RL:                  Gv (DYNAMICS)  min= -1.47690737863291E-01
DEBUG_STATS_RL:                  Gv (DYNAMICS)  max=  1.58779230104769E-01
DEBUG_STATS_RL:                  Gv (DYNAMICS) mean=  3.89738916364237E-03
DEBUG_STATS_RL:                  Gv (DYNAMICS) S.D.=  1.76751399838987E-02
DEBUG_STATS_RL:               GuNm1 (DYNAMICS)  min= -7.67978172885600E-06
DEBUG_STATS_RL:               GuNm1 (DYNAMICS)  max=  7.80615923495437E-06
DEBUG_STATS_RL:               GuNm1 (DYNAMICS) mean= -1.28603708622789E-08
DEBUG_STATS_RL:               GuNm1 (DYNAMICS) S.D.=  1.18208079214283E-06
DEBUG_STATS_RL:               GvNm1 (DYNAMICS)  min= -1.02580060916076E-05
DEBUG_STATS_RL:               GvNm1 (DYNAMICS)  max=  1.69946003204474E-05
DEBUG_STATS_RL:               GvNm1 (DYNAMICS) mean=  7.68267700965163E-07
DEBUG_STATS_RL:               GvNm1 (DYNAMICS) S.D.=  2.62378871440567E-06
DEBUG_STATS_RL:               GtNm1 (DYNAMICS)  min= -2.71404902381119E-06
DEBUG_STATS_RL:               GtNm1 (DYNAMICS)  max=  2.59439399835295E-06
DEBUG_STATS_RL:               GtNm1 (DYNAMICS) mean= -3.38684373762461E-09
DEBUG_STATS_RL:               GtNm1 (DYNAMICS) S.D.=  2.11713807976679E-07
DEBUG_STATS_RL:               GsNm1 (DYNAMICS)  min= -4.66028788204632E-07
DEBUG_STATS_RL:               GsNm1 (DYNAMICS)  max=  4.17941264824976E-07
DEBUG_STATS_RL:               GsNm1 (DYNAMICS) mean= -5.48204496977393E-10
DEBUG_STATS_RL:               GsNm1 (DYNAMICS) S.D.=  2.06575328520332E-08
DEBUG_STATS_RL:    cg2d_b (SOLVE_FOR_PRESSURE)  min= -2.27154565439102E+04
DEBUG_STATS_RL:    cg2d_b (SOLVE_FOR_PRESSURE)  max=  1.79333086604888E+04
DEBUG_STATS_RL:    cg2d_b (SOLVE_FOR_PRESSURE) mean=  1.76233238289571E+00
DEBUG_STATS_RL:    cg2d_b (SOLVE_FOR_PRESSURE) S.D.=  3.65080943760240E+03
 cg2d: Sum(rhs),rhsMax =   1.79604555097389E-01  1.49201200475143E+00
(PID.TID 0000.0001)  cg2d: iter=     1 ; resid.=  1.18038989005316E-01
(PID.TID 0000.0001)  cg2d: iter=     2 ; resid.=  6.48096018155495E-02
(PID.TID 0000.0001)  cg2d: iter=     3 ; resid.=  5.54666707865202E-02
(PID.TID 0000.0001)  cg2d: iter=     4 ; resid.=  5.39130121710225E-02
(PID.TID 0000.0001)  cg2d: iter=     5 ; resid.=  4.89589981043537E-02
(PID.TID 0000.0001)  cg2d: iter=     6 ; resid.=  4.31258024815942E-02
(PID.TID 0000.0001)  cg2d: iter=     7 ; resid.=  3.82345573155081E-02
(PID.TID 0000.0001)  cg2d: iter=     8 ; resid.=  3.14738901189919E-02
(PID.TID 0000.0001)  cg2d: iter=     9 ; resid.=  2.53303352392345E-02
(PID.TID 0000.0001)  cg2d: iter=    10 ; resid.=  1.96425260319680E-02
(PID.TID 0000.0001)  cg2d: iter=    11 ; resid.=  1.55000478398494E-02
(PID.TID 0000.0001)  cg2d: iter=    12 ; resid.=  1.24119860891696E-02
(PID.TID 0000.0001)  cg2d: iter=    13 ; resid.=  9.95742592429525E-03
(PID.TID 0000.0001)  cg2d: iter=    14 ; resid.=  7.46171530149874E-03
(PID.TID 0000.0001)  cg2d: iter=    15 ; resid.=  5.92192558805706E-03
(PID.TID 0000.0001)  cg2d: iter=    16 ; resid.=  4.42568897246125E-03
(PID.TID 0000.0001)  cg2d: iter=    17 ; resid.=  3.76763696312969E-03
(PID.TID 0000.0001)  cg2d: iter=    18 ; resid.=  3.62571065356549E-03
(PID.TID 0000.0001)  cg2d: iter=    19 ; resid.=  3.30034606438396E-03
(PID.TID 0000.0001)  cg2d: iter=    20 ; resid.=  2.66908290612775E-03
(PID.TID 0000.0001)  cg2d: iter=    21 ; resid.=  2.00988281783634E-03
(PID.TID 0000.0001)  cg2d: iter=    22 ; resid.=  1.56583562567983E-03
(PID.TID 0000.0001)  cg2d: iter=    23 ; resid.=  1.29606356463546E-03
(PID.TID 0000.0001)  cg2d: iter=    24 ; resid.=  1.19497623017663E-03
(PID.TID 0000.0001)  cg2d: iter=    25 ; resid.=  1.03110119429433E-03
(PID.TID 0000.0001)  cg2d: iter=    26 ; resid.=  8.09992291345252E-04
(PID.TID 0000.0001)  cg2d: iter=    27 ; resid.=  6.20292180467780E-04
(PID.TID 0000.0001)  cg2d: iter=    28 ; resid.=  5.17078064804638E-04
(PID.TID 0000.0001)  cg2d: iter=    29 ; resid.=  4.29863582060016E-04
(PID.TID 0000.0001)  cg2d: iter=    30 ; resid.=  3.47707788601019E-04
(PID.TID 0000.0001)  cg2d: iter=    31 ; resid.=  2.88751443556704E-04
(PID.TID 0000.0001)  cg2d: iter=    32 ; resid.=  2.54914670861115E-04
(PID.TID 0000.0001)  cg2d: iter=    33 ; resid.=  2.09064508014994E-04
(PID.TID 0000.0001)  cg2d: iter=    34 ; resid.=  1.57316023792625E-04
(PID.TID 0000.0001)  cg2d: iter=    35 ; resid.=  1.19526080202230E-04
(PID.TID 0000.0001)  cg2d: iter=    36 ; resid.=  9.43868926367253E-05
(PID.TID 0000.0001)  cg2d: iter=    37 ; resid.=  7.56831724559147E-05
(PID.TID 0000.0001)  cg2d: iter=    38 ; resid.=  5.96483648151000E-05
(PID.TID 0000.0001)  cg2d: iter=    39 ; resid.=  4.81814969760077E-05
(PID.TID 0000.0001)  cg2d: iter=    40 ; resid.=  4.09907354336011E-05
(PID.TID 0000.0001)  cg2d: iter=    41 ; resid.=  3.42222298288669E-05
(PID.TID 0000.0001)  cg2d: iter=    42 ; resid.=  2.92001645218848E-05
(PID.TID 0000.0001)  cg2d: iter=    43 ; resid.=  2.64005130034888E-05
(PID.TID 0000.0001)  cg2d: iter=    44 ; resid.=  2.24679504551930E-05
(PID.TID 0000.0001)  cg2d: iter=    45 ; resid.=  1.80375822233600E-05
(PID.TID 0000.0001)  cg2d: iter=    46 ; resid.=  1.34835233131624E-05
(PID.TID 0000.0001)  cg2d: iter=    47 ; resid.=  1.03366636789315E-05
(PID.TID 0000.0001)  cg2d: iter=    48 ; resid.=  8.41137162175658E-06
(PID.TID 0000.0001)  cg2d: iter=    49 ; resid.=  7.02363365955113E-06
(PID.TID 0000.0001)  cg2d: iter=    50 ; resid.=  5.89292632434527E-06
(PID.TID 0000.0001)  cg2d: iter=    51 ; resid.=  4.65707551648689E-06
(PID.TID 0000.0001)  cg2d: iter=    52 ; resid.=  3.52065210633749E-06
(PID.TID 0000.0001)  cg2d: iter=    53 ; resid.=  2.74119025459871E-06
(PID.TID 0000.0001)  cg2d: iter=    54 ; resid.=  2.43599787962940E-06
(PID.TID 0000.0001)  cg2d: iter=    55 ; resid.=  2.39103316947118E-06
(PID.TID 0000.0001)  cg2d: iter=    56 ; resid.=  2.28947450251571E-06
(PID.TID 0000.0001)  cg2d: iter=    57 ; resid.=  1.95280159741938E-06
(PID.TID 0000.0001)  cg2d: iter=    58 ; resid.=  1.63064354616074E-06
(PID.TID 0000.0001)  cg2d: iter=    59 ; resid.=  1.32604728980208E-06
(PID.TID 0000.0001)  cg2d: iter=    60 ; resid.=  1.10005859525620E-06
(PID.TID 0000.0001)  cg2d: iter=    61 ; resid.=  9.96429354650350E-07
(PID.TID 0000.0001)  cg2d: iter=    62 ; resid.=  8.44987245601832E-07
(PID.TID 0000.0001)  cg2d: iter=    63 ; resid.=  6.97107290683962E-07
(PID.TID 0000.0001)  cg2d: iter=    64 ; resid.=  5.63548899310758E-07
(PID.TID 0000.0001)  cg2d: iter=    65 ; resid.=  4.61682232668708E-07
(PID.TID 0000.0001)  cg2d: iter=    66 ; resid.=  3.93637461379629E-07
(PID.TID 0000.0001)  cg2d: iter=    67 ; resid.=  3.13274937837592E-07
(PID.TID 0000.0001)  cg2d: iter=    68 ; resid.=  2.51805796308456E-07
(PID.TID 0000.0001)  cg2d: iter=    69 ; resid.=  1.87239163339319E-07
(PID.TID 0000.0001)  cg2d: iter=    70 ; resid.=  1.38009677684829E-07
(PID.TID 0000.0001)  cg2d: iter=    71 ; resid.=  1.03536765334990E-07
(PID.TID 0000.0001)  cg2d: iter=    72 ; resid.=  7.70852718994133E-08
(PID.TID 0000.0001)  cg2d: iter=    73 ; resid.=  6.70214998771564E-08
(PID.TID 0000.0001)  cg2d: iter=    74 ; resid.=  6.45980321291137E-08
(PID.TID 0000.0001)  cg2d: iter=    75 ; resid.=  6.12883218980125E-08
(PID.TID 0000.0001)  cg2d: iter=    76 ; resid.=  5.35018726645831E-08
(PID.TID 0000.0001)  cg2d: iter=    77 ; resid.=  4.61799923987971E-08
(PID.TID 0000.0001)  cg2d: iter=    78 ; resid.=  3.81702835151414E-08
(PID.TID 0000.0001)  cg2d: iter=    79 ; resid.=  3.25654295682542E-08
(PID.TID 0000.0001)  cg2d: iter=    80 ; resid.=  2.71811124157431E-08
(PID.TID 0000.0001)  cg2d: iter=    81 ; resid.=  2.24031980440725E-08
(PID.TID 0000.0001)  cg2d: iter=    82 ; resid.=  2.00984403537891E-08
(PID.TID 0000.0001)  cg2d: iter=    83 ; resid.=  1.74495386667812E-08
(PID.TID 0000.0001)  cg2d: iter=    84 ; resid.=  1.34069411275265E-08
(PID.TID 0000.0001)  cg2d: iter=    85 ; resid.=  9.41595200563507E-09
(PID.TID 0000.0001)  cg2d: iter=    86 ; resid.=  6.85107159100114E-09
(PID.TID 0000.0001)  cg2d: iter=    87 ; resid.=  5.77005120126808E-09
(PID.TID 0000.0001)  cg2d: iter=    88 ; resid.=  4.98012452880783E-09
(PID.TID 0000.0001)  cg2d: iter=    89 ; resid.=  4.11831935995797E-09
(PID.TID 0000.0001)  cg2d: iter=    90 ; resid.=  3.34988062010508E-09
(PID.TID 0000.0001)  cg2d: iter=    91 ; resid.=  2.82078377717346E-09
(PID.TID 0000.0001)  cg2d: iter=    92 ; resid.=  2.53360950775965E-09
(PID.TID 0000.0001)  cg2d: iter=    93 ; resid.=  2.01265493854910E-09
(PID.TID 0000.0001)  cg2d: iter=    94 ; resid.=  1.54680120192839E-09
(PID.TID 0000.0001)  cg2d: iter=    95 ; resid.=  1.19841961712679E-09
(PID.TID 0000.0001)  cg2d: iter=    96 ; resid.=  9.27513078275495E-10
(PID.TID 0000.0001)  cg2d: iter=    97 ; resid.=  7.24937545832808E-10
(PID.TID 0000.0001)  cg2d: iter=    98 ; resid.=  6.09732216574920E-10
(PID.TID 0000.0001)  cg2d: iter=    99 ; resid.=  5.43926576782279E-10
(PID.TID 0000.0001)  cg2d: iter=   100 ; resid.=  4.86012652457638E-10
(PID.TID 0000.0001)  cg2d: iter=   101 ; resid.=  4.11066372768248E-10
(PID.TID 0000.0001)  cg2d: iter=   102 ; resid.=  3.24896143020705E-10
(PID.TID 0000.0001)  cg2d: iter=   103 ; resid.=  2.51412403495517E-10
(PID.TID 0000.0001)  cg2d: iter=   104 ; resid.=  1.96614619760515E-10
(PID.TID 0000.0001)  cg2d: iter=   105 ; resid.=  1.45415455229582E-10
(PID.TID 0000.0001)  cg2d: iter=   106 ; resid.=  1.06224462430776E-10
(PID.TID 0000.0001)  cg2d: iter=   107 ; resid.=  8.38427683434249E-11
(PID.TID 0000.0001)  cg2d: iter=   108 ; resid.=  6.68485015970091E-11
(PID.TID 0000.0001)  cg2d: iter=   109 ; resid.=  5.28267004998046E-11
(PID.TID 0000.0001)  cg2d: iter=   110 ; resid.=  3.77351219866216E-11
(PID.TID 0000.0001)  cg2d: iter=   111 ; resid.=  2.71164090296560E-11
(PID.TID 0000.0001)  cg2d: iter=   112 ; resid.=  2.11979957924424E-11
(PID.TID 0000.0001)  cg2d: iter=   113 ; resid.=  1.71170604278791E-11
(PID.TID 0000.0001)  cg2d: iter=   114 ; resid.=  1.34622218416542E-11
(PID.TID 0000.0001)  cg2d: iter=   115 ; resid.=  1.05340075080822E-11
(PID.TID 0000.0001)  cg2d: iter=   116 ; resid.=  8.46238243580928E-12
(PID.TID 0000.0001)  cg2d: iter=   117 ; resid.=  6.47314587577758E-12
(PID.TID 0000.0001)  cg2d: iter=   118 ; resid.=  4.71479072039715E-12
(PID.TID 0000.0001)  cg2d: iter=   119 ; resid.=  3.22486434565092E-12
(PID.TID 0000.0001)  cg2d: iter=   120 ; resid.=  2.44508608946963E-12
(PID.TID 0000.0001)  cg2d: iter=   121 ; resid.=  1.94349668194405E-12
(PID.TID 0000.0001)  cg2d: iter=   122 ; resid.=  1.51086115775883E-12
(PID.TID 0000.0001)  cg2d: iter=   123 ; resid.=  1.19170405955212E-12
(PID.TID 0000.0001)  cg2d: iter=   124 ; resid.=  9.20270065010631E-13
(PID.TID 0000.0001)  cg2d: iter=   125 ; resid.=  7.14841966743488E-13
(PID.TID 0000.0001)  cg2d: iter=   126 ; resid.=  5.60742828855309E-13
(PID.TID 0000.0001)  cg2d: iter=   127 ; resid.=  3.94610663532276E-13
(PID.TID 0000.0001)  cg2d: iter=   128 ; resid.=  2.49559142678724E-13
(PID.TID 0000.0001)  cg2d: iter=   129 ; resid.=  1.76851367094809E-13
(PID.TID 0000.0001)  cg2d: iter=   130 ; resid.=  1.37150779170251E-13
(PID.TID 0000.0001)  cg2d: iter=   131 ; resid.=  1.04653034736825E-13
(PID.TID 0000.0001)  cg2d: iter=   132 ; resid.=  7.63714623475819E-14
DEBUG_STATS_RL:    cg2d_x (SOLVE_FOR_PRESSURE)  min= -1.64879559316060E+01
DEBUG_STATS_RL:    cg2d_x (SOLVE_FOR_PRESSURE)  max=  8.66876800167080E+00
DEBUG_STATS_RL:    cg2d_x (SOLVE_FOR_PRESSURE) mean= -1.63847404273925E+00
DEBUG_STATS_RL:    cg2d_x (SOLVE_FOR_PRESSURE) S.D.=  6.31961098026185E+00
(PID.TID 0000.0001)      cg2d_init_res =   4.36177866980458E-01
(PID.TID 0000.0001)      cg2d_iters(min,last) =      -1     132
(PID.TID 0000.0001)      cg2d_last_res =   7.63714623475819E-14
(PID.TID 0000.0001) // =======================================================
(PID.TID 0000.0001) // Begin MONITOR dynamic field statistics
(PID.TID 0000.0001) // =======================================================
(PID.TID 0000.0001) %MON time_tsnumber                =                    25
(PID.TID 0000.0001) %MON time_secondsf                =   2.1600000000000E+06
(PID.TID 0000.0001) %MON dynstat_eta_max              =   8.8366646296331E-01
(PID.TID 0000.0001) %MON dynstat_eta_min              =  -1.6807294527631E+00
(PID.TID 0000.0001) %MON dynstat_eta_mean             =  -1.8387753195505E-03
(PID.TID 0000.0001) %MON dynstat_eta_sd               =   5.6337332343515E-01
(PID.TID 0000.0001) %MON dynstat_eta_del2             =   2.0203529493133E-03
(PID.TID 0000.0001) %MON dynstat_uvel_max             =   1.2633504555098E-01
(PID.TID 0000.0001) %MON dynstat_uvel_min             =  -1.5868945850980E-01
(PID.TID 0000.0001) %MON dynstat_uvel_mean            =   1.1509908188514E-03
(PID.TID 0000.0001) %MON dynstat_uvel_sd              =   1.1465591170866E-02
(PID.TID 0000.0001) %MON dynstat_uvel_del2            =   7.8389252729231E-05
(PID.TID 0000.0001) %MON dynstat_vvel_max             =   1.3833729918856E-01
(PID.TID 0000.0001) %MON dynstat_vvel_min             =  -1.3749980823634E-01
(PID.TID 0000.0001) %MON dynstat_vvel_mean            =   2.1208546024137E-05
(PID.TID 0000.0001) %MON dynstat_vvel_sd              =   9.5080115042572E-03
(PID.TID 0000.0001) %MON dynstat_vvel_del2            =   8.0593369855757E-05
(PID.TID 0000.0001) %MON dynstat_wvel_max             =   1.1727539144975E-04
(PID.TID 0000.0001) %MON dynstat_wvel_min             =  -1.3863322605273E-04
(PID.TID 0000.0001) %MON dynstat_wvel_mean            =  -3.9078782362378E-22
(PID.TID 0000.0001) %MON dynstat_wvel_sd              =   1.4939446018674E-05
(PID.TID 0000.0001) %MON dynstat_wvel_del2            =   1.6359518836070E-07
(PID.TID 0000.0001) %MON dynstat_theta_max            =   2.9727363683004E+01
(PID.TID 0000.0001) %MON dynstat_theta_min            =  -1.9843991930475E+00
(PID.TID 0000.0001) %MON dynstat_theta_mean           =   3.6193829928286E+00
(PID.TID 0000.0001) %MON dynstat_theta_sd             =   4.4147312568783E+00
(PID.TID 0000.0001) %MON dynstat_theta_del2           =   4.8093931904356E-03
(PID.TID 0000.0001) %MON dynstat_salt_max             =   3.7448175292288E+01
(PID.TID 0000.0001) %MON dynstat_salt_min             =   2.9787537177356E+01
(PID.TID 0000.0001) %MON dynstat_salt_mean            =   3.4717280928771E+01
(PID.TID 0000.0001) %MON dynstat_salt_sd              =   2.9619302657616E-01
(PID.TID 0000.0001) %MON dynstat_salt_del2            =   1.0017869142170E-03
(PID.TID 0000.0001) %MON dynstat_sst_max              =   2.9727363683004E+01
(PID.TID 0000.0001) %MON dynstat_sst_min              =  -1.9843991930475E+00
(PID.TID 0000.0001) %MON dynstat_sst_mean             =   1.8631542166257E+01
(PID.TID 0000.0001) %MON dynstat_sst_sd               =   9.0950502358338E+00
(PID.TID 0000.0001) %MON dynstat_sst_del2             =   2.5652836935060E-02
(PID.TID 0000.0001) %MON dynstat_sss_max              =   3.7428775503948E+01
(PID.TID 0000.0001) %MON dynstat_sss_min              =   2.9787537177356E+01
(PID.TID 0000.0001) %MON dynstat_sss_mean             =   3.4848461765733E+01
(PID.TID 0000.0001) %MON dynstat_sss_sd               =   9.7343573750098E-01
(PID.TID 0000.0001) %MON dynstat_sss_del2             =   7.8886886517791E-03
(PID.TID 0000.0001) %MON forcing_qnet_max             =   4.1174183654785E+02
(PID.TID 0000.0001) %MON forcing_qnet_min             =  -1.7786387329102E+02
(PID.TID 0000.0001) %MON forcing_qnet_mean            =  -1.5748343494414E+01
(PID.TID 0000.0001) %MON forcing_qnet_sd              =   1.0030047515306E+02
(PID.TID 0000.0001) %MON forcing_qnet_del2            =   9.9066567498476E-01
(PID.TID 0000.0001) %MON forcing_qsw_max              =   0.0000000000000E+00
(PID.TID 0000.0001) %MON forcing_qsw_min              =   0.0000000000000E+00
(PID.TID 0000.0001) %MON forcing_qsw_mean             =   0.0000000000000E+00
(PID.TID 0000.0001) %MON forcing_qsw_sd               =   0.0000000000000E+00
(PID.TID 0000.0001) %MON forcing_qsw_del2             =   0.0000000000000E+00
(PID.TID 0000.0001) %MON forcing_empmr_max            =   7.9347431380938E-05
(PID.TID 0000.0001) %MON forcing_empmr_min            =  -7.6872754561919E-05
(PID.TID 0000.0001) %MON forcing_empmr_mean           =   9.2907863745025E-07
(PID.TID 0000.0001) %MON forcing_empmr_sd             =   2.8383735592419E-05
(PID.TID 0000.0001) %MON forcing_empmr_del2           =   3.5846896033345E-07
(PID.TID 0000.0001) %MON forcing_fu_max               =   2.7701420187950E-01
(PID.TID 0000.0001) %MON forcing_fu_min               =  -1.8087395131588E-01
(PID.TID 0000.0001) %MON forcing_fu_mean              =   1.6490437091787E-02
(PID.TID 0000.0001) %MON forcing_fu_sd                =   9.0006638203509E-02
(PID.TID 0000.0001) %MON forcing_fu_del2              =   6.7506455559060E-04
(PID.TID 0000.0001) %MON forcing_fv_max               =   2.0424529761076E-01
(PID.TID 0000.0001) %MON forcing_fv_min               =  -1.6921520233154E-01
(PID.TID 0000.0001) %MON forcing_fv_mean              =  -5.8462458999417E-03
(PID.TID 0000.0001) %MON forcing_fv_sd                =   4.5856746175698E-02
(PID.TID 0000.0001) %MON forcing_fv_del2              =   4.6584186697431E-04
(PID.TID 0000.0001) %MON trAdv_CFL_u_max              =   3.5840994579762E-02
(PID.TID 0000.0001) %MON trAdv_CFL_v_max              =   2.9483949284089E-02
(PID.TID 0000.0001) %MON trAdv_CFL_w_max              =   4.5805254190338E-02
(PID.TID 0000.0001) %MON advcfl_uvel_max              =   3.3028384695077E-02
(PID.TID 0000.0001) %MON advcfl_vvel_max              =   2.6876718568798E-02
(PID.TID 0000.0001) %MON advcfl_wvel_max              =   3.7955776160523E-02
(PID.TID 0000.0001) %MON advcfl_W_hf_max              =   4.6089156766350E-02
(PID.TID 0000.0001) %MON pe_b_mean                    =   4.0614244961719E-04
(PID.TID 0000.0001) %MON ke_max                       =   1.2547839493463E-02
(PID.TID 0000.0001) %MON ke_mean                      =   1.0091178523970E-04
(PID.TID 0000.0001) %MON ke_vol                       =   1.3226782436723E+18
(PID.TID 0000.0001) %MON vort_r_min                   =  -2.2452822238930E-07
(PID.TID 0000.0001) %MON vort_r_max                   =   3.4500729053966E-07
(PID.TID 0000.0001) %MON vort_a_mean                  =  -2.5274807270358E-05
(PID.TID 0000.0001) %MON vort_a_sd                    =   7.3604513478306E-05
(PID.TID 0000.0001) %MON vort_p_mean                  =  -3.1845655639338E-05
(PID.TID 0000.0001) %MON vort_p_sd                    =   1.3162526646607E-04
(PID.TID 0000.0001) %MON surfExpan_theta_mean         =  -2.0804009014850E-07
(PID.TID 0000.0001) %MON surfExpan_salt_mean          =   5.1680039000539E-08
(PID.TID 0000.0001) // =======================================================
(PID.TID 0000.0001) // End MONITOR dynamic field statistics
(PID.TID 0000.0001) // =======================================================
 EXTERNAL_FIELDS_LOAD,        25 : iP,iLd,i0,i1=    1    2    1    2 ; Wght=  0.6666666667  0.3333333333
 EXTERNAL_FIELDS_LOAD: (fu0,1),fu,fv= -3.5633E-02 -1.4435E-02 -2.8567E-02 -4.4050E-02
 EXTERNAL_FIELDS_LOAD: SST,SSS,Q,E-P=  4.6166E-01  3.4617E+01  2.5734E+02  1.0550E-05
DEBUG_STATS_RL:          Uvel (THERMODYNAMICS)  min= -1.58689458509801E-01
DEBUG_STATS_RL:          Uvel (THERMODYNAMICS)  max=  1.26335045550981E-01
DEBUG_STATS_RL:          Uvel (THERMODYNAMICS) mean=  2.89494294402366E-03
DEBUG_STATS_RL:          Uvel (THERMODYNAMICS) S.D.=  1.83442892622857E-02
DEBUG_STATS_RL:          Vvel (THERMODYNAMICS)  min= -1.37499808236338E-01
DEBUG_STATS_RL:          Vvel (THERMODYNAMICS)  max=  1.38337299188556E-01
DEBUG_STATS_RL:          Vvel (THERMODYNAMICS) mean=  1.74112721366010E-03
DEBUG_STATS_RL:          Vvel (THERMODYNAMICS) S.D.=  1.57008072808120E-02
DEBUG_STATS_RL:          Wvel (THERMODYNAMICS)  min= -1.38633226052728E-04
DEBUG_STATS_RL:          Wvel (THERMODYNAMICS)  max=  1.17275391449749E-04
DEBUG_STATS_RL:          Wvel (THERMODYNAMICS) mean=  4.01042161173209E-07
DEBUG_STATS_RL:          Wvel (THERMODYNAMICS) S.D.=  1.34281278655171E-05
DEBUG_STATS_RL:         Theta (THERMODYNAMICS)  min= -1.98337661983034E+00
DEBUG_STATS_RL:         Theta (THERMODYNAMICS)  max=  2.97366358209328E+01
DEBUG_STATS_RL:         Theta (THERMODYNAMICS) mean=  3.20490004203805E+00
DEBUG_STATS_RL:         Theta (THERMODYNAMICS) S.D.=  5.85326790136070E+00
DEBUG_STATS_RL:          Salt (THERMODYNAMICS)  min= -6.85830501234083E-04
DEBUG_STATS_RL:          Salt (THERMODYNAMICS)  max=  3.74492637724980E+01
DEBUG_STATS_RL:          Salt (THERMODYNAMICS) mean=  1.88443531365567E+01
DEBUG_STATS_RL:          Salt (THERMODYNAMICS) S.D.=  1.73005332846799E+01
DEBUG_STATS_RL:         GtNm1 (THERMODYNAMICS)  min= -2.64639446414852E-06
DEBUG_STATS_RL:         GtNm1 (THERMODYNAMICS)  max=  2.60643089370936E-06
DEBUG_STATS_RL:         GtNm1 (THERMODYNAMICS) mean= -3.00187077676052E-09
DEBUG_STATS_RL:         GtNm1 (THERMODYNAMICS) S.D.=  2.06172019055766E-07
DEBUG_STATS_RL:         GsNm1 (THERMODYNAMICS)  min= -4.48363371359290E-07
DEBUG_STATS_RL:         GsNm1 (THERMODYNAMICS)  max=  3.89961730828048E-07
DEBUG_STATS_RL:         GsNm1 (THERMODYNAMICS) mean= -5.97776462498732E-10
DEBUG_STATS_RL:         GsNm1 (THERMODYNAMICS) S.D.=  1.99787604695349E-08
DEBUG_STATS_RL:                EtaN (DYNAMICS)  min= -1.68072945276314E+00
DEBUG_STATS_RL:                EtaN (DYNAMICS)  max=  8.83666462963310E-01
DEBUG_STATS_RL:                EtaN (DYNAMICS) mean= -1.67020799463737E-01
DEBUG_STATS_RL:                EtaN (DYNAMICS) S.D.=  6.44200915419151E-01
DEBUG_STATS_RL:                Uvel (DYNAMICS)  min= -1.58689458509801E-01
DEBUG_STATS_RL:                Uvel (DYNAMICS)  max=  1.26335045550981E-01
DEBUG_STATS_RL:                Uvel (DYNAMICS) mean=  2.89494294402366E-03
DEBUG_STATS_RL:                Uvel (DYNAMICS) S.D.=  1.83442892622857E-02
DEBUG_STATS_RL:                Vvel (DYNAMICS)  min= -1.37499808236338E-01
DEBUG_STATS_RL:                Vvel (DYNAMICS)  max=  1.38337299188556E-01
DEBUG_STATS_RL:                Vvel (DYNAMICS) mean=  1.74112721366010E-03
DEBUG_STATS_RL:                Vvel (DYNAMICS) S.D.=  1.57008072808120E-02
DEBUG_STATS_RL:                Wvel (DYNAMICS)  min= -1.38633226052728E-04
DEBUG_STATS_RL:                Wvel (DYNAMICS)  max=  1.17275391449749E-04
DEBUG_STATS_RL:                Wvel (DYNAMICS) mean=  4.01042161173209E-07
DEBUG_STATS_RL:                Wvel (DYNAMICS) S.D.=  1.34281278655171E-05
DEBUG_STATS_RL:               Theta (DYNAMICS)  min= -1.98337661983034E+00
DEBUG_STATS_RL:               Theta (DYNAMICS)  max=  2.97366358209328E+01
DEBUG_STATS_RL:               Theta (DYNAMICS) mean=  3.20490004203805E+00
DEBUG_STATS_RL:               Theta (DYNAMICS) S.D.=  5.85326790136070E+00
DEBUG_STATS_RL:                Salt (DYNAMICS)  min= -6.85830501234083E-04
DEBUG_STATS_RL:                Salt (DYNAMICS)  max=  3.74492637724980E+01
DEBUG_STATS_RL:                Salt (DYNAMICS) mean=  1.88443531365567E+01
DEBUG_STATS_RL:                Salt (DYNAMICS) S.D.=  1.73005332846799E+01
DEBUG_STATS_RL:                  Gu (DYNAMICS)  min= -1.62809479640153E-01
DEBUG_STATS_RL:                  Gu (DYNAMICS)  max=  1.23364516040133E-01
DEBUG_STATS_RL:                  Gu (DYNAMICS) mean=  2.48503533689114E-03
DEBUG_STATS_RL:                  Gu (DYNAMICS) S.D.=  1.80454047141198E-02
DEBUG_STATS_RL:                  Gv (DYNAMICS)  min= -1.47087586246228E-01
DEBUG_STATS_RL:                  Gv (DYNAMICS)  max=  1.47990010862120E-01
DEBUG_STATS_RL:                  Gv (DYNAMICS) mean=  3.71743725410857E-03
DEBUG_STATS_RL:                  Gv (DYNAMICS) S.D.=  1.70840439899318E-02
DEBUG_STATS_RL:               GuNm1 (DYNAMICS)  min= -7.65049560218612E-06
DEBUG_STATS_RL:               GuNm1 (DYNAMICS)  max=  7.78305598068200E-06
DEBUG_STATS_RL:               GuNm1 (DYNAMICS) mean= -1.35029595654660E-08
DEBUG_STATS_RL:               GuNm1 (DYNAMICS) S.D.=  1.18857120949182E-06
DEBUG_STATS_RL:               GvNm1 (DYNAMICS)  min= -1.04242439107621E-05
DEBUG_STATS_RL:               GvNm1 (DYNAMICS)  max=  1.69193973986797E-05
DEBUG_STATS_RL:               GvNm1 (DYNAMICS) mean=  7.67170147799090E-07
DEBUG_STATS_RL:               GvNm1 (DYNAMICS) S.D.=  2.63183583751179E-06
DEBUG_STATS_RL:               GtNm1 (DYNAMICS)  min= -2.64639446414852E-06
DEBUG_STATS_RL:               GtNm1 (DYNAMICS)  max=  2.60643089370936E-06
DEBUG_STATS_RL:               GtNm1 (DYNAMICS) mean= -3.00187077676052E-09
DEBUG_STATS_RL:               GtNm1 (DYNAMICS) S.D.=  2.06172019055766E-07
DEBUG_STATS_RL:               GsNm1 (DYNAMICS)  min= -4.48363371359290E-07
DEBUG_STATS_RL:               GsNm1 (DYNAMICS)  max=  3.89961730828048E-07
DEBUG_STATS_RL:               GsNm1 (DYNAMICS) mean= -5.97776462498732E-10
DEBUG_STATS_RL:               GsNm1 (DYNAMICS) S.D.=  1.99787604695349E-08
DEBUG_STATS_RL:    cg2d_b (SOLVE_FOR_PRESSURE)  min= -2.26461202658180E+04
DEBUG_STATS_RL:    cg2d_b (SOLVE_FOR_PRESSURE)  max=  1.82855782920588E+04
DEBUG_STATS_RL:    cg2d_b (SOLVE_FOR_PRESSURE) mean=  1.83672055542189E+00
DEBUG_STATS_RL:    cg2d_b (SOLVE_FOR_PRESSURE) S.D.=  3.69770904970040E+03
 cg2d: Sum(rhs),rhsMax =   1.87758787637487E-01  1.48745781236359E+00
(PID.TID 0000.0001)  cg2d: iter=     1 ; resid.=  1.14817944657832E-01
(PID.TID 0000.0001)  cg2d: iter=     2 ; resid.=  5.97469682411291E-02
(PID.TID 0000.0001)  cg2d: iter=     3 ; resid.=  4.63038453111407E-02
(PID.TID 0000.0001)  cg2d: iter=     4 ; resid.=  4.29660133375405E-02
(PID.TID 0000.0001)  cg2d: iter=     5 ; resid.=  3.99894877518498E-02
(PID.TID 0000.0001)  cg2d: iter=     6 ; resid.=  3.53460209551541E-02
(PID.TID 0000.0001)  cg2d: iter=     7 ; resid.=  3.14597912190741E-02
(PID.TID 0000.0001)  cg2d: iter=     8 ; resid.=  2.63694081503822E-02
(PID.TID 0000.0001)  cg2d: iter=     9 ; resid.=  2.20024159540599E-02
(PID.TID 0000.0001)  cg2d: iter=    10 ; resid.=  1.78251092988364E-02
(PID.TID 0000.0001)  cg2d: iter=    11 ; resid.=  1.43297944683138E-02
(PID.TID 0000.0001)  cg2d: iter=    12 ; resid.=  1.13995251650397E-02
(PID.TID 0000.0001)  cg2d: iter=    13 ; resid.=  9.07491154274074E-03
(PID.TID 0000.0001)  cg2d: iter=    14 ; resid.=  6.66757315852832E-03
(PID.TID 0000.0001)  cg2d: iter=    15 ; resid.=  5.23164612836076E-03
(PID.TID 0000.0001)  cg2d: iter=    16 ; resid.=  3.84097008013834E-03
(PID.TID 0000.0001)  cg2d: iter=    17 ; resid.=  3.20559722487488E-03
(PID.TID 0000.0001)  cg2d: iter=    18 ; resid.=  3.07542776297840E-03
(PID.TID 0000.0001)  cg2d: iter=    19 ; resid.=  2.87409374942674E-03
(PID.TID 0000.0001)  cg2d: iter=    20 ; resid.=  2.41479717569048E-03
(PID.TID 0000.0001)  cg2d: iter=    21 ; resid.=  1.86257461562560E-03
(PID.TID 0000.0001)  cg2d: iter=    22 ; resid.=  1.44860341158702E-03
(PID.TID 0000.0001)  cg2d: iter=    23 ; resid.=  1.19304220356071E-03
(PID.TID 0000.0001)  cg2d: iter=    24 ; resid.=  1.08276685574019E-03
(PID.TID 0000.0001)  cg2d: iter=    25 ; resid.=  9.48390846545099E-04
(PID.TID 0000.0001)  cg2d: iter=    26 ; resid.=  7.53514203660521E-04
(PID.TID 0000.0001)  cg2d: iter=    27 ; resid.=  5.70045153674823E-04
(PID.TID 0000.0001)  cg2d: iter=    28 ; resid.=  4.61103226693276E-04
(PID.TID 0000.0001)  cg2d: iter=    29 ; resid.=  3.81248564115510E-04
(PID.TID 0000.0001)  cg2d: iter=    30 ; resid.=  3.03445006945537E-04
(PID.TID 0000.0001)  cg2d: iter=    31 ; resid.=  2.44977279001165E-04
(PID.TID 0000.0001)  cg2d: iter=    32 ; resid.=  2.11666963479767E-04
(PID.TID 0000.0001)  cg2d: iter=    33 ; resid.=  1.80052472315542E-04
(PID.TID 0000.0001)  cg2d: iter=    34 ; resid.=  1.44770421713898E-04
(PID.TID 0000.0001)  cg2d: iter=    35 ; resid.=  1.13474996699813E-04
(PID.TID 0000.0001)  cg2d: iter=    36 ; resid.=  9.07857965238022E-05
(PID.TID 0000.0001)  cg2d: iter=    37 ; resid.=  7.33094467945978E-05
(PID.TID 0000.0001)  cg2d: iter=    38 ; resid.=  5.94887010868121E-05
(PID.TID 0000.0001)  cg2d: iter=    39 ; resid.=  4.91840715547630E-05
(PID.TID 0000.0001)  cg2d: iter=    40 ; resid.=  4.21751432861931E-05
(PID.TID 0000.0001)  cg2d: iter=    41 ; resid.=  3.65056145933279E-05
(PID.TID 0000.0001)  cg2d: iter=    42 ; resid.=  3.23717860970903E-05
(PID.TID 0000.0001)  cg2d: iter=    43 ; resid.=  2.97978156587214E-05
(PID.TID 0000.0001)  cg2d: iter=    44 ; resid.=  2.53860329705497E-05
(PID.TID 0000.0001)  cg2d: iter=    45 ; resid.=  2.10100926023719E-05
(PID.TID 0000.0001)  cg2d: iter=    46 ; resid.=  1.62787334886227E-05
(PID.TID 0000.0001)  cg2d: iter=    47 ; resid.=  1.30723799576149E-05
(PID.TID 0000.0001)  cg2d: iter=    48 ; resid.=  1.08799526881514E-05
(PID.TID 0000.0001)  cg2d: iter=    49 ; resid.=  9.34703759420800E-06
(PID.TID 0000.0001)  cg2d: iter=    50 ; resid.=  8.18650783239429E-06
(PID.TID 0000.0001)  cg2d: iter=    51 ; resid.=  6.86158163108693E-06
(PID.TID 0000.0001)  cg2d: iter=    52 ; resid.=  5.42671844716917E-06
(PID.TID 0000.0001)  cg2d: iter=    53 ; resid.=  4.37786319095993E-06
(PID.TID 0000.0001)  cg2d: iter=    54 ; resid.=  4.11775176543964E-06
(PID.TID 0000.0001)  cg2d: iter=    55 ; resid.=  4.10791781130507E-06
(PID.TID 0000.0001)  cg2d: iter=    56 ; resid.=  3.80228131196965E-06
(PID.TID 0000.0001)  cg2d: iter=    57 ; resid.=  3.03821763807040E-06
(PID.TID 0000.0001)  cg2d: iter=    58 ; resid.=  2.34627377636643E-06
(PID.TID 0000.0001)  cg2d: iter=    59 ; resid.=  1.74595590485614E-06
(PID.TID 0000.0001)  cg2d: iter=    60 ; resid.=  1.35954965888451E-06
(PID.TID 0000.0001)  cg2d: iter=    61 ; resid.=  1.13875560850371E-06
(PID.TID 0000.0001)  cg2d: iter=    62 ; resid.=  8.99515416769400E-07
(PID.TID 0000.0001)  cg2d: iter=    63 ; resid.=  6.94743091781468E-07
(PID.TID 0000.0001)  cg2d: iter=    64 ; resid.=  5.30274423628775E-07
(PID.TID 0000.0001)  cg2d: iter=    65 ; resid.=  4.15076752116313E-07
(PID.TID 0000.0001)  cg2d: iter=    66 ; resid.=  3.55964842759152E-07
(PID.TID 0000.0001)  cg2d: iter=    67 ; resid.=  2.89530949010709E-07
(PID.TID 0000.0001)  cg2d: iter=    68 ; resid.=  2.37845258352811E-07
(PID.TID 0000.0001)  cg2d: iter=    69 ; resid.=  1.86255480500982E-07
(PID.TID 0000.0001)  cg2d: iter=    70 ; resid.=  1.47555705183397E-07
(PID.TID 0000.0001)  cg2d: iter=    71 ; resid.=  1.21661165443180E-07
(PID.TID 0000.0001)  cg2d: iter=    72 ; resid.=  9.72215582901511E-08
(PID.TID 0000.0001)  cg2d: iter=    73 ; resid.=  8.64172385724830E-08
(PID.TID 0000.0001)  cg2d: iter=    74 ; resid.=  8.26096671677653E-08
(PID.TID 0000.0001)  cg2d: iter=    75 ; resid.=  7.71122328796736E-08
(PID.TID 0000.0001)  cg2d: iter=    76 ; resid.=  6.65288389711575E-08
(PID.TID 0000.0001)  cg2d: iter=    77 ; resid.=  5.58457305458737E-08
(PID.TID 0000.0001)  cg2d: iter=    78 ; resid.=  4.49409682588126E-08
(PID.TID 0000.0001)  cg2d: iter=    79 ; resid.=  3.72962162832729E-08
(PID.TID 0000.0001)  cg2d: iter=    80 ; resid.=  2.95694113533731E-08
(PID.TID 0000.0001)  cg2d: iter=    81 ; resid.=  2.35011010938714E-08
(PID.TID 0000.0001)  cg2d: iter=    82 ; resid.=  2.07233828270973E-08
(PID.TID 0000.0001)  cg2d: iter=    83 ; resid.=  1.80150056858680E-08
(PID.TID 0000.0001)  cg2d: iter=    84 ; resid.=  1.37518624394790E-08
(PID.TID 0000.0001)  cg2d: iter=    85 ; resid.=  9.29202162977808E-09
(PID.TID 0000.0001)  cg2d: iter=    86 ; resid.=  6.19426792440709E-09
(PID.TID 0000.0001)  cg2d: iter=    87 ; resid.=  4.60706375942919E-09
(PID.TID 0000.0001)  cg2d: iter=    88 ; resid.=  3.74397036735456E-09
(PID.TID 0000.0001)  cg2d: iter=    89 ; resid.=  3.08862039190664E-09
(PID.TID 0000.0001)  cg2d: iter=    90 ; resid.=  2.52229887306362E-09
(PID.TID 0000.0001)  cg2d: iter=    91 ; resid.=  2.13985854617751E-09
(PID.TID 0000.0001)  cg2d: iter=    92 ; resid.=  2.01932871953259E-09
(PID.TID 0000.0001)  cg2d: iter=    93 ; resid.=  1.73570612046946E-09
(PID.TID 0000.0001)  cg2d: iter=    94 ; resid.=  1.39831671389268E-09
(PID.TID 0000.0001)  cg2d: iter=    95 ; resid.=  1.12830010327154E-09
(PID.TID 0000.0001)  cg2d: iter=    96 ; resid.=  9.34000160520094E-10
(PID.TID 0000.0001)  cg2d: iter=    97 ; resid.=  7.48028107671274E-10
(PID.TID 0000.0001)  cg2d: iter=    98 ; resid.=  5.86461310317062E-10
(PID.TID 0000.0001)  cg2d: iter=    99 ; resid.=  4.54037912299777E-10
(PID.TID 0000.0001)  cg2d: iter=   100 ; resid.=  3.60465088863008E-10
(PID.TID 0000.0001)  cg2d: iter=   101 ; resid.=  2.93134064254141E-10
(PID.TID 0000.0001)  cg2d: iter=   102 ; resid.=  2.29918465173728E-10
(PID.TID 0000.0001)  cg2d: iter=   103 ; resid.=  1.74727155223315E-10
(PID.TID 0000.0001)  cg2d: iter=   104 ; resid.=  1.39362974212421E-10
(PID.TID 0000.0001)  cg2d: iter=   105 ; resid.=  1.06768474157949E-10
(PID.TID 0000.0001)  cg2d: iter=   106 ; resid.=  7.95594978807273E-11
(PID.TID 0000.0001)  cg2d: iter=   107 ; resid.=  6.14659205529468E-11
(PID.TID 0000.0001)  cg2d: iter=   108 ; resid.=  4.83249352993202E-11
(PID.TID 0000.0001)  cg2d: iter=   109 ; resid.=  3.91932462142857E-11
(PID.TID 0000.0001)  cg2d: iter=   110 ; resid.=  2.86092425696120E-11
(PID.TID 0000.0001)  cg2d: iter=   111 ; resid.=  2.03529462827656E-11
(PID.TID 0000.0001)  cg2d: iter=   112 ; resid.=  1.49330610996911E-11
(PID.TID 0000.0001)  cg2d: iter=   113 ; resid.=  1.13258517064135E-11
(PID.TID 0000.0001)  cg2d: iter=   114 ; resid.=  8.63773591899298E-12
(PID.TID 0000.0001)  cg2d: iter=   115 ; resid.=  6.52786697475223E-12
(PID.TID 0000.0001)  cg2d: iter=   116 ; resid.=  5.18907523738115E-12
(PID.TID 0000.0001)  cg2d: iter=   117 ; resid.=  3.95048409276813E-12
(PID.TID 0000.0001)  cg2d: iter=   118 ; resid.=  2.86808434602835E-12
(PID.TID 0000.0001)  cg2d: iter=   119 ; resid.=  1.90059763420916E-12
(PID.TID 0000.0001)  cg2d: iter=   120 ; resid.=  1.33835051217640E-12
(PID.TID 0000.0001)  cg2d: iter=   121 ; resid.=  9.96915783304588E-13
(PID.TID 0000.0001)  cg2d: iter=   122 ; resid.=  7.51744302003645E-13
(PID.TID 0000.0001)  cg2d: iter=   123 ; resid.=  5.66437834504832E-13
(PID.TID 0000.0001)  cg2d: iter=   124 ; resid.=  4.33763137595196E-13
(PID.TID 0000.0001)  cg2d: iter=   125 ; resid.=  3.55783909925220E-13
(PID.TID 0000.0001)  cg2d: iter=   126 ; resid.=  3.16066261843563E-13
(PID.TID 0000.0001)  cg2d: iter=   127 ; resid.=  2.48032738786309E-13
(PID.TID 0000.0001)  cg2d: iter=   128 ; resid.=  1.61105115973512E-13
(PID.TID 0000.0001)  cg2d: iter=   129 ; resid.=  1.07482381014406E-13
(PID.TID 0000.0001)  cg2d: iter=   130 ; resid.=  7.85469458517924E-14
DEBUG_STATS_RL:    cg2d_x (SOLVE_FOR_PRESSURE)  min= -1.65540237574006E+01
DEBUG_STATS_RL:    cg2d_x (SOLVE_FOR_PRESSURE)  max=  8.56042666225919E+00
DEBUG_STATS_RL:    cg2d_x (SOLVE_FOR_PRESSURE) mean= -1.62799485985551E+00
DEBUG_STATS_RL:    cg2d_x (SOLVE_FOR_PRESSURE) S.D.=  6.28757476696412E+00
(PID.TID 0000.0001)      cg2d_init_res =   4.29002753388860E-01
(PID.TID 0000.0001)      cg2d_iters(min,last) =      -1     130
(PID.TID 0000.0001)      cg2d_last_res =   7.85469458517924E-14
(PID.TID 0000.0001) // =======================================================
(PID.TID 0000.0001) // Begin MONITOR dynamic field statistics
(PID.TID 0000.0001) // =======================================================
(PID.TID 0000.0001) %MON time_tsnumber                =                    26
(PID.TID 0000.0001) %MON time_secondsf                =   2.2464000000000E+06
(PID.TID 0000.0001) %MON dynstat_eta_max              =   8.7262249360444E-01
(PID.TID 0000.0001) %MON dynstat_eta_min              =  -1.6874641954537E+00
(PID.TID 0000.0001) %MON dynstat_eta_mean             =  -1.9163901537524E-03
(PID.TID 0000.0001) %MON dynstat_eta_sd               =   5.6002382121727E-01
(PID.TID 0000.0001) %MON dynstat_eta_del2             =   2.0540743556049E-03
(PID.TID 0000.0001) %MON dynstat_uvel_max             =   1.1460148902140E-01
(PID.TID 0000.0001) %MON dynstat_uvel_min             =  -1.6154146405823E-01
(PID.TID 0000.0001) %MON dynstat_uvel_mean            =   1.1946309997619E-03
(PID.TID 0000.0001) %MON dynstat_uvel_sd              =   1.1078515841053E-02
(PID.TID 0000.0001) %MON dynstat_uvel_del2            =   7.6233270210713E-05
(PID.TID 0000.0001) %MON dynstat_vvel_max             =   1.2842207247725E-01
(PID.TID 0000.0001) %MON dynstat_vvel_min             =  -1.3678277791907E-01
(PID.TID 0000.0001) %MON dynstat_vvel_mean            =   2.6036985252017E-05
(PID.TID 0000.0001) %MON dynstat_vvel_sd              =   9.2374026353552E-03
(PID.TID 0000.0001) %MON dynstat_vvel_del2            =   7.8044361474872E-05
(PID.TID 0000.0001) %MON dynstat_wvel_max             =   1.1532316823869E-04
(PID.TID 0000.0001) %MON dynstat_wvel_min             =  -1.4066031304990E-04
(PID.TID 0000.0001) %MON dynstat_wvel_mean            =  -3.7750161104365E-22
(PID.TID 0000.0001) %MON dynstat_wvel_sd              =   1.4135123387904E-05
(PID.TID 0000.0001) %MON dynstat_wvel_del2            =   1.5631586412851E-07
(PID.TID 0000.0001) %MON dynstat_theta_max            =   2.9736635820933E+01
(PID.TID 0000.0001) %MON dynstat_theta_min            =  -1.9833766198303E+00
(PID.TID 0000.0001) %MON dynstat_theta_mean           =   3.6194544057444E+00
(PID.TID 0000.0001) %MON dynstat_theta_sd             =   4.4148479412815E+00
(PID.TID 0000.0001) %MON dynstat_theta_del2           =   4.8071281038082E-03
(PID.TID 0000.0001) %MON dynstat_salt_max             =   3.7449263772498E+01
(PID.TID 0000.0001) %MON dynstat_salt_min             =   2.9791218605095E+01
(PID.TID 0000.0001) %MON dynstat_salt_mean            =   3.4717281015920E+01
(PID.TID 0000.0001) %MON dynstat_salt_sd              =   2.9619384489048E-01
(PID.TID 0000.0001) %MON dynstat_salt_del2            =   1.0000934412904E-03
(PID.TID 0000.0001) %MON dynstat_sst_max              =   2.9736635820933E+01
(PID.TID 0000.0001) %MON dynstat_sst_min              =  -1.9833766198303E+00
(PID.TID 0000.0001) %MON dynstat_sst_mean             =   1.8632654281202E+01
(PID.TID 0000.0001) %MON dynstat_sst_sd               =   9.0970426236976E+00
(PID.TID 0000.0001) %MON dynstat_sst_del2             =   2.5625148871387E-02
(PID.TID 0000.0001) %MON dynstat_sss_max              =   3.7428441308006E+01
(PID.TID 0000.0001) %MON dynstat_sss_min              =   2.9791218605095E+01
(PID.TID 0000.0001) %MON dynstat_sss_mean             =   3.4847714826385E+01
(PID.TID 0000.0001) %MON dynstat_sss_sd               =   9.7378073159539E-01
(PID.TID 0000.0001) %MON dynstat_sss_del2             =   7.8782321456431E-03
(PID.TID 0000.0001) %MON forcing_qnet_max             =   4.0842274983724E+02
(PID.TID 0000.0001) %MON forcing_qnet_min             =  -1.7762435404460E+02
(PID.TID 0000.0001) %MON forcing_qnet_mean            =  -1.5663434327010E+01
(PID.TID 0000.0001) %MON forcing_qnet_sd              =   9.9257487839865E+01
(PID.TID 0000.0001) %MON forcing_qnet_del2            =   9.8746228186851E-01
(PID.TID 0000.0001) %MON forcing_qsw_max              =   0.0000000000000E+00
(PID.TID 0000.0001) %MON forcing_qsw_min              =   0.0000000000000E+00
(PID.TID 0000.0001) %MON forcing_qsw_mean             =   0.0000000000000E+00
(PID.TID 0000.0001) %MON forcing_qsw_sd               =   0.0000000000000E+00
(PID.TID 0000.0001) %MON forcing_qsw_del2             =   0.0000000000000E+00
(PID.TID 0000.0001) %MON forcing_empmr_max            =   7.9033341648937E-05
(PID.TID 0000.0001) %MON forcing_empmr_min            =  -7.6952398823475E-05
(PID.TID 0000.0001) %MON forcing_empmr_mean           =   9.2976103471021E-07
(PID.TID 0000.0001) %MON forcing_empmr_sd             =   2.8346308992535E-05
(PID.TID 0000.0001) %MON forcing_empmr_del2           =   3.5774711297823E-07
(PID.TID 0000.0001) %MON forcing_fu_max               =   2.7689236402512E-01
(PID.TID 0000.0001) %MON forcing_fu_min               =  -1.8253387510777E-01
(PID.TID 0000.0001) %MON forcing_fu_mean              =   1.6544737307256E-02
(PID.TID 0000.0001) %MON forcing_fu_sd                =   8.9976513162372E-02
(PID.TID 0000.0001) %MON forcing_fu_del2              =   6.7244408205288E-04
(PID.TID 0000.0001) %MON forcing_fv_max               =   2.0103685061137E-01
(PID.TID 0000.0001) %MON forcing_fv_min               =  -1.6822390258312E-01
(PID.TID 0000.0001) %MON forcing_fv_mean              =  -5.9115068066569E-03
(PID.TID 0000.0001) %MON forcing_fv_sd                =   4.5661871186592E-02
(PID.TID 0000.0001) %MON forcing_fv_del2              =   4.6455732257683E-04
(PID.TID 0000.0001) %MON trAdv_CFL_u_max              =   3.3035092996231E-02
(PID.TID 0000.0001) %MON trAdv_CFL_v_max              =   2.7837309621762E-02
(PID.TID 0000.0001) %MON trAdv_CFL_w_max              =   4.6089156766350E-02
(PID.TID 0000.0001) %MON advcfl_uvel_max              =   3.2345721827890E-02
(PID.TID 0000.0001) %MON advcfl_vvel_max              =   2.6574700017661E-02
(PID.TID 0000.0001) %MON advcfl_wvel_max              =   3.8024766825927E-02
(PID.TID 0000.0001) %MON advcfl_W_hf_max              =   4.6172931145768E-02
(PID.TID 0000.0001) %MON pe_b_mean                    =   4.0132783926679E-04
(PID.TID 0000.0001) %MON ke_max                       =   1.2645930730377E-02
(PID.TID 0000.0001) %MON ke_mean                      =   9.4716571095081E-05
(PID.TID 0000.0001) %MON ke_vol                       =   1.3226782436723E+18
(PID.TID 0000.0001) %MON vort_r_min                   =  -2.2277081773257E-07
(PID.TID 0000.0001) %MON vort_r_max                   =   3.5655354644875E-07
(PID.TID 0000.0001) %MON vort_a_mean                  =  -2.5274807269747E-05
(PID.TID 0000.0001) %MON vort_a_sd                    =   7.3604522038388E-05
(PID.TID 0000.0001) %MON vort_p_mean                  =  -3.1845655638568E-05
(PID.TID 0000.0001) %MON vort_p_sd                    =   1.3162537713403E-04
(PID.TID 0000.0001) %MON surfExpan_theta_mean         =  -1.6521011543777E-07
(PID.TID 0000.0001) %MON surfExpan_salt_mean          =   4.1683089769922E-08
(PID.TID 0000.0001) // =======================================================
(PID.TID 0000.0001) // End MONITOR dynamic field statistics
(PID.TID 0000.0001) // =======================================================
 EXTERNAL_FIELDS_LOAD,        26 : iP,iLd,i0,i1=    1    2    1    2 ; Wght=  0.6333333333  0.3666666667
 EXTERNAL_FIELDS_LOAD: (fu0,1),fu,fv= -3.5633E-02 -1.4435E-02 -2.7860E-02 -4.2729E-02
 EXTERNAL_FIELDS_LOAD: SST,SSS,Q,E-P=  4.1199E-01  3.4607E+01  2.5650E+02  1.0441E-05
DEBUG_STATS_RL:          Uvel (THERMODYNAMICS)  min= -1.61541464058231E-01
DEBUG_STATS_RL:          Uvel (THERMODYNAMICS)  max=  1.14601489021396E-01
DEBUG_STATS_RL:          Uvel (THERMODYNAMICS) mean=  2.53592028381687E-03
DEBUG_STATS_RL:          Uvel (THERMODYNAMICS) S.D.=  1.76725676392020E-02
DEBUG_STATS_RL:          Vvel (THERMODYNAMICS)  min= -1.36782777919071E-01
DEBUG_STATS_RL:          Vvel (THERMODYNAMICS)  max=  1.28422072477252E-01
DEBUG_STATS_RL:          Vvel (THERMODYNAMICS) mean=  1.55749407604575E-03
DEBUG_STATS_RL:          Vvel (THERMODYNAMICS) S.D.=  1.51563393090635E-02
DEBUG_STATS_RL:          Wvel (THERMODYNAMICS)  min= -1.40660313049898E-04
DEBUG_STATS_RL:          Wvel (THERMODYNAMICS)  max=  1.15323168238690E-04
DEBUG_STATS_RL:          Wvel (THERMODYNAMICS) mean=  3.38356173879593E-07
DEBUG_STATS_RL:          Wvel (THERMODYNAMICS) S.D.=  1.26165065861212E-05
DEBUG_STATS_RL:         Theta (THERMODYNAMICS)  min= -1.98238343324698E+00
DEBUG_STATS_RL:         Theta (THERMODYNAMICS)  max=  2.97465999820011E+01
DEBUG_STATS_RL:         Theta (THERMODYNAMICS) mean=  3.20477088711301E+00
DEBUG_STATS_RL:         Theta (THERMODYNAMICS) S.D.=  5.85323722181574E+00
DEBUG_STATS_RL:          Salt (THERMODYNAMICS)  min= -6.85830501234083E-04
DEBUG_STATS_RL:          Salt (THERMODYNAMICS)  max=  3.74502770940103E+01
DEBUG_STATS_RL:          Salt (THERMODYNAMICS) mean=  1.88443242346938E+01
DEBUG_STATS_RL:          Salt (THERMODYNAMICS) S.D.=  1.73005071578487E+01
DEBUG_STATS_RL:         GtNm1 (THERMODYNAMICS)  min= -2.69322135674625E-06
DEBUG_STATS_RL:         GtNm1 (THERMODYNAMICS)  max=  2.60554142360779E-06
DEBUG_STATS_RL:         GtNm1 (THERMODYNAMICS) mean= -2.18953913923409E-09
DEBUG_STATS_RL:         GtNm1 (THERMODYNAMICS) S.D.=  2.04244299131653E-07
DEBUG_STATS_RL:         GsNm1 (THERMODYNAMICS)  min= -4.45991090990315E-07
DEBUG_STATS_RL:         GsNm1 (THERMODYNAMICS)  max=  3.91585706368918E-07
DEBUG_STATS_RL:         GsNm1 (THERMODYNAMICS) mean= -6.25559687101535E-10
DEBUG_STATS_RL:         GsNm1 (THERMODYNAMICS) S.D.=  1.97479687106913E-08
DEBUG_STATS_RL:                EtaN (DYNAMICS)  min= -1.68746419545366E+00
DEBUG_STATS_RL:                EtaN (DYNAMICS)  max=  8.72622493604444E-01
DEBUG_STATS_RL:                EtaN (DYNAMICS) mean= -1.65952585102500E-01
DEBUG_STATS_RL:                EtaN (DYNAMICS) S.D.=  6.40935246377587E-01
DEBUG_STATS_RL:                Uvel (DYNAMICS)  min= -1.61541464058231E-01
DEBUG_STATS_RL:                Uvel (DYNAMICS)  max=  1.14601489021396E-01
DEBUG_STATS_RL:                Uvel (DYNAMICS) mean=  2.53592028381687E-03
DEBUG_STATS_RL:                Uvel (DYNAMICS) S.D.=  1.76725676392020E-02
DEBUG_STATS_RL:                Vvel (DYNAMICS)  min= -1.36782777919071E-01
DEBUG_STATS_RL:                Vvel (DYNAMICS)  max=  1.28422072477252E-01
DEBUG_STATS_RL:                Vvel (DYNAMICS) mean=  1.55749407604575E-03
DEBUG_STATS_RL:                Vvel (DYNAMICS) S.D.=  1.51563393090635E-02
DEBUG_STATS_RL:                Wvel (DYNAMICS)  min= -1.40660313049898E-04
DEBUG_STATS_RL:                Wvel (DYNAMICS)  max=  1.15323168238690E-04
DEBUG_STATS_RL:                Wvel (DYNAMICS) mean=  3.38356173879593E-07
DEBUG_STATS_RL:                Wvel (DYNAMICS) S.D.=  1.26165065861212E-05
DEBUG_STATS_RL:               Theta (DYNAMICS)  min= -1.98238343324698E+00
DEBUG_STATS_RL:               Theta (DYNAMICS)  max=  2.97465999820011E+01
DEBUG_STATS_RL:               Theta (DYNAMICS) mean=  3.20477088711301E+00
DEBUG_STATS_RL:               Theta (DYNAMICS) S.D.=  5.85323722181574E+00
DEBUG_STATS_RL:                Salt (DYNAMICS)  min= -6.85830501234083E-04
DEBUG_STATS_RL:                Salt (DYNAMICS)  max=  3.74502770940103E+01
DEBUG_STATS_RL:                Salt (DYNAMICS) mean=  1.88443242346938E+01
DEBUG_STATS_RL:                Salt (DYNAMICS) S.D.=  1.73005071578487E+01
DEBUG_STATS_RL:                  Gu (DYNAMICS)  min= -1.65152985282224E-01
DEBUG_STATS_RL:                  Gu (DYNAMICS)  max=  1.11260587308671E-01
DEBUG_STATS_RL:                  Gu (DYNAMICS) mean=  2.17468516993307E-03
DEBUG_STATS_RL:                  Gu (DYNAMICS) S.D.=  1.75277561428203E-02
DEBUG_STATS_RL:                  Gv (DYNAMICS)  min= -1.44637936337871E-01
DEBUG_STATS_RL:                  Gv (DYNAMICS)  max=  1.35767135429650E-01
DEBUG_STATS_RL:                  Gv (DYNAMICS) mean=  3.50470568456837E-03
DEBUG_STATS_RL:                  Gv (DYNAMICS) S.D.=  1.64131322066437E-02
DEBUG_STATS_RL:               GuNm1 (DYNAMICS)  min= -7.70199198074475E-06
DEBUG_STATS_RL:               GuNm1 (DYNAMICS)  max=  7.73996465035486E-06
DEBUG_STATS_RL:               GuNm1 (DYNAMICS) mean= -1.42647077296743E-08
DEBUG_STATS_RL:               GuNm1 (DYNAMICS) S.D.=  1.19345412707320E-06
DEBUG_STATS_RL:               GvNm1 (DYNAMICS)  min= -1.05616713682171E-05
DEBUG_STATS_RL:               GvNm1 (DYNAMICS)  max=  1.68255436618206E-05
DEBUG_STATS_RL:               GvNm1 (DYNAMICS) mean=  7.66009437732674E-07
DEBUG_STATS_RL:               GvNm1 (DYNAMICS) S.D.=  2.63850789632123E-06
DEBUG_STATS_RL:               GtNm1 (DYNAMICS)  min= -2.69322135674625E-06
DEBUG_STATS_RL:               GtNm1 (DYNAMICS)  max=  2.60554142360779E-06
DEBUG_STATS_RL:               GtNm1 (DYNAMICS) mean= -2.18953913923409E-09
DEBUG_STATS_RL:               GtNm1 (DYNAMICS) S.D.=  2.04244299131653E-07
DEBUG_STATS_RL:               GsNm1 (DYNAMICS)  min= -4.45991090990315E-07
DEBUG_STATS_RL:               GsNm1 (DYNAMICS)  max=  3.91585706368918E-07
DEBUG_STATS_RL:               GsNm1 (DYNAMICS) mean= -6.25559687101535E-10
DEBUG_STATS_RL:               GsNm1 (DYNAMICS) S.D.=  1.97479687106913E-08
DEBUG_STATS_RL:    cg2d_b (SOLVE_FOR_PRESSURE)  min= -2.24563531417037E+04
DEBUG_STATS_RL:    cg2d_b (SOLVE_FOR_PRESSURE)  max=  1.85426008760958E+04
DEBUG_STATS_RL:    cg2d_b (SOLVE_FOR_PRESSURE) mean=  1.91116332507865E+00
DEBUG_STATS_RL:    cg2d_b (SOLVE_FOR_PRESSURE) S.D.=  3.73527255316413E+03
 cg2d: Sum(rhs),rhsMax =   1.97019661636072E-01  1.47499339956439E+00
(PID.TID 0000.0001)  cg2d: iter=     1 ; resid.=  1.12325084592576E-01
(PID.TID 0000.0001)  cg2d: iter=     2 ; resid.=  5.62869006147795E-02
(PID.TID 0000.0001)  cg2d: iter=     3 ; resid.=  3.94157984066229E-02
(PID.TID 0000.0001)  cg2d: iter=     4 ; resid.=  3.36487943077757E-02
(PID.TID 0000.0001)  cg2d: iter=     5 ; resid.=  3.14833763845377E-02
(PID.TID 0000.0001)  cg2d: iter=     6 ; resid.=  2.79256484630145E-02
(PID.TID 0000.0001)  cg2d: iter=     7 ; resid.=  2.49763091657492E-02
(PID.TID 0000.0001)  cg2d: iter=     8 ; resid.=  2.11669502738965E-02
(PID.TID 0000.0001)  cg2d: iter=     9 ; resid.=  1.82271490528586E-02
(PID.TID 0000.0001)  cg2d: iter=    10 ; resid.=  1.56078550628636E-02
(PID.TID 0000.0001)  cg2d: iter=    11 ; resid.=  1.29390900498438E-02
(PID.TID 0000.0001)  cg2d: iter=    12 ; resid.=  1.04293445103010E-02
(PID.TID 0000.0001)  cg2d: iter=    13 ; resid.=  8.41387739251261E-03
(PID.TID 0000.0001)  cg2d: iter=    14 ; resid.=  6.18217929709018E-03
(PID.TID 0000.0001)  cg2d: iter=    15 ; resid.=  4.84555823709158E-03
(PID.TID 0000.0001)  cg2d: iter=    16 ; resid.=  3.55613101640405E-03
(PID.TID 0000.0001)  cg2d: iter=    17 ; resid.=  2.93825567398251E-03
(PID.TID 0000.0001)  cg2d: iter=    18 ; resid.=  2.78073343741838E-03
(PID.TID 0000.0001)  cg2d: iter=    19 ; resid.=  2.60565714947590E-03
(PID.TID 0000.0001)  cg2d: iter=    20 ; resid.=  2.27986518584544E-03
(PID.TID 0000.0001)  cg2d: iter=    21 ; resid.=  1.83345938888533E-03
(PID.TID 0000.0001)  cg2d: iter=    22 ; resid.=  1.45524858458462E-03
(PID.TID 0000.0001)  cg2d: iter=    23 ; resid.=  1.19722169751283E-03
(PID.TID 0000.0001)  cg2d: iter=    24 ; resid.=  1.05728656358595E-03
(PID.TID 0000.0001)  cg2d: iter=    25 ; resid.=  9.24296815093078E-04
(PID.TID 0000.0001)  cg2d: iter=    26 ; resid.=  7.48625765169567E-04
(PID.TID 0000.0001)  cg2d: iter=    27 ; resid.=  5.78621676536481E-04
(PID.TID 0000.0001)  cg2d: iter=    28 ; resid.=  4.67652233452779E-04
(PID.TID 0000.0001)  cg2d: iter=    29 ; resid.=  3.91709517684066E-04
(PID.TID 0000.0001)  cg2d: iter=    30 ; resid.=  3.14110508478513E-04
(PID.TID 0000.0001)  cg2d: iter=    31 ; resid.=  2.55677650192577E-04
(PID.TID 0000.0001)  cg2d: iter=    32 ; resid.=  2.21250967716581E-04
(PID.TID 0000.0001)  cg2d: iter=    33 ; resid.=  1.96206065499035E-04
(PID.TID 0000.0001)  cg2d: iter=    34 ; resid.=  1.68847444106024E-04
(PID.TID 0000.0001)  cg2d: iter=    35 ; resid.=  1.39656264668452E-04
(PID.TID 0000.0001)  cg2d: iter=    36 ; resid.=  1.16464549787665E-04
(PID.TID 0000.0001)  cg2d: iter=    37 ; resid.=  9.72915844148945E-05
(PID.TID 0000.0001)  cg2d: iter=    38 ; resid.=  8.34748282317110E-05
(PID.TID 0000.0001)  cg2d: iter=    39 ; resid.=  7.20322112272494E-05
(PID.TID 0000.0001)  cg2d: iter=    40 ; resid.=  6.25055979472717E-05
(PID.TID 0000.0001)  cg2d: iter=    41 ; resid.=  5.43832591559985E-05
(PID.TID 0000.0001)  cg2d: iter=    42 ; resid.=  4.71471097571696E-05
(PID.TID 0000.0001)  cg2d: iter=    43 ; resid.=  4.10880972795462E-05
(PID.TID 0000.0001)  cg2d: iter=    44 ; resid.=  3.27451900977652E-05
(PID.TID 0000.0001)  cg2d: iter=    45 ; resid.=  2.65830204234739E-05
(PID.TID 0000.0001)  cg2d: iter=    46 ; resid.=  2.07752699225010E-05
(PID.TID 0000.0001)  cg2d: iter=    47 ; resid.=  1.69744913233373E-05
(PID.TID 0000.0001)  cg2d: iter=    48 ; resid.=  1.38919782972804E-05
(PID.TID 0000.0001)  cg2d: iter=    49 ; resid.=  1.16489186748211E-05
(PID.TID 0000.0001)  cg2d: iter=    50 ; resid.=  9.95440356528124E-06
(PID.TID 0000.0001)  cg2d: iter=    51 ; resid.=  8.24058282484038E-06
(PID.TID 0000.0001)  cg2d: iter=    52 ; resid.=  6.34752485388506E-06
(PID.TID 0000.0001)  cg2d: iter=    53 ; resid.=  4.86592429703377E-06
(PID.TID 0000.0001)  cg2d: iter=    54 ; resid.=  4.34143645869692E-06
(PID.TID 0000.0001)  cg2d: iter=    55 ; resid.=  4.16855758922011E-06
(PID.TID 0000.0001)  cg2d: iter=    56 ; resid.=  3.84132338245169E-06
(PID.TID 0000.0001)  cg2d: iter=    57 ; resid.=  3.07869709008019E-06
(PID.TID 0000.0001)  cg2d: iter=    58 ; resid.=  2.37540734977514E-06
(PID.TID 0000.0001)  cg2d: iter=    59 ; resid.=  1.74086775969046E-06
(PID.TID 0000.0001)  cg2d: iter=    60 ; resid.=  1.34625724930231E-06
(PID.TID 0000.0001)  cg2d: iter=    61 ; resid.=  1.11158150786878E-06
(PID.TID 0000.0001)  cg2d: iter=    62 ; resid.=  8.82738283347480E-07
(PID.TID 0000.0001)  cg2d: iter=    63 ; resid.=  6.88855498794159E-07
(PID.TID 0000.0001)  cg2d: iter=    64 ; resid.=  5.26627517688031E-07
(PID.TID 0000.0001)  cg2d: iter=    65 ; resid.=  4.18461960208345E-07
(PID.TID 0000.0001)  cg2d: iter=    66 ; resid.=  3.75638987945300E-07
(PID.TID 0000.0001)  cg2d: iter=    67 ; resid.=  3.21703132867903E-07
(PID.TID 0000.0001)  cg2d: iter=    68 ; resid.=  2.72933707607612E-07
(PID.TID 0000.0001)  cg2d: iter=    69 ; resid.=  2.22431319068203E-07
(PID.TID 0000.0001)  cg2d: iter=    70 ; resid.=  1.85169238637095E-07
(PID.TID 0000.0001)  cg2d: iter=    71 ; resid.=  1.63089930206542E-07
(PID.TID 0000.0001)  cg2d: iter=    72 ; resid.=  1.35324991053714E-07
(PID.TID 0000.0001)  cg2d: iter=    73 ; resid.=  1.15193601075342E-07
(PID.TID 0000.0001)  cg2d: iter=    74 ; resid.=  9.99920583236586E-08
(PID.TID 0000.0001)  cg2d: iter=    75 ; resid.=  8.58637945985863E-08
(PID.TID 0000.0001)  cg2d: iter=    76 ; resid.=  7.26930935992768E-08
(PID.TID 0000.0001)  cg2d: iter=    77 ; resid.=  6.08498926686680E-08
(PID.TID 0000.0001)  cg2d: iter=    78 ; resid.=  4.85357674490055E-08
(PID.TID 0000.0001)  cg2d: iter=    79 ; resid.=  3.92864399533828E-08
(PID.TID 0000.0001)  cg2d: iter=    80 ; resid.=  3.02929081860513E-08
(PID.TID 0000.0001)  cg2d: iter=    81 ; resid.=  2.45608573956901E-08
(PID.TID 0000.0001)  cg2d: iter=    82 ; resid.=  2.25002037320968E-08
(PID.TID 0000.0001)  cg2d: iter=    83 ; resid.=  2.01723214785184E-08
(PID.TID 0000.0001)  cg2d: iter=    84 ; resid.=  1.56619040541858E-08
(PID.TID 0000.0001)  cg2d: iter=    85 ; resid.=  1.05771897427794E-08
(PID.TID 0000.0001)  cg2d: iter=    86 ; resid.=  6.95387317064406E-09
(PID.TID 0000.0001)  cg2d: iter=    87 ; resid.=  4.95292990345210E-09
(PID.TID 0000.0001)  cg2d: iter=    88 ; resid.=  3.81065055324499E-09
(PID.TID 0000.0001)  cg2d: iter=    89 ; resid.=  3.03060988763930E-09
(PID.TID 0000.0001)  cg2d: iter=    90 ; resid.=  2.37765615709388E-09
(PID.TID 0000.0001)  cg2d: iter=    91 ; resid.=  1.90821217848640E-09
(PID.TID 0000.0001)  cg2d: iter=    92 ; resid.=  1.69075025128634E-09
(PID.TID 0000.0001)  cg2d: iter=    93 ; resid.=  1.40544543865951E-09
(PID.TID 0000.0001)  cg2d: iter=    94 ; resid.=  1.08852205418654E-09
(PID.TID 0000.0001)  cg2d: iter=    95 ; resid.=  8.48089869160678E-10
(PID.TID 0000.0001)  cg2d: iter=    96 ; resid.=  7.15876654867396E-10
(PID.TID 0000.0001)  cg2d: iter=    97 ; resid.=  6.02960270094587E-10
(PID.TID 0000.0001)  cg2d: iter=    98 ; resid.=  4.93031566752886E-10
(PID.TID 0000.0001)  cg2d: iter=    99 ; resid.=  3.90724421832463E-10
(PID.TID 0000.0001)  cg2d: iter=   100 ; resid.=  3.16686038280680E-10
(PID.TID 0000.0001)  cg2d: iter=   101 ; resid.=  2.64796357878221E-10
(PID.TID 0000.0001)  cg2d: iter=   102 ; resid.=  2.11957407473929E-10
(PID.TID 0000.0001)  cg2d: iter=   103 ; resid.=  1.63027267157440E-10
(PID.TID 0000.0001)  cg2d: iter=   104 ; resid.=  1.38886897803642E-10
(PID.TID 0000.0001)  cg2d: iter=   105 ; resid.=  1.16347347628920E-10
(PID.TID 0000.0001)  cg2d: iter=   106 ; resid.=  9.41655951470666E-11
(PID.TID 0000.0001)  cg2d: iter=   107 ; resid.=  7.57395736873876E-11
(PID.TID 0000.0001)  cg2d: iter=   108 ; resid.=  5.78060468776751E-11
(PID.TID 0000.0001)  cg2d: iter=   109 ; resid.=  4.49446736881040E-11
(PID.TID 0000.0001)  cg2d: iter=   110 ; resid.=  3.22797090011615E-11
(PID.TID 0000.0001)  cg2d: iter=   111 ; resid.=  2.34504783734752E-11
(PID.TID 0000.0001)  cg2d: iter=   112 ; resid.=  1.81972111780079E-11
(PID.TID 0000.0001)  cg2d: iter=   113 ; resid.=  1.41418632481706E-11
(PID.TID 0000.0001)  cg2d: iter=   114 ; resid.=  1.05800757663743E-11
(PID.TID 0000.0001)  cg2d: iter=   115 ; resid.=  7.57742812377116E-12
(PID.TID 0000.0001)  cg2d: iter=   116 ; resid.=  5.70205217369981E-12
(PID.TID 0000.0001)  cg2d: iter=   117 ; resid.=  4.18253105836580E-12
(PID.TID 0000.0001)  cg2d: iter=   118 ; resid.=  2.97976936533470E-12
(PID.TID 0000.0001)  cg2d: iter=   119 ; resid.=  2.02482100835406E-12
(PID.TID 0000.0001)  cg2d: iter=   120 ; resid.=  1.46018519245037E-12
(PID.TID 0000.0001)  cg2d: iter=   121 ; resid.=  1.09313004250027E-12
(PID.TID 0000.0001)  cg2d: iter=   122 ; resid.=  8.14522306243957E-13
(PID.TID 0000.0001)  cg2d: iter=   123 ; resid.=  6.04255366122757E-13
(PID.TID 0000.0001)  cg2d: iter=   124 ; resid.=  4.55637368035412E-13
(PID.TID 0000.0001)  cg2d: iter=   125 ; resid.=  3.87326105529008E-13
(PID.TID 0000.0001)  cg2d: iter=   126 ; resid.=  3.60065663087244E-13
(PID.TID 0000.0001)  cg2d: iter=   127 ; resid.=  2.96139519030983E-13
(PID.TID 0000.0001)  cg2d: iter=   128 ; resid.=  1.99031245800318E-13
(PID.TID 0000.0001)  cg2d: iter=   129 ; resid.=  1.33009947087393E-13
(PID.TID 0000.0001)  cg2d: iter=   130 ; resid.=  9.56371552428824E-14
DEBUG_STATS_RL:    cg2d_x (SOLVE_FOR_PRESSURE)  min= -1.66046995332889E+01
DEBUG_STATS_RL:    cg2d_x (SOLVE_FOR_PRESSURE)  max=  8.51543957965607E+00
DEBUG_STATS_RL:    cg2d_x (SOLVE_FOR_PRESSURE) mean= -1.62043998061413E+00
DEBUG_STATS_RL:    cg2d_x (SOLVE_FOR_PRESSURE) S.D.=  6.26774893183147E+00
(PID.TID 0000.0001)      cg2d_init_res =   4.23944647327422E-01
(PID.TID 0000.0001)      cg2d_iters(min,last) =      -1     130
(PID.TID 0000.0001)      cg2d_last_res =   9.56371552428824E-14
(PID.TID 0000.0001) // =======================================================
(PID.TID 0000.0001) // Begin MONITOR dynamic field statistics
(PID.TID 0000.0001) // =======================================================
(PID.TID 0000.0001) %MON time_tsnumber                =                    27
(PID.TID 0000.0001) %MON time_secondsf                =   2.3328000000000E+06
(PID.TID 0000.0001) %MON dynstat_eta_max              =   8.6803665439924E-01
(PID.TID 0000.0001) %MON dynstat_eta_min              =  -1.6926299218440E+00
(PID.TID 0000.0001) %MON dynstat_eta_mean             =  -1.9940619532909E-03
(PID.TID 0000.0001) %MON dynstat_eta_sd               =   5.5794177800561E-01
(PID.TID 0000.0001) %MON dynstat_eta_del2             =   2.0838797608758E-03
(PID.TID 0000.0001) %MON dynstat_uvel_max             =   1.0235611735859E-01
(PID.TID 0000.0001) %MON dynstat_uvel_min             =  -1.6378283261798E-01
(PID.TID 0000.0001) %MON dynstat_uvel_mean            =   1.2304881521647E-03
(PID.TID 0000.0001) %MON dynstat_uvel_sd              =   1.0785018957409E-02
(PID.TID 0000.0001) %MON dynstat_uvel_del2            =   7.4548867257776E-05
(PID.TID 0000.0001) %MON dynstat_vvel_max             =   1.1751828940555E-01
(PID.TID 0000.0001) %MON dynstat_vvel_min             =  -1.3421928643208E-01
(PID.TID 0000.0001) %MON dynstat_vvel_mean            =   3.1188575829318E-05
(PID.TID 0000.0001) %MON dynstat_vvel_sd              =   8.9374118821971E-03
(PID.TID 0000.0001) %MON dynstat_vvel_del2            =   7.5738016648399E-05
(PID.TID 0000.0001) %MON dynstat_wvel_max             =   1.1313115172651E-04
(PID.TID 0000.0001) %MON dynstat_wvel_min             =  -1.3809578748384E-04
(PID.TID 0000.0001) %MON dynstat_wvel_mean            =   1.1985115629583E-22
(PID.TID 0000.0001) %MON dynstat_wvel_sd              =   1.3471474977919E-05
(PID.TID 0000.0001) %MON dynstat_wvel_del2            =   1.5220994070626E-07
(PID.TID 0000.0001) %MON dynstat_theta_max            =   2.9746599982001E+01
(PID.TID 0000.0001) %MON dynstat_theta_min            =  -1.9823834332470E+00
(PID.TID 0000.0001) %MON dynstat_theta_mean           =   3.6195247052629E+00
(PID.TID 0000.0001) %MON dynstat_theta_sd             =   4.4149654838158E+00
(PID.TID 0000.0001) %MON dynstat_theta_del2           =   4.8037447843550E-03
(PID.TID 0000.0001) %MON dynstat_salt_max             =   3.7450277094010E+01
(PID.TID 0000.0001) %MON dynstat_salt_min             =   2.9794538392696E+01
(PID.TID 0000.0001) %MON dynstat_salt_mean            =   3.4717281380040E+01
(PID.TID 0000.0001) %MON dynstat_salt_sd              =   2.9619484518010E-01
(PID.TID 0000.0001) %MON dynstat_salt_del2            =   9.9822749327135E-04
(PID.TID 0000.0001) %MON dynstat_sst_max              =   2.9746599982001E+01
(PID.TID 0000.0001) %MON dynstat_sst_min              =  -1.9823834332470E+00
(PID.TID 0000.0001) %MON dynstat_sst_mean             =   1.8634414839383E+01
(PID.TID 0000.0001) %MON dynstat_sst_sd               =   9.0983190861467E+00
(PID.TID 0000.0001) %MON dynstat_sst_del2             =   2.5591322078717E-02
(PID.TID 0000.0001) %MON dynstat_sss_max              =   3.7428001821183E+01
(PID.TID 0000.0001) %MON dynstat_sss_min              =   2.9794538392696E+01
(PID.TID 0000.0001) %MON dynstat_sss_mean             =   3.4846995806017E+01
(PID.TID 0000.0001) %MON dynstat_sss_sd               =   9.7409998167241E-01
(PID.TID 0000.0001) %MON dynstat_sss_del2             =   7.8667172067004E-03
(PID.TID 0000.0001) %MON forcing_qnet_max             =   4.0510366312663E+02
(PID.TID 0000.0001) %MON forcing_qnet_min             =  -1.7738483479818E+02
(PID.TID 0000.0001) %MON forcing_qnet_mean            =  -1.5578525159607E+01
(PID.TID 0000.0001) %MON forcing_qnet_sd              =   9.8219108614254E+01
(PID.TID 0000.0001) %MON forcing_qnet_del2            =   9.8437596337033E-01
(PID.TID 0000.0001) %MON forcing_qsw_max              =   0.0000000000000E+00
(PID.TID 0000.0001) %MON forcing_qsw_min              =   0.0000000000000E+00
(PID.TID 0000.0001) %MON forcing_qsw_mean             =   0.0000000000000E+00
(PID.TID 0000.0001) %MON forcing_qsw_sd               =   0.0000000000000E+00
(PID.TID 0000.0001) %MON forcing_qsw_del2             =   0.0000000000000E+00
(PID.TID 0000.0001) %MON forcing_empmr_max            =   7.8719251916937E-05
(PID.TID 0000.0001) %MON forcing_empmr_min            =  -7.7032043085031E-05
(PID.TID 0000.0001) %MON forcing_empmr_mean           =   9.3044343197016E-07
(PID.TID 0000.0001) %MON forcing_empmr_sd             =   2.8310676615472E-05
(PID.TID 0000.0001) %MON forcing_empmr_del2           =   3.5708477950409E-07
(PID.TID 0000.0001) %MON forcing_fu_max               =   2.7827952206135E-01
(PID.TID 0000.0001) %MON forcing_fu_min               =  -1.8419379889965E-01
(PID.TID 0000.0001) %MON forcing_fu_mean              =   1.6599037522725E-02
(PID.TID 0000.0001) %MON forcing_fu_sd                =   8.9963961949749E-02
(PID.TID 0000.0001) %MON forcing_fu_del2              =   6.7044165395875E-04
(PID.TID 0000.0001) %MON forcing_fv_max               =   1.9782840361198E-01
(PID.TID 0000.0001) %MON forcing_fv_min               =  -1.6723260283470E-01
(PID.TID 0000.0001) %MON forcing_fv_mean              =  -5.9767677133721E-03
(PID.TID 0000.0001) %MON forcing_fv_sd                =   4.5481939075567E-02
(PID.TID 0000.0001) %MON forcing_fv_del2              =   4.6378982619852E-04
(PID.TID 0000.0001) %MON trAdv_CFL_u_max              =   3.2352291475333E-02
(PID.TID 0000.0001) %MON trAdv_CFL_v_max              =   2.7288651220716E-02
(PID.TID 0000.0001) %MON trAdv_CFL_w_max              =   4.6172931145768E-02
(PID.TID 0000.0001) %MON advcfl_uvel_max              =   3.2794514862978E-02
(PID.TID 0000.0001) %MON advcfl_vvel_max              =   2.6076654735200E-02
(PID.TID 0000.0001) %MON advcfl_wvel_max              =   3.7929396526750E-02
(PID.TID 0000.0001) %MON advcfl_W_hf_max              =   4.6057124353910E-02
(PID.TID 0000.0001) %MON pe_b_mean                    =   3.9834971575707E-04
(PID.TID 0000.0001) %MON ke_max                       =   1.2890505434198E-02
(PID.TID 0000.0001) %MON ke_mean                      =   8.9393158477183E-05
(PID.TID 0000.0001) %MON ke_vol                       =   1.3226782436723E+18
(PID.TID 0000.0001) %MON vort_r_min                   =  -2.4022679661945E-07
(PID.TID 0000.0001) %MON vort_r_max                   =   3.6725024724017E-07
(PID.TID 0000.0001) %MON vort_a_mean                  =  -2.5274807248412E-05
(PID.TID 0000.0001) %MON vort_a_sd                    =   7.3604529004430E-05
(PID.TID 0000.0001) %MON vort_p_mean                  =  -3.1845655611687E-05
(PID.TID 0000.0001) %MON vort_p_sd                    =   1.3162545245360E-04
(PID.TID 0000.0001) %MON surfExpan_theta_mean         =  -9.6792007090174E-08
(PID.TID 0000.0001) %MON surfExpan_salt_mean          =   3.2338650694977E-08
(PID.TID 0000.0001) // =======================================================
(PID.TID 0000.0001) // End MONITOR dynamic field statistics
(PID.TID 0000.0001) // =======================================================
 EXTERNAL_FIELDS_LOAD,        27 : iP,iLd,i0,i1=    1    2    1    2 ; Wght=  0.6000000000  0.4000000000
 EXTERNAL_FIELDS_LOAD: (fu0,1),fu,fv= -3.5633E-02 -1.4435E-02 -2.7154E-02 -4.1408E-02
 EXTERNAL_FIELDS_LOAD: SST,SSS,Q,E-P=  3.6231E-01  3.4597E+01  2.5565E+02  1.0333E-05
DEBUG_STATS_RL:          Uvel (THERMODYNAMICS)  min= -1.63782832617978E-01
DEBUG_STATS_RL:          Uvel (THERMODYNAMICS)  max=  1.02356117358589E-01
DEBUG_STATS_RL:          Uvel (THERMODYNAMICS) mean=  2.22951010766126E-03
DEBUG_STATS_RL:          Uvel (THERMODYNAMICS) S.D.=  1.71628653710229E-02
DEBUG_STATS_RL:          Vvel (THERMODYNAMICS)  min= -1.34219286432083E-01
DEBUG_STATS_RL:          Vvel (THERMODYNAMICS)  max=  1.17518289405555E-01
DEBUG_STATS_RL:          Vvel (THERMODYNAMICS) mean=  1.33864644234681E-03
DEBUG_STATS_RL:          Vvel (THERMODYNAMICS) S.D.=  1.45674644847053E-02
DEBUG_STATS_RL:          Wvel (THERMODYNAMICS)  min= -1.38095787483841E-04
DEBUG_STATS_RL:          Wvel (THERMODYNAMICS)  max=  1.13131151726515E-04
DEBUG_STATS_RL:          Wvel (THERMODYNAMICS) mean=  2.62349705372451E-07
DEBUG_STATS_RL:          Wvel (THERMODYNAMICS) S.D.=  1.19658886543757E-05
DEBUG_STATS_RL:         Theta (THERMODYNAMICS)  min= -1.98140993648802E+00
DEBUG_STATS_RL:         Theta (THERMODYNAMICS)  max=  2.97572041323441E+01
DEBUG_STATS_RL:         Theta (THERMODYNAMICS) mean=  3.20469723364828E+00
DEBUG_STATS_RL:         Theta (THERMODYNAMICS) S.D.=  5.85322287843186E+00
DEBUG_STATS_RL:          Salt (THERMODYNAMICS)  min= -6.85830501234083E-04
DEBUG_STATS_RL:          Salt (THERMODYNAMICS)  max=  3.74511973004240E+01
DEBUG_STATS_RL:          Salt (THERMODYNAMICS) mean=  1.88442949766851E+01
DEBUG_STATS_RL:          Salt (THERMODYNAMICS) S.D.=  1.73004807315217E+01
DEBUG_STATS_RL:         GtNm1 (THERMODYNAMICS)  min= -2.95267824444310E-06
DEBUG_STATS_RL:         GtNm1 (THERMODYNAMICS)  max=  2.59191597645528E-06
DEBUG_STATS_RL:         GtNm1 (THERMODYNAMICS) mean= -1.18493911857256E-09
DEBUG_STATS_RL:         GtNm1 (THERMODYNAMICS) S.D.=  1.99466095307951E-07
DEBUG_STATS_RL:         GsNm1 (THERMODYNAMICS)  min= -4.34284804887524E-07
DEBUG_STATS_RL:         GsNm1 (THERMODYNAMICS)  max=  4.07854803316747E-07
DEBUG_STATS_RL:         GsNm1 (THERMODYNAMICS) mean= -6.45981884658315E-10
DEBUG_STATS_RL:         GsNm1 (THERMODYNAMICS) S.D.=  1.92371860275913E-08
DEBUG_STATS_RL:                EtaN (DYNAMICS)  min= -1.69262992184395E+00
DEBUG_STATS_RL:                EtaN (DYNAMICS)  max=  8.68036654399244E-01
DEBUG_STATS_RL:                EtaN (DYNAMICS) mean= -1.65182464894407E-01
DEBUG_STATS_RL:                EtaN (DYNAMICS) S.D.=  6.38914264203005E-01
DEBUG_STATS_RL:                Uvel (DYNAMICS)  min= -1.63782832617978E-01
DEBUG_STATS_RL:                Uvel (DYNAMICS)  max=  1.02356117358589E-01
DEBUG_STATS_RL:                Uvel (DYNAMICS) mean=  2.22951010766126E-03
DEBUG_STATS_RL:                Uvel (DYNAMICS) S.D.=  1.71628653710229E-02
DEBUG_STATS_RL:                Vvel (DYNAMICS)  min= -1.34219286432083E-01
DEBUG_STATS_RL:                Vvel (DYNAMICS)  max=  1.17518289405555E-01
DEBUG_STATS_RL:                Vvel (DYNAMICS) mean=  1.33864644234681E-03
DEBUG_STATS_RL:                Vvel (DYNAMICS) S.D.=  1.45674644847053E-02
DEBUG_STATS_RL:                Wvel (DYNAMICS)  min= -1.38095787483841E-04
DEBUG_STATS_RL:                Wvel (DYNAMICS)  max=  1.13131151726515E-04
DEBUG_STATS_RL:                Wvel (DYNAMICS) mean=  2.62349705372451E-07
DEBUG_STATS_RL:                Wvel (DYNAMICS) S.D.=  1.19658886543757E-05
DEBUG_STATS_RL:               Theta (DYNAMICS)  min= -1.98140993648802E+00
DEBUG_STATS_RL:               Theta (DYNAMICS)  max=  2.97572041323441E+01
DEBUG_STATS_RL:               Theta (DYNAMICS) mean=  3.20469723364828E+00
DEBUG_STATS_RL:               Theta (DYNAMICS) S.D.=  5.85322287843186E+00
DEBUG_STATS_RL:                Salt (DYNAMICS)  min= -6.85830501234083E-04
DEBUG_STATS_RL:                Salt (DYNAMICS)  max=  3.74511973004240E+01
DEBUG_STATS_RL:                Salt (DYNAMICS) mean=  1.88442949766851E+01
DEBUG_STATS_RL:                Salt (DYNAMICS) S.D.=  1.73004807315217E+01
DEBUG_STATS_RL:                  Gu (DYNAMICS)  min= -1.66872220761549E-01
DEBUG_STATS_RL:                  Gu (DYNAMICS)  max=  9.90815717363047E-02
DEBUG_STATS_RL:                  Gu (DYNAMICS) mean=  1.92377965736193E-03
DEBUG_STATS_RL:                  Gu (DYNAMICS) S.D.=  1.71773816135098E-02
DEBUG_STATS_RL:                  Gv (DYNAMICS)  min= -1.40443558993883E-01
DEBUG_STATS_RL:                  Gv (DYNAMICS)  max=  1.22486455393678E-01
DEBUG_STATS_RL:                  Gv (DYNAMICS) mean=  3.26935948535234E-03
DEBUG_STATS_RL:                  Gv (DYNAMICS) S.D.=  1.57176045223110E-02
DEBUG_STATS_RL:               GuNm1 (DYNAMICS)  min= -7.74044123204395E-06
DEBUG_STATS_RL:               GuNm1 (DYNAMICS)  max=  7.67942518648959E-06
DEBUG_STATS_RL:               GuNm1 (DYNAMICS) mean= -1.51020291100374E-08
DEBUG_STATS_RL:               GuNm1 (DYNAMICS) S.D.=  1.19669716856632E-06
DEBUG_STATS_RL:               GvNm1 (DYNAMICS)  min= -1.06679375240350E-05
DEBUG_STATS_RL:               GvNm1 (DYNAMICS)  max=  1.67193780592441E-05
DEBUG_STATS_RL:               GvNm1 (DYNAMICS) mean=  7.64801582235530E-07
DEBUG_STATS_RL:               GvNm1 (DYNAMICS) S.D.=  2.64353305845309E-06
DEBUG_STATS_RL:               GtNm1 (DYNAMICS)  min= -2.95267824444310E-06
DEBUG_STATS_RL:               GtNm1 (DYNAMICS)  max=  2.59191597645528E-06
DEBUG_STATS_RL:               GtNm1 (DYNAMICS) mean= -1.18493911857256E-09
DEBUG_STATS_RL:               GtNm1 (DYNAMICS) S.D.=  1.99466095307951E-07
DEBUG_STATS_RL:               GsNm1 (DYNAMICS)  min= -4.34284804887524E-07
DEBUG_STATS_RL:               GsNm1 (DYNAMICS)  max=  4.07854803316747E-07
DEBUG_STATS_RL:               GsNm1 (DYNAMICS) mean= -6.45981884658315E-10
DEBUG_STATS_RL:               GsNm1 (DYNAMICS) S.D.=  1.92371860275913E-08
DEBUG_STATS_RL:    cg2d_b (SOLVE_FOR_PRESSURE)  min= -2.21722418568708E+04
DEBUG_STATS_RL:    cg2d_b (SOLVE_FOR_PRESSURE)  max=  1.87150802651678E+04
DEBUG_STATS_RL:    cg2d_b (SOLVE_FOR_PRESSURE) mean=  1.98566069186791E+00
DEBUG_STATS_RL:    cg2d_b (SOLVE_FOR_PRESSURE) S.D.=  3.76317167873455E+03
 cg2d: Sum(rhs),rhsMax =   2.07322495007298E-01  1.45633220968971E+00
(PID.TID 0000.0001)  cg2d: iter=     1 ; resid.=  1.10591063075872E-01
(PID.TID 0000.0001)  cg2d: iter=     2 ; resid.=  5.49430675479747E-02
(PID.TID 0000.0001)  cg2d: iter=     3 ; resid.=  3.65771297340148E-02
(PID.TID 0000.0001)  cg2d: iter=     4 ; resid.=  2.92495065970974E-02
(PID.TID 0000.0001)  cg2d: iter=     5 ; resid.=  2.69927331247577E-02
(PID.TID 0000.0001)  cg2d: iter=     6 ; resid.=  2.37059271293617E-02
(PID.TID 0000.0001)  cg2d: iter=     7 ; resid.=  2.12660759753297E-02
(PID.TID 0000.0001)  cg2d: iter=     8 ; resid.=  1.80494733631956E-02
(PID.TID 0000.0001)  cg2d: iter=     9 ; resid.=  1.56192168326668E-02
(PID.TID 0000.0001)  cg2d: iter=    10 ; resid.=  1.37227485852776E-02
(PID.TID 0000.0001)  cg2d: iter=    11 ; resid.=  1.16342814206978E-02
(PID.TID 0000.0001)  cg2d: iter=    12 ; resid.=  9.70109009191635E-03
(PID.TID 0000.0001)  cg2d: iter=    13 ; resid.=  8.25742446948372E-03
(PID.TID 0000.0001)  cg2d: iter=    14 ; resid.=  6.34194565820164E-03
(PID.TID 0000.0001)  cg2d: iter=    15 ; resid.=  5.12704315710126E-03
(PID.TID 0000.0001)  cg2d: iter=    16 ; resid.=  3.90596739757689E-03
(PID.TID 0000.0001)  cg2d: iter=    17 ; resid.=  3.32780596513366E-03
(PID.TID 0000.0001)  cg2d: iter=    18 ; resid.=  3.12158012202059E-03
(PID.TID 0000.0001)  cg2d: iter=    19 ; resid.=  2.80938554028076E-03
(PID.TID 0000.0001)  cg2d: iter=    20 ; resid.=  2.43539177950262E-03
(PID.TID 0000.0001)  cg2d: iter=    21 ; resid.=  1.96545880208594E-03
(PID.TID 0000.0001)  cg2d: iter=    22 ; resid.=  1.56425469058658E-03
(PID.TID 0000.0001)  cg2d: iter=    23 ; resid.=  1.26734914437486E-03
(PID.TID 0000.0001)  cg2d: iter=    24 ; resid.=  1.07422898973517E-03
(PID.TID 0000.0001)  cg2d: iter=    25 ; resid.=  9.16842304004740E-04
(PID.TID 0000.0001)  cg2d: iter=    26 ; resid.=  7.58330121624425E-04
(PID.TID 0000.0001)  cg2d: iter=    27 ; resid.=  6.19303882358831E-04
(PID.TID 0000.0001)  cg2d: iter=    28 ; resid.=  5.24596433953303E-04
(PID.TID 0000.0001)  cg2d: iter=    29 ; resid.=  4.58619526704064E-04
(PID.TID 0000.0001)  cg2d: iter=    30 ; resid.=  3.78400153867054E-04
(PID.TID 0000.0001)  cg2d: iter=    31 ; resid.=  3.15675893890146E-04
(PID.TID 0000.0001)  cg2d: iter=    32 ; resid.=  2.69642272356159E-04
(PID.TID 0000.0001)  cg2d: iter=    33 ; resid.=  2.32886240254510E-04
(PID.TID 0000.0001)  cg2d: iter=    34 ; resid.=  1.94490465058550E-04
(PID.TID 0000.0001)  cg2d: iter=    35 ; resid.=  1.55690754350781E-04
(PID.TID 0000.0001)  cg2d: iter=    36 ; resid.=  1.26926825905595E-04
(PID.TID 0000.0001)  cg2d: iter=    37 ; resid.=  1.04186558171768E-04
(PID.TID 0000.0001)  cg2d: iter=    38 ; resid.=  9.08364854466121E-05
(PID.TID 0000.0001)  cg2d: iter=    39 ; resid.=  7.91678095430743E-05
(PID.TID 0000.0001)  cg2d: iter=    40 ; resid.=  6.84041826426188E-05
(PID.TID 0000.0001)  cg2d: iter=    41 ; resid.=  5.93900864753191E-05
(PID.TID 0000.0001)  cg2d: iter=    42 ; resid.=  5.07048366187638E-05
(PID.TID 0000.0001)  cg2d: iter=    43 ; resid.=  4.27976947133622E-05
(PID.TID 0000.0001)  cg2d: iter=    44 ; resid.=  3.29663507428993E-05
(PID.TID 0000.0001)  cg2d: iter=    45 ; resid.=  2.69692225727417E-05
(PID.TID 0000.0001)  cg2d: iter=    46 ; resid.=  2.17498200278287E-05
(PID.TID 0000.0001)  cg2d: iter=    47 ; resid.=  1.83413375659693E-05
(PID.TID 0000.0001)  cg2d: iter=    48 ; resid.=  1.49801414013642E-05
(PID.TID 0000.0001)  cg2d: iter=    49 ; resid.=  1.23498123858246E-05
(PID.TID 0000.0001)  cg2d: iter=    50 ; resid.=  1.03235755841165E-05
(PID.TID 0000.0001)  cg2d: iter=    51 ; resid.=  8.44957529378622E-06
(PID.TID 0000.0001)  cg2d: iter=    52 ; resid.=  6.42536018263224E-06
(PID.TID 0000.0001)  cg2d: iter=    53 ; resid.=  4.84740592004903E-06
(PID.TID 0000.0001)  cg2d: iter=    54 ; resid.=  4.20619551194323E-06
(PID.TID 0000.0001)  cg2d: iter=    55 ; resid.=  3.90720991489964E-06
(PID.TID 0000.0001)  cg2d: iter=    56 ; resid.=  3.61933288075112E-06
(PID.TID 0000.0001)  cg2d: iter=    57 ; resid.=  2.97320294896307E-06
(PID.TID 0000.0001)  cg2d: iter=    58 ; resid.=  2.36068633029429E-06
(PID.TID 0000.0001)  cg2d: iter=    59 ; resid.=  1.77368336012006E-06
(PID.TID 0000.0001)  cg2d: iter=    60 ; resid.=  1.40681616689717E-06
(PID.TID 0000.0001)  cg2d: iter=    61 ; resid.=  1.18627655340642E-06
(PID.TID 0000.0001)  cg2d: iter=    62 ; resid.=  9.87373630477066E-07
(PID.TID 0000.0001)  cg2d: iter=    63 ; resid.=  8.03302561983088E-07
(PID.TID 0000.0001)  cg2d: iter=    64 ; resid.=  6.27250589647295E-07
(PID.TID 0000.0001)  cg2d: iter=    65 ; resid.=  5.17297007016146E-07
(PID.TID 0000.0001)  cg2d: iter=    66 ; resid.=  4.72264561296180E-07
(PID.TID 0000.0001)  cg2d: iter=    67 ; resid.=  3.99948298823678E-07
(PID.TID 0000.0001)  cg2d: iter=    68 ; resid.=  3.24614195984451E-07
(PID.TID 0000.0001)  cg2d: iter=    69 ; resid.=  2.51487646896265E-07
(PID.TID 0000.0001)  cg2d: iter=    70 ; resid.=  2.00083823493868E-07
(PID.TID 0000.0001)  cg2d: iter=    71 ; resid.=  1.72540103978189E-07
(PID.TID 0000.0001)  cg2d: iter=    72 ; resid.=  1.42512674027007E-07
(PID.TID 0000.0001)  cg2d: iter=    73 ; resid.=  1.17421192428386E-07
(PID.TID 0000.0001)  cg2d: iter=    74 ; resid.=  9.76604297682856E-08
(PID.TID 0000.0001)  cg2d: iter=    75 ; resid.=  8.20000927574150E-08
(PID.TID 0000.0001)  cg2d: iter=    76 ; resid.=  7.20670267213587E-08
(PID.TID 0000.0001)  cg2d: iter=    77 ; resid.=  6.33573002250466E-08
(PID.TID 0000.0001)  cg2d: iter=    78 ; resid.=  5.20626553144377E-08
(PID.TID 0000.0001)  cg2d: iter=    79 ; resid.=  4.22939643377489E-08
(PID.TID 0000.0001)  cg2d: iter=    80 ; resid.=  3.25237952753845E-08
(PID.TID 0000.0001)  cg2d: iter=    81 ; resid.=  2.71321869385359E-08
(PID.TID 0000.0001)  cg2d: iter=    82 ; resid.=  2.45839972703909E-08
(PID.TID 0000.0001)  cg2d: iter=    83 ; resid.=  2.12237304293637E-08
(PID.TID 0000.0001)  cg2d: iter=    84 ; resid.=  1.61494104865661E-08
(PID.TID 0000.0001)  cg2d: iter=    85 ; resid.=  1.10532192077099E-08
(PID.TID 0000.0001)  cg2d: iter=    86 ; resid.=  7.62533002072478E-09
(PID.TID 0000.0001)  cg2d: iter=    87 ; resid.=  5.64922193613483E-09
(PID.TID 0000.0001)  cg2d: iter=    88 ; resid.=  4.36936576819755E-09
(PID.TID 0000.0001)  cg2d: iter=    89 ; resid.=  3.48200608151183E-09
(PID.TID 0000.0001)  cg2d: iter=    90 ; resid.=  2.74751812792174E-09
(PID.TID 0000.0001)  cg2d: iter=    91 ; resid.=  2.18408902703549E-09
(PID.TID 0000.0001)  cg2d: iter=    92 ; resid.=  1.85074604517385E-09
(PID.TID 0000.0001)  cg2d: iter=    93 ; resid.=  1.44833349044253E-09
(PID.TID 0000.0001)  cg2d: iter=    94 ; resid.=  1.03195948711711E-09
(PID.TID 0000.0001)  cg2d: iter=    95 ; resid.=  7.15518508565494E-10
(PID.TID 0000.0001)  cg2d: iter=    96 ; resid.=  5.29448649051159E-10
(PID.TID 0000.0001)  cg2d: iter=    97 ; resid.=  3.97890105570577E-10
(PID.TID 0000.0001)  cg2d: iter=    98 ; resid.=  2.97031825806549E-10
(PID.TID 0000.0001)  cg2d: iter=    99 ; resid.=  2.17990905647069E-10
(PID.TID 0000.0001)  cg2d: iter=   100 ; resid.=  1.64861797690357E-10
(PID.TID 0000.0001)  cg2d: iter=   101 ; resid.=  1.31304616651394E-10
(PID.TID 0000.0001)  cg2d: iter=   102 ; resid.=  1.02041475019458E-10
(PID.TID 0000.0001)  cg2d: iter=   103 ; resid.=  7.27331564679904E-11
(PID.TID 0000.0001)  cg2d: iter=   104 ; resid.=  5.73902444515336E-11
(PID.TID 0000.0001)  cg2d: iter=   105 ; resid.=  4.74592961097527E-11
(PID.TID 0000.0001)  cg2d: iter=   106 ; resid.=  4.08033537446299E-11
(PID.TID 0000.0001)  cg2d: iter=   107 ; resid.=  3.71400765834306E-11
(PID.TID 0000.0001)  cg2d: iter=   108 ; resid.=  3.21553314358122E-11
(PID.TID 0000.0001)  cg2d: iter=   109 ; resid.=  2.74144768134135E-11
(PID.TID 0000.0001)  cg2d: iter=   110 ; resid.=  2.09098504251997E-11
(PID.TID 0000.0001)  cg2d: iter=   111 ; resid.=  1.57707089762427E-11
(PID.TID 0000.0001)  cg2d: iter=   112 ; resid.=  1.30652257163954E-11
(PID.TID 0000.0001)  cg2d: iter=   113 ; resid.=  1.10855696725451E-11
(PID.TID 0000.0001)  cg2d: iter=   114 ; resid.=  8.68385644629142E-12
(PID.TID 0000.0001)  cg2d: iter=   115 ; resid.=  6.44658427594555E-12
(PID.TID 0000.0001)  cg2d: iter=   116 ; resid.=  5.09119306286734E-12
(PID.TID 0000.0001)  cg2d: iter=   117 ; resid.=  3.95980999567012E-12
(PID.TID 0000.0001)  cg2d: iter=   118 ; resid.=  3.00256654556679E-12
(PID.TID 0000.0001)  cg2d: iter=   119 ; resid.=  2.21502196505560E-12
(PID.TID 0000.0001)  cg2d: iter=   120 ; resid.=  1.71338906342867E-12
(PID.TID 0000.0001)  cg2d: iter=   121 ; resid.=  1.33097829250680E-12
(PID.TID 0000.0001)  cg2d: iter=   122 ; resid.=  1.02640469268396E-12
(PID.TID 0000.0001)  cg2d: iter=   123 ; resid.=  7.97084214208413E-13
(PID.TID 0000.0001)  cg2d: iter=   124 ; resid.=  6.22295635334725E-13
(PID.TID 0000.0001)  cg2d: iter=   125 ; resid.=  5.10164369937280E-13
(PID.TID 0000.0001)  cg2d: iter=   126 ; resid.=  4.31432413573533E-13
(PID.TID 0000.0001)  cg2d: iter=   127 ; resid.=  3.21946592531603E-13
(PID.TID 0000.0001)  cg2d: iter=   128 ; resid.=  2.06034443965980E-13
(PID.TID 0000.0001)  cg2d: iter=   129 ; resid.=  1.31551088492062E-13
(PID.TID 0000.0001)  cg2d: iter=   130 ; resid.=  9.10235491509259E-14
DEBUG_STATS_RL:    cg2d_x (SOLVE_FOR_PRESSURE)  min= -1.66339870060839E+01
DEBUG_STATS_RL:    cg2d_x (SOLVE_FOR_PRESSURE)  max=  8.53043767339881E+00
DEBUG_STATS_RL:    cg2d_x (SOLVE_FOR_PRESSURE) mean= -1.61644099037421E+00
DEBUG_STATS_RL:    cg2d_x (SOLVE_FOR_PRESSURE) S.D.=  6.25989846970544E+00
(PID.TID 0000.0001)      cg2d_init_res =   4.20642187911126E-01
(PID.TID 0000.0001)      cg2d_iters(min,last) =      -1     130
(PID.TID 0000.0001)      cg2d_last_res =   9.10235491509259E-14
(PID.TID 0000.0001) // =======================================================
(PID.TID 0000.0001) // Begin MONITOR dynamic field statistics
(PID.TID 0000.0001) // =======================================================
(PID.TID 0000.0001) %MON time_tsnumber                =                    28
(PID.TID 0000.0001) %MON time_secondsf                =   2.4192000000000E+06
(PID.TID 0000.0001) %MON dynstat_eta_max              =   8.6956551206927E-01
(PID.TID 0000.0001) %MON dynstat_eta_min              =  -1.6956153930768E+00
(PID.TID 0000.0001) %MON dynstat_eta_mean             =  -2.0717907181655E-03
(PID.TID 0000.0001) %MON dynstat_eta_sd               =   5.5706167225193E-01
(PID.TID 0000.0001) %MON dynstat_eta_del2             =   2.1091637844432E-03
(PID.TID 0000.0001) %MON dynstat_uvel_max             =   9.0094501576538E-02
(PID.TID 0000.0001) %MON dynstat_uvel_min             =  -1.6540001238550E-01
(PID.TID 0000.0001) %MON dynstat_uvel_mean            =   1.2612979386629E-03
(PID.TID 0000.0001) %MON dynstat_uvel_sd              =   1.0585668995274E-02
(PID.TID 0000.0001) %MON dynstat_uvel_del2            =   7.3360801915047E-05
(PID.TID 0000.0001) %MON dynstat_vvel_max             =   1.1527690834360E-01
(PID.TID 0000.0001) %MON dynstat_vvel_min             =  -1.3204915584354E-01
(PID.TID 0000.0001) %MON dynstat_vvel_mean            =   3.4473928516763E-05
(PID.TID 0000.0001) %MON dynstat_vvel_sd              =   8.6433725438188E-03
(PID.TID 0000.0001) %MON dynstat_vvel_del2            =   7.3905483292198E-05
(PID.TID 0000.0001) %MON dynstat_wvel_max             =   1.1072939322737E-04
(PID.TID 0000.0001) %MON dynstat_wvel_min             =  -1.3111244651878E-04
(PID.TID 0000.0001) %MON dynstat_wvel_mean            =  -2.4082622181294E-22
(PID.TID 0000.0001) %MON dynstat_wvel_sd              =   1.3009907644759E-05
(PID.TID 0000.0001) %MON dynstat_wvel_del2            =   1.5121070905025E-07
(PID.TID 0000.0001) %MON dynstat_theta_max            =   2.9757204132344E+01
(PID.TID 0000.0001) %MON dynstat_theta_min            =  -1.9814099364880E+00
(PID.TID 0000.0001) %MON dynstat_theta_mean           =   3.6195933561263E+00
(PID.TID 0000.0001) %MON dynstat_theta_sd             =   4.4150831630067E+00
(PID.TID 0000.0001) %MON dynstat_theta_del2           =   4.7991293415220E-03
(PID.TID 0000.0001) %MON dynstat_salt_max             =   3.7451197300424E+01
(PID.TID 0000.0001) %MON dynstat_salt_min             =   2.9797440103929E+01
(PID.TID 0000.0001) %MON dynstat_salt_mean            =   3.4717281997251E+01
(PID.TID 0000.0001) %MON dynstat_salt_sd              =   2.9619592975430E-01
(PID.TID 0000.0001) %MON dynstat_salt_del2            =   9.9628177808912E-04
(PID.TID 0000.0001) %MON dynstat_sst_max              =   2.9757204132344E+01
(PID.TID 0000.0001) %MON dynstat_sst_min              =  -1.9814099364880E+00
(PID.TID 0000.0001) %MON dynstat_sst_mean             =   1.8636792516109E+01
(PID.TID 0000.0001) %MON dynstat_sst_sd               =   9.0988923370858E+00
(PID.TID 0000.0001) %MON dynstat_sst_del2             =   2.5554973660743E-02
(PID.TID 0000.0001) %MON dynstat_sss_max              =   3.7427440740330E+01
(PID.TID 0000.0001) %MON dynstat_sss_min              =   2.9797440103929E+01
(PID.TID 0000.0001) %MON dynstat_sss_mean             =   3.4846317976036E+01
(PID.TID 0000.0001) %MON dynstat_sss_sd               =   9.7438683144902E-01
(PID.TID 0000.0001) %MON dynstat_sss_del2             =   7.8554274698117E-03
(PID.TID 0000.0001) %MON forcing_qnet_max             =   4.0178457641602E+02
(PID.TID 0000.0001) %MON forcing_qnet_min             =  -1.7714531555176E+02
(PID.TID 0000.0001) %MON forcing_qnet_mean            =  -1.5493615992204E+01
(PID.TID 0000.0001) %MON forcing_qnet_sd              =   9.7185485181804E+01
(PID.TID 0000.0001) %MON forcing_qnet_del2            =   9.8140782401500E-01
(PID.TID 0000.0001) %MON forcing_qsw_max              =   0.0000000000000E+00
(PID.TID 0000.0001) %MON forcing_qsw_min              =   0.0000000000000E+00
(PID.TID 0000.0001) %MON forcing_qsw_mean             =   0.0000000000000E+00
(PID.TID 0000.0001) %MON forcing_qsw_sd               =   0.0000000000000E+00
(PID.TID 0000.0001) %MON forcing_qsw_del2             =   0.0000000000000E+00
(PID.TID 0000.0001) %MON forcing_empmr_max            =   7.8405162184936E-05
(PID.TID 0000.0001) %MON forcing_empmr_min            =  -7.7111687346587E-05
(PID.TID 0000.0001) %MON forcing_empmr_mean           =   9.3112582923013E-07
(PID.TID 0000.0001) %MON forcing_empmr_sd             =   2.8276845244070E-05
(PID.TID 0000.0001) %MON forcing_empmr_del2           =   3.5648229163624E-07
(PID.TID 0000.0001) %MON forcing_fu_max               =   2.7966668009758E-01
(PID.TID 0000.0001) %MON forcing_fu_min               =  -1.8585372269154E-01
(PID.TID 0000.0001) %MON forcing_fu_mean              =   1.6653337738194E-02
(PID.TID 0000.0001) %MON forcing_fu_sd                =   8.9968991920605E-02
(PID.TID 0000.0001) %MON forcing_fu_del2              =   6.6906282054806E-04
(PID.TID 0000.0001) %MON forcing_fv_max               =   1.9461995661259E-01
(PID.TID 0000.0001) %MON forcing_fv_min               =  -1.6624130308628E-01
(PID.TID 0000.0001) %MON forcing_fv_mean              =  -6.0420286200872E-03
(PID.TID 0000.0001) %MON forcing_fv_sd                =   4.5317127835513E-02
(PID.TID 0000.0001) %MON forcing_fv_del2              =   4.6354194610910E-04
(PID.TID 0000.0001) %MON trAdv_CFL_u_max              =   3.2801175663497E-02
(PID.TID 0000.0001) %MON trAdv_CFL_v_max              =   2.6777225541548E-02
(PID.TID 0000.0001) %MON trAdv_CFL_w_max              =   4.6057124353910E-02
(PID.TID 0000.0001) %MON advcfl_uvel_max              =   3.3118325515623E-02
(PID.TID 0000.0001) %MON advcfl_vvel_max              =   2.5655033166556E-02
(PID.TID 0000.0001) %MON advcfl_wvel_max              =   3.7670487854904E-02
(PID.TID 0000.0001) %MON advcfl_W_hf_max              =   4.5742735252383E-02
(PID.TID 0000.0001) %MON pe_b_mean                    =   3.9709440172089E-04
(PID.TID 0000.0001) %MON ke_max                       =   1.3140628228264E-02
(PID.TID 0000.0001) %MON ke_mean                      =   8.5171850335682E-05
(PID.TID 0000.0001) %MON ke_vol                       =   1.3226782436723E+18
(PID.TID 0000.0001) %MON vort_r_min                   =  -2.5803453815570E-07
(PID.TID 0000.0001) %MON vort_r_max                   =   3.7700357845825E-07
(PID.TID 0000.0001) %MON vort_a_mean                  =  -2.5274807216559E-05
(PID.TID 0000.0001) %MON vort_a_sd                    =   7.3604534870307E-05
(PID.TID 0000.0001) %MON vort_p_mean                  =  -3.1845655571553E-05
(PID.TID 0000.0001) %MON vort_p_sd                    =   1.3162549240169E-04
(PID.TID 0000.0001) %MON surfExpan_theta_mean         =  -1.8931107337638E-08
(PID.TID 0000.0001) %MON surfExpan_salt_mean          =   2.4356778021164E-08
(PID.TID 0000.0001) // =======================================================
(PID.TID 0000.0001) // End MONITOR dynamic field statistics
(PID.TID 0000.0001) // =======================================================
 EXTERNAL_FIELDS_LOAD,        28 : iP,iLd,i0,i1=    1    2    1    2 ; Wght=  0.5666666667  0.4333333333
 EXTERNAL_FIELDS_LOAD: (fu0,1),fu,fv= -3.5633E-02 -1.4435E-02 -2.6447E-02 -4.0088E-02
 EXTERNAL_FIELDS_LOAD: SST,SSS,Q,E-P=  3.1264E-01  3.4587E+01  2.5481E+02  1.0224E-05
DEBUG_STATS_RL:          Uvel (THERMODYNAMICS)  min= -1.65400012385497E-01
DEBUG_STATS_RL:          Uvel (THERMODYNAMICS)  max=  9.00945015765384E-02
DEBUG_STATS_RL:          Uvel (THERMODYNAMICS) mean=  1.98703388981229E-03
DEBUG_STATS_RL:          Uvel (THERMODYNAMICS) S.D.=  1.68238152750322E-02
DEBUG_STATS_RL:          Vvel (THERMODYNAMICS)  min= -1.32049155843541E-01
DEBUG_STATS_RL:          Vvel (THERMODYNAMICS)  max=  1.15276908343597E-01
DEBUG_STATS_RL:          Vvel (THERMODYNAMICS) mean=  1.09496561575675E-03
DEBUG_STATS_RL:          Vvel (THERMODYNAMICS) S.D.=  1.39921481694205E-02
DEBUG_STATS_RL:          Wvel (THERMODYNAMICS)  min= -1.31112446518785E-04
DEBUG_STATS_RL:          Wvel (THERMODYNAMICS)  max=  1.10729393227368E-04
DEBUG_STATS_RL:          Wvel (THERMODYNAMICS) mean=  1.77242394117465E-07
DEBUG_STATS_RL:          Wvel (THERMODYNAMICS) S.D.=  1.15431040783186E-05
DEBUG_STATS_RL:         Theta (THERMODYNAMICS)  min= -1.98044264310331E+00
DEBUG_STATS_RL:         Theta (THERMODYNAMICS)  max=  2.97683820779830E+01
DEBUG_STATS_RL:         Theta (THERMODYNAMICS) mean=  3.20468814533783E+00
DEBUG_STATS_RL:         Theta (THERMODYNAMICS) S.D.=  5.85323474313717E+00
DEBUG_STATS_RL:          Salt (THERMODYNAMICS)  min= -6.85830501234083E-04
DEBUG_STATS_RL:          Salt (THERMODYNAMICS)  max=  3.74520088065565E+01
DEBUG_STATS_RL:          Salt (THERMODYNAMICS) mean=  1.88442657529677E+01
DEBUG_STATS_RL:          Salt (THERMODYNAMICS) S.D.=  1.73004543337508E+01
DEBUG_STATS_RL:         GtNm1 (THERMODYNAMICS)  min= -2.76752913021752E-06
DEBUG_STATS_RL:         GtNm1 (THERMODYNAMICS)  max=  2.56585286113293E-06
DEBUG_STATS_RL:         GtNm1 (THERMODYNAMICS) mean=  7.92112515300036E-11
DEBUG_STATS_RL:         GtNm1 (THERMODYNAMICS) S.D.=  1.95546614367135E-07
DEBUG_STATS_RL:         GsNm1 (THERMODYNAMICS)  min= -4.43946931817076E-07
DEBUG_STATS_RL:         GsNm1 (THERMODYNAMICS)  max=  4.14609655832552E-07
DEBUG_STATS_RL:         GsNm1 (THERMODYNAMICS) mean= -6.48943670240060E-10
DEBUG_STATS_RL:         GsNm1 (THERMODYNAMICS) S.D.=  1.86801840211891E-08
DEBUG_STATS_RL:                EtaN (DYNAMICS)  min= -1.69561539307678E+00
DEBUG_STATS_RL:                EtaN (DYNAMICS)  max=  8.69565512069266E-01
DEBUG_STATS_RL:                EtaN (DYNAMICS) mean= -1.64774820629380E-01
DEBUG_STATS_RL:                EtaN (DYNAMICS) S.D.=  6.38114013221763E-01
DEBUG_STATS_RL:                Uvel (DYNAMICS)  min= -1.65400012385497E-01
DEBUG_STATS_RL:                Uvel (DYNAMICS)  max=  9.00945015765384E-02
DEBUG_STATS_RL:                Uvel (DYNAMICS) mean=  1.98703388981229E-03
DEBUG_STATS_RL:                Uvel (DYNAMICS) S.D.=  1.68238152750322E-02
DEBUG_STATS_RL:                Vvel (DYNAMICS)  min= -1.32049155843541E-01
DEBUG_STATS_RL:                Vvel (DYNAMICS)  max=  1.15276908343597E-01
DEBUG_STATS_RL:                Vvel (DYNAMICS) mean=  1.09496561575675E-03
DEBUG_STATS_RL:                Vvel (DYNAMICS) S.D.=  1.39921481694205E-02
DEBUG_STATS_RL:                Wvel (DYNAMICS)  min= -1.31112446518785E-04
DEBUG_STATS_RL:                Wvel (DYNAMICS)  max=  1.10729393227368E-04
DEBUG_STATS_RL:                Wvel (DYNAMICS) mean=  1.77242394117465E-07
DEBUG_STATS_RL:                Wvel (DYNAMICS) S.D.=  1.15431040783186E-05
DEBUG_STATS_RL:               Theta (DYNAMICS)  min= -1.98044264310331E+00
DEBUG_STATS_RL:               Theta (DYNAMICS)  max=  2.97683820779830E+01
DEBUG_STATS_RL:               Theta (DYNAMICS) mean=  3.20468814533783E+00
DEBUG_STATS_RL:               Theta (DYNAMICS) S.D.=  5.85323474313717E+00
DEBUG_STATS_RL:                Salt (DYNAMICS)  min= -6.85830501234083E-04
DEBUG_STATS_RL:                Salt (DYNAMICS)  max=  3.74520088065565E+01
DEBUG_STATS_RL:                Salt (DYNAMICS) mean=  1.88442657529677E+01
DEBUG_STATS_RL:                Salt (DYNAMICS) S.D.=  1.73004543337508E+01
DEBUG_STATS_RL:                  Gu (DYNAMICS)  min= -1.67957804632376E-01
DEBUG_STATS_RL:                  Gu (DYNAMICS)  max=  8.86632375757683E-02
DEBUG_STATS_RL:                  Gu (DYNAMICS) mean=  1.74113745182469E-03
DEBUG_STATS_RL:                  Gu (DYNAMICS) S.D.=  1.69972000551360E-02
DEBUG_STATS_RL:                  Gv (DYNAMICS)  min= -1.37746460647626E-01
DEBUG_STATS_RL:                  Gv (DYNAMICS)  max=  1.09667982559167E-01
DEBUG_STATS_RL:                  Gv (DYNAMICS) mean=  3.02234664905942E-03
DEBUG_STATS_RL:                  Gv (DYNAMICS) S.D.=  1.50510518366888E-02
DEBUG_STATS_RL:               GuNm1 (DYNAMICS)  min= -7.76595586060774E-06
DEBUG_STATS_RL:               GuNm1 (DYNAMICS)  max=  7.60450386371920E-06
DEBUG_STATS_RL:               GuNm1 (DYNAMICS) mean= -1.59878727038706E-08
DEBUG_STATS_RL:               GuNm1 (DYNAMICS) S.D.=  1.19838256756363E-06
DEBUG_STATS_RL:               GvNm1 (DYNAMICS)  min= -1.07421304789199E-05
DEBUG_STATS_RL:               GvNm1 (DYNAMICS)  max=  1.66609409131448E-05
DEBUG_STATS_RL:               GvNm1 (DYNAMICS) mean=  7.63564099127610E-07
DEBUG_STATS_RL:               GvNm1 (DYNAMICS) S.D.=  2.64674138851599E-06
DEBUG_STATS_RL:               GtNm1 (DYNAMICS)  min= -2.76752913021752E-06
DEBUG_STATS_RL:               GtNm1 (DYNAMICS)  max=  2.56585286113293E-06
DEBUG_STATS_RL:               GtNm1 (DYNAMICS) mean=  7.92112515300036E-11
DEBUG_STATS_RL:               GtNm1 (DYNAMICS) S.D.=  1.95546614367135E-07
DEBUG_STATS_RL:               GsNm1 (DYNAMICS)  min= -4.43946931817076E-07
DEBUG_STATS_RL:               GsNm1 (DYNAMICS)  max=  4.14609655832552E-07
DEBUG_STATS_RL:               GsNm1 (DYNAMICS) mean= -6.48943670240060E-10
DEBUG_STATS_RL:               GsNm1 (DYNAMICS) S.D.=  1.86801840211891E-08
DEBUG_STATS_RL:    cg2d_b (SOLVE_FOR_PRESSURE)  min= -2.18219224922823E+04
DEBUG_STATS_RL:    cg2d_b (SOLVE_FOR_PRESSURE)  max=  1.88181547977599E+04
DEBUG_STATS_RL:    cg2d_b (SOLVE_FOR_PRESSURE) mean=  2.06021265578586E+00
DEBUG_STATS_RL:    cg2d_b (SOLVE_FOR_PRESSURE) S.D.=  3.78150494656767E+03
 cg2d: Sum(rhs),rhsMax =   2.18559675474556E-01  1.43332229586946E+00
(PID.TID 0000.0001)  cg2d: iter=     1 ; resid.=  1.09168437578974E-01
(PID.TID 0000.0001)  cg2d: iter=     2 ; resid.=  5.50946823263047E-02
(PID.TID 0000.0001)  cg2d: iter=     3 ; resid.=  3.71360757792987E-02
(PID.TID 0000.0001)  cg2d: iter=     4 ; resid.=  2.98488434594856E-02
(PID.TID 0000.0001)  cg2d: iter=     5 ; resid.=  2.77435989174153E-02
(PID.TID 0000.0001)  cg2d: iter=     6 ; resid.=  2.41658876373713E-02
(PID.TID 0000.0001)  cg2d: iter=     7 ; resid.=  2.17759693403001E-02
(PID.TID 0000.0001)  cg2d: iter=     8 ; resid.=  1.83557106369849E-02
(PID.TID 0000.0001)  cg2d: iter=     9 ; resid.=  1.55357391614676E-02
(PID.TID 0000.0001)  cg2d: iter=    10 ; resid.=  1.33584434045864E-02
(PID.TID 0000.0001)  cg2d: iter=    11 ; resid.=  1.12033760487827E-02
(PID.TID 0000.0001)  cg2d: iter=    12 ; resid.=  9.53533337911248E-03
(PID.TID 0000.0001)  cg2d: iter=    13 ; resid.=  8.56970877840355E-03
(PID.TID 0000.0001)  cg2d: iter=    14 ; resid.=  6.93710159748857E-03
(PID.TID 0000.0001)  cg2d: iter=    15 ; resid.=  5.80331492820389E-03
(PID.TID 0000.0001)  cg2d: iter=    16 ; resid.=  4.61805383060056E-03
(PID.TID 0000.0001)  cg2d: iter=    17 ; resid.=  4.08117563718562E-03
(PID.TID 0000.0001)  cg2d: iter=    18 ; resid.=  3.76674168641971E-03
(PID.TID 0000.0001)  cg2d: iter=    19 ; resid.=  3.21542429167560E-03
(PID.TID 0000.0001)  cg2d: iter=    20 ; resid.=  2.72634606795257E-03
(PID.TID 0000.0001)  cg2d: iter=    21 ; resid.=  2.17132925870488E-03
(PID.TID 0000.0001)  cg2d: iter=    22 ; resid.=  1.70805194190028E-03
(PID.TID 0000.0001)  cg2d: iter=    23 ; resid.=  1.34970540338773E-03
(PID.TID 0000.0001)  cg2d: iter=    24 ; resid.=  1.09331594155708E-03
(PID.TID 0000.0001)  cg2d: iter=    25 ; resid.=  8.94808415799881E-04
(PID.TID 0000.0001)  cg2d: iter=    26 ; resid.=  7.43211349700928E-04
(PID.TID 0000.0001)  cg2d: iter=    27 ; resid.=  6.33671548780532E-04
(PID.TID 0000.0001)  cg2d: iter=    28 ; resid.=  5.60807564253160E-04
(PID.TID 0000.0001)  cg2d: iter=    29 ; resid.=  5.10104474372892E-04
(PID.TID 0000.0001)  cg2d: iter=    30 ; resid.=  4.32422417408213E-04
(PID.TID 0000.0001)  cg2d: iter=    31 ; resid.=  3.67347774922788E-04
(PID.TID 0000.0001)  cg2d: iter=    32 ; resid.=  3.04537235225060E-04
(PID.TID 0000.0001)  cg2d: iter=    33 ; resid.=  2.51158645268233E-04
(PID.TID 0000.0001)  cg2d: iter=    34 ; resid.=  2.00671085347764E-04
(PID.TID 0000.0001)  cg2d: iter=    35 ; resid.=  1.55544605599680E-04
(PID.TID 0000.0001)  cg2d: iter=    36 ; resid.=  1.25644710658864E-04
(PID.TID 0000.0001)  cg2d: iter=    37 ; resid.=  1.02261924853570E-04
(PID.TID 0000.0001)  cg2d: iter=    38 ; resid.=  9.00073408593598E-05
(PID.TID 0000.0001)  cg2d: iter=    39 ; resid.=  7.78612485739217E-05
(PID.TID 0000.0001)  cg2d: iter=    40 ; resid.=  6.66566180722969E-05
(PID.TID 0000.0001)  cg2d: iter=    41 ; resid.=  5.76141015877995E-05
(PID.TID 0000.0001)  cg2d: iter=    42 ; resid.=  4.87300626782054E-05
(PID.TID 0000.0001)  cg2d: iter=    43 ; resid.=  4.06592134856146E-05
(PID.TID 0000.0001)  cg2d: iter=    44 ; resid.=  3.13755731315288E-05
(PID.TID 0000.0001)  cg2d: iter=    45 ; resid.=  2.65489479550188E-05
(PID.TID 0000.0001)  cg2d: iter=    46 ; resid.=  2.25762940192463E-05
(PID.TID 0000.0001)  cg2d: iter=    47 ; resid.=  2.00308501997986E-05
(PID.TID 0000.0001)  cg2d: iter=    48 ; resid.=  1.67431845518585E-05
(PID.TID 0000.0001)  cg2d: iter=    49 ; resid.=  1.38499805749218E-05
(PID.TID 0000.0001)  cg2d: iter=    50 ; resid.=  1.15842352910404E-05
(PID.TID 0000.0001)  cg2d: iter=    51 ; resid.=  9.53953451350743E-06
(PID.TID 0000.0001)  cg2d: iter=    52 ; resid.=  7.28586786001706E-06
(PID.TID 0000.0001)  cg2d: iter=    53 ; resid.=  5.55851923687616E-06
(PID.TID 0000.0001)  cg2d: iter=    54 ; resid.=  4.69887178193970E-06
(PID.TID 0000.0001)  cg2d: iter=    55 ; resid.=  4.11755823005521E-06
(PID.TID 0000.0001)  cg2d: iter=    56 ; resid.=  3.65783458655279E-06
(PID.TID 0000.0001)  cg2d: iter=    57 ; resid.=  2.92790618018770E-06
(PID.TID 0000.0001)  cg2d: iter=    58 ; resid.=  2.28713091971836E-06
(PID.TID 0000.0001)  cg2d: iter=    59 ; resid.=  1.69420669667745E-06
(PID.TID 0000.0001)  cg2d: iter=    60 ; resid.=  1.31492540813098E-06
(PID.TID 0000.0001)  cg2d: iter=    61 ; resid.=  1.09302239753725E-06
(PID.TID 0000.0001)  cg2d: iter=    62 ; resid.=  9.30963142179200E-07
(PID.TID 0000.0001)  cg2d: iter=    63 ; resid.=  7.65624313235344E-07
(PID.TID 0000.0001)  cg2d: iter=    64 ; resid.=  5.96170744778802E-07
(PID.TID 0000.0001)  cg2d: iter=    65 ; resid.=  4.93737163767088E-07
(PID.TID 0000.0001)  cg2d: iter=    66 ; resid.=  4.48368996000510E-07
(PID.TID 0000.0001)  cg2d: iter=    67 ; resid.=  3.76549620503662E-07
(PID.TID 0000.0001)  cg2d: iter=    68 ; resid.=  3.02347066186450E-07
(PID.TID 0000.0001)  cg2d: iter=    69 ; resid.=  2.34597586651780E-07
(PID.TID 0000.0001)  cg2d: iter=    70 ; resid.=  1.85761636053927E-07
(PID.TID 0000.0001)  cg2d: iter=    71 ; resid.=  1.62584325796314E-07
(PID.TID 0000.0001)  cg2d: iter=    72 ; resid.=  1.37008503284323E-07
(PID.TID 0000.0001)  cg2d: iter=    73 ; resid.=  1.11302733525333E-07
(PID.TID 0000.0001)  cg2d: iter=    74 ; resid.=  9.11759011985111E-08
(PID.TID 0000.0001)  cg2d: iter=    75 ; resid.=  7.40914841243933E-08
(PID.TID 0000.0001)  cg2d: iter=    76 ; resid.=  6.39367112564469E-08
(PID.TID 0000.0001)  cg2d: iter=    77 ; resid.=  5.52962639264374E-08
(PID.TID 0000.0001)  cg2d: iter=    78 ; resid.=  4.48979173926208E-08
(PID.TID 0000.0001)  cg2d: iter=    79 ; resid.=  3.66433853089668E-08
(PID.TID 0000.0001)  cg2d: iter=    80 ; resid.=  2.86095366600676E-08
(PID.TID 0000.0001)  cg2d: iter=    81 ; resid.=  2.42752372651707E-08
(PID.TID 0000.0001)  cg2d: iter=    82 ; resid.=  2.16016621323417E-08
(PID.TID 0000.0001)  cg2d: iter=    83 ; resid.=  1.84645917723728E-08
(PID.TID 0000.0001)  cg2d: iter=    84 ; resid.=  1.43808204154176E-08
(PID.TID 0000.0001)  cg2d: iter=    85 ; resid.=  1.05852470059466E-08
(PID.TID 0000.0001)  cg2d: iter=    86 ; resid.=  8.10689589621769E-09
(PID.TID 0000.0001)  cg2d: iter=    87 ; resid.=  6.44084929839586E-09
(PID.TID 0000.0001)  cg2d: iter=    88 ; resid.=  5.09697325942434E-09
(PID.TID 0000.0001)  cg2d: iter=    89 ; resid.=  4.18274794506755E-09
(PID.TID 0000.0001)  cg2d: iter=    90 ; resid.=  3.41511650555402E-09
(PID.TID 0000.0001)  cg2d: iter=    91 ; resid.=  2.77124598440801E-09
(PID.TID 0000.0001)  cg2d: iter=    92 ; resid.=  2.30933925001835E-09
(PID.TID 0000.0001)  cg2d: iter=    93 ; resid.=  1.74440122182793E-09
(PID.TID 0000.0001)  cg2d: iter=    94 ; resid.=  1.20390434824106E-09
(PID.TID 0000.0001)  cg2d: iter=    95 ; resid.=  8.27658348746132E-10
(PID.TID 0000.0001)  cg2d: iter=    96 ; resid.=  6.14617114827621E-10
(PID.TID 0000.0001)  cg2d: iter=    97 ; resid.=  4.62955908496046E-10
(PID.TID 0000.0001)  cg2d: iter=    98 ; resid.=  3.51186353918726E-10
(PID.TID 0000.0001)  cg2d: iter=    99 ; resid.=  2.67677139728254E-10
(PID.TID 0000.0001)  cg2d: iter=   100 ; resid.=  2.19425770575997E-10
(PID.TID 0000.0001)  cg2d: iter=   101 ; resid.=  1.97630276930727E-10
(PID.TID 0000.0001)  cg2d: iter=   102 ; resid.=  1.71489995586596E-10
(PID.TID 0000.0001)  cg2d: iter=   103 ; resid.=  1.35257998013962E-10
(PID.TID 0000.0001)  cg2d: iter=   104 ; resid.=  1.16919838992986E-10
(PID.TID 0000.0001)  cg2d: iter=   105 ; resid.=  9.89113590255206E-11
(PID.TID 0000.0001)  cg2d: iter=   106 ; resid.=  8.19159489673310E-11
(PID.TID 0000.0001)  cg2d: iter=   107 ; resid.=  6.91833510285818E-11
(PID.TID 0000.0001)  cg2d: iter=   108 ; resid.=  5.36211027177636E-11
(PID.TID 0000.0001)  cg2d: iter=   109 ; resid.=  4.13945462725829E-11
(PID.TID 0000.0001)  cg2d: iter=   110 ; resid.=  2.94687026889024E-11
(PID.TID 0000.0001)  cg2d: iter=   111 ; resid.=  2.13721099830789E-11
(PID.TID 0000.0001)  cg2d: iter=   112 ; resid.=  1.75396536855852E-11
(PID.TID 0000.0001)  cg2d: iter=   113 ; resid.=  1.44909431054063E-11
(PID.TID 0000.0001)  cg2d: iter=   114 ; resid.=  1.10523622360870E-11
(PID.TID 0000.0001)  cg2d: iter=   115 ; resid.=  8.42431348382322E-12
(PID.TID 0000.0001)  cg2d: iter=   116 ; resid.=  7.01287738468380E-12
(PID.TID 0000.0001)  cg2d: iter=   117 ; resid.=  5.61061837593914E-12
(PID.TID 0000.0001)  cg2d: iter=   118 ; resid.=  4.27193639789332E-12
(PID.TID 0000.0001)  cg2d: iter=   119 ; resid.=  3.21564567511783E-12
(PID.TID 0000.0001)  cg2d: iter=   120 ; resid.=  2.42369057994998E-12
(PID.TID 0000.0001)  cg2d: iter=   121 ; resid.=  1.79317146192612E-12
(PID.TID 0000.0001)  cg2d: iter=   122 ; resid.=  1.33539767196063E-12
(PID.TID 0000.0001)  cg2d: iter=   123 ; resid.=  1.01866731192697E-12
(PID.TID 0000.0001)  cg2d: iter=   124 ; resid.=  7.72359435837570E-13
(PID.TID 0000.0001)  cg2d: iter=   125 ; resid.=  6.10972898281960E-13
(PID.TID 0000.0001)  cg2d: iter=   126 ; resid.=  4.84632328576470E-13
(PID.TID 0000.0001)  cg2d: iter=   127 ; resid.=  3.48183429913839E-13
(PID.TID 0000.0001)  cg2d: iter=   128 ; resid.=  2.21988558103971E-13
(PID.TID 0000.0001)  cg2d: iter=   129 ; resid.=  1.39775687491348E-13
(PID.TID 0000.0001)  cg2d: iter=   130 ; resid.=  9.49992748192850E-14
DEBUG_STATS_RL:    cg2d_x (SOLVE_FOR_PRESSURE)  min= -1.66376397392537E+01
DEBUG_STATS_RL:    cg2d_x (SOLVE_FOR_PRESSURE)  max=  8.59230848704348E+00
DEBUG_STATS_RL:    cg2d_x (SOLVE_FOR_PRESSURE) mean= -1.61606531633596E+00
DEBUG_STATS_RL:    cg2d_x (SOLVE_FOR_PRESSURE) S.D.=  6.26257004472618E+00
(PID.TID 0000.0001)      cg2d_init_res =   4.18497709844348E-01
(PID.TID 0000.0001)      cg2d_iters(min,last) =      -1     130
(PID.TID 0000.0001)      cg2d_last_res =   9.49992748192850E-14
(PID.TID 0000.0001) // =======================================================
(PID.TID 0000.0001) // Begin MONITOR dynamic field statistics
(PID.TID 0000.0001) // =======================================================
(PID.TID 0000.0001) %MON time_tsnumber                =                    29
(PID.TID 0000.0001) %MON time_secondsf                =   2.5056000000000E+06
(PID.TID 0000.0001) %MON dynstat_eta_max              =   8.7587242477508E-01
(PID.TID 0000.0001) %MON dynstat_eta_min              =  -1.6959877410043E+00
(PID.TID 0000.0001) %MON dynstat_eta_mean             =  -2.1495764483770E-03
(PID.TID 0000.0001) %MON dynstat_eta_sd               =   5.5721514066463E-01
(PID.TID 0000.0001) %MON dynstat_eta_del2             =   2.1296514873695E-03
(PID.TID 0000.0001) %MON dynstat_uvel_max             =   8.7426284009752E-02
(PID.TID 0000.0001) %MON dynstat_uvel_min             =  -1.6638673089098E-01
(PID.TID 0000.0001) %MON dynstat_uvel_mean            =   1.2894296929359E-03
(PID.TID 0000.0001) %MON dynstat_uvel_sd              =   1.0476209300254E-02
(PID.TID 0000.0001) %MON dynstat_uvel_del2            =   7.2653154720612E-05
(PID.TID 0000.0001) %MON dynstat_vvel_max             =   1.1290898596841E-01
(PID.TID 0000.0001) %MON dynstat_vvel_min             =  -1.3086900213554E-01
(PID.TID 0000.0001) %MON dynstat_vvel_mean            =   3.4497446362495E-05
(PID.TID 0000.0001) %MON dynstat_vvel_sd              =   8.3891248632595E-03
(PID.TID 0000.0001) %MON dynstat_vvel_del2            =   7.2686937701160E-05
(PID.TID 0000.0001) %MON dynstat_wvel_max             =   1.0814608410136E-04
(PID.TID 0000.0001) %MON dynstat_wvel_min             =  -1.2036209874917E-04
(PID.TID 0000.0001) %MON dynstat_wvel_mean            =   3.0190724745110E-23
(PID.TID 0000.0001) %MON dynstat_wvel_sd              =   1.2773101566903E-05
(PID.TID 0000.0001) %MON dynstat_wvel_del2            =   1.5258162227223E-07
(PID.TID 0000.0001) %MON dynstat_theta_max            =   2.9768382077983E+01
(PID.TID 0000.0001) %MON dynstat_theta_min            =  -1.9804426431033E+00
(PID.TID 0000.0001) %MON dynstat_theta_mean           =   3.6196602344039E+00
(PID.TID 0000.0001) %MON dynstat_theta_sd             =   4.4152011757292E+00
(PID.TID 0000.0001) %MON dynstat_theta_del2           =   4.7930325934663E-03
(PID.TID 0000.0001) %MON dynstat_salt_max             =   3.7452008806556E+01
(PID.TID 0000.0001) %MON dynstat_salt_min             =   2.9799890977050E+01
(PID.TID 0000.0001) %MON dynstat_salt_mean            =   3.4717282823635E+01
(PID.TID 0000.0001) %MON dynstat_salt_sd              =   2.9619694554022E-01
(PID.TID 0000.0001) %MON dynstat_salt_del2            =   9.9425246418723E-04
(PID.TID 0000.0001) %MON dynstat_sst_max              =   2.9768382077983E+01
(PID.TID 0000.0001) %MON dynstat_sst_min              =  -1.9804426431033E+00
(PID.TID 0000.0001) %MON dynstat_sst_mean             =   1.8639904591339E+01
(PID.TID 0000.0001) %MON dynstat_sst_sd               =   9.0987050218405E+00
(PID.TID 0000.0001) %MON dynstat_sst_del2             =   2.5515771258973E-02
(PID.TID 0000.0001) %MON dynstat_sss_max              =   3.7426743865690E+01
(PID.TID 0000.0001) %MON dynstat_sss_min              =   2.9799890977050E+01
(PID.TID 0000.0001) %MON dynstat_sss_mean             =   3.4845678980446E+01
(PID.TID 0000.0001) %MON dynstat_sss_sd               =   9.7461589422994E-01
(PID.TID 0000.0001) %MON dynstat_sss_del2             =   7.8433108560705E-03
(PID.TID 0000.0001) %MON forcing_qnet_max             =   3.9846548970540E+02
(PID.TID 0000.0001) %MON forcing_qnet_min             =  -1.7690579630534E+02
(PID.TID 0000.0001) %MON forcing_qnet_mean            =  -1.5408706824800E+01
(PID.TID 0000.0001) %MON forcing_qnet_sd              =   9.6156770907790E+01
(PID.TID 0000.0001) %MON forcing_qnet_del2            =   9.7855893917677E-01
(PID.TID 0000.0001) %MON forcing_qsw_max              =   0.0000000000000E+00
(PID.TID 0000.0001) %MON forcing_qsw_min              =   0.0000000000000E+00
(PID.TID 0000.0001) %MON forcing_qsw_mean             =   0.0000000000000E+00
(PID.TID 0000.0001) %MON forcing_qsw_sd               =   0.0000000000000E+00
(PID.TID 0000.0001) %MON forcing_qsw_del2             =   0.0000000000000E+00
(PID.TID 0000.0001) %MON forcing_empmr_max            =   7.8091072452935E-05
(PID.TID 0000.0001) %MON forcing_empmr_min            =  -7.7191331608143E-05
(PID.TID 0000.0001) %MON forcing_empmr_mean           =   9.3180822649008E-07
(PID.TID 0000.0001) %MON forcing_empmr_sd             =   2.8244821350011E-05
(PID.TID 0000.0001) %MON forcing_empmr_del2           =   3.5593995327088E-07
(PID.TID 0000.0001) %MON forcing_fu_max               =   2.8105383813381E-01
(PID.TID 0000.0001) %MON forcing_fu_min               =  -1.8751364648342E-01
(PID.TID 0000.0001) %MON forcing_fu_mean              =   1.6707637953663E-02
(PID.TID 0000.0001) %MON forcing_fu_sd                =   8.9991600126903E-02
(PID.TID 0000.0001) %MON forcing_fu_del2              =   6.6831144155872E-04
(PID.TID 0000.0001) %MON forcing_fv_max               =   1.9141846299171E-01
(PID.TID 0000.0001) %MON forcing_fv_min               =  -1.6525000333786E-01
(PID.TID 0000.0001) %MON forcing_fv_mean              =  -6.1072895268024E-03
(PID.TID 0000.0001) %MON forcing_fv_sd                =   4.5167602989543E-02
(PID.TID 0000.0001) %MON forcing_fv_del2              =   4.6381451541736E-04
(PID.TID 0000.0001) %MON trAdv_CFL_u_max              =   3.3125052084401E-02
(PID.TID 0000.0001) %MON trAdv_CFL_v_max              =   2.6248654700234E-02
(PID.TID 0000.0001) %MON trAdv_CFL_w_max              =   4.5742735252383E-02
(PID.TID 0000.0001) %MON advcfl_uvel_max              =   3.3315897838536E-02
(PID.TID 0000.0001) %MON advcfl_vvel_max              =   2.5425748228481E-02
(PID.TID 0000.0001) %MON advcfl_wvel_max              =   3.7249309385006E-02
(PID.TID 0000.0001) %MON advcfl_W_hf_max              =   4.5231304253221E-02
(PID.TID 0000.0001) %MON pe_b_mean                    =   3.9731364506458E-04
(PID.TID 0000.0001) %MON ke_max                       =   1.3352636258075E-02
(PID.TID 0000.0001) %MON ke_mean                      =   8.2212921665358E-05
(PID.TID 0000.0001) %MON ke_vol                       =   1.3226782436723E+18
(PID.TID 0000.0001) %MON vort_r_min                   =  -2.7606824976601E-07
(PID.TID 0000.0001) %MON vort_r_max                   =   3.8572952707494E-07
(PID.TID 0000.0001) %MON vort_a_mean                  =  -2.5274807176435E-05
(PID.TID 0000.0001) %MON vort_a_sd                    =   7.3604540123579E-05
(PID.TID 0000.0001) %MON vort_p_mean                  =  -3.1845655520998E-05
(PID.TID 0000.0001) %MON vort_p_sd                    =   1.3162549868645E-04
(PID.TID 0000.0001) %MON surfExpan_theta_mean         =   5.7149249536332E-08
(PID.TID 0000.0001) %MON surfExpan_salt_mean          =   1.8403807649951E-08
(PID.TID 0000.0001) // =======================================================
(PID.TID 0000.0001) // End MONITOR dynamic field statistics
(PID.TID 0000.0001) // =======================================================
 EXTERNAL_FIELDS_LOAD,        29 : iP,iLd,i0,i1=    1    2    1    2 ; Wght=  0.5333333333  0.4666666667
 EXTERNAL_FIELDS_LOAD: (fu0,1),fu,fv= -3.5633E-02 -1.4435E-02 -2.5740E-02 -3.8767E-02
 EXTERNAL_FIELDS_LOAD: SST,SSS,Q,E-P=  2.6296E-01  3.4578E+01  2.5397E+02  1.0116E-05
DEBUG_STATS_RL:          Uvel (THERMODYNAMICS)  min= -1.66386730890979E-01
DEBUG_STATS_RL:          Uvel (THERMODYNAMICS)  max=  8.74262840097525E-02
DEBUG_STATS_RL:          Uvel (THERMODYNAMICS) mean=  1.81638841356533E-03
DEBUG_STATS_RL:          Uvel (THERMODYNAMICS) S.D.=  1.66569161983712E-02
DEBUG_STATS_RL:          Vvel (THERMODYNAMICS)  min= -1.30869002135536E-01
DEBUG_STATS_RL:          Vvel (THERMODYNAMICS)  max=  1.12908985968407E-01
DEBUG_STATS_RL:          Vvel (THERMODYNAMICS) mean=  8.38091323559389E-04
DEBUG_STATS_RL:          Vvel (THERMODYNAMICS) S.D.=  1.34843374550973E-02
DEBUG_STATS_RL:          Wvel (THERMODYNAMICS)  min= -1.20362098749169E-04
DEBUG_STATS_RL:          Wvel (THERMODYNAMICS)  max=  1.08146084101360E-04
DEBUG_STATS_RL:          Wvel (THERMODYNAMICS) mean=  8.73378508730366E-08
DEBUG_STATS_RL:          Wvel (THERMODYNAMICS) S.D.=  1.13664213811745E-05
DEBUG_STATS_RL:         Theta (THERMODYNAMICS)  min= -1.97947059962185E+00
DEBUG_STATS_RL:         Theta (THERMODYNAMICS)  max=  2.97800531644978E+01
DEBUG_STATS_RL:         Theta (THERMODYNAMICS) mean=  3.20474802901783E+00
DEBUG_STATS_RL:         Theta (THERMODYNAMICS) S.D.=  5.85328153312145E+00
DEBUG_STATS_RL:          Salt (THERMODYNAMICS)  min= -6.85830501234083E-04
DEBUG_STATS_RL:          Salt (THERMODYNAMICS)  max=  3.74526993084154E+01
DEBUG_STATS_RL:          Salt (THERMODYNAMICS) mean=  1.88442372354983E+01
DEBUG_STATS_RL:          Salt (THERMODYNAMICS) S.D.=  1.73004285735832E+01
DEBUG_STATS_RL:         GtNm1 (THERMODYNAMICS)  min= -2.58802317887807E-06
DEBUG_STATS_RL:         GtNm1 (THERMODYNAMICS)  max=  2.73967318674918E-06
DEBUG_STATS_RL:         GtNm1 (THERMODYNAMICS) mean=  1.47101583041813E-09
DEBUG_STATS_RL:         GtNm1 (THERMODYNAMICS) S.D.=  1.91518002153740E-07
DEBUG_STATS_RL:         GsNm1 (THERMODYNAMICS)  min= -4.29937468041689E-07
DEBUG_STATS_RL:         GsNm1 (THERMODYNAMICS)  max=  4.57082305437617E-07
DEBUG_STATS_RL:         GsNm1 (THERMODYNAMICS) mean= -6.37876081574043E-10
DEBUG_STATS_RL:         GsNm1 (THERMODYNAMICS) S.D.=  1.81083103993844E-08
DEBUG_STATS_RL:                EtaN (DYNAMICS)  min= -1.69598774100434E+00
DEBUG_STATS_RL:                EtaN (DYNAMICS)  max=  8.75872424775085E-01
DEBUG_STATS_RL:                EtaN (DYNAMICS) mean= -1.64736525620383E-01
DEBUG_STATS_RL:                EtaN (DYNAMICS) S.D.=  6.38386345028154E-01
DEBUG_STATS_RL:                Uvel (DYNAMICS)  min= -1.66386730890979E-01
DEBUG_STATS_RL:                Uvel (DYNAMICS)  max=  8.74262840097525E-02
DEBUG_STATS_RL:                Uvel (DYNAMICS) mean=  1.81638841356533E-03
DEBUG_STATS_RL:                Uvel (DYNAMICS) S.D.=  1.66569161983712E-02
DEBUG_STATS_RL:                Vvel (DYNAMICS)  min= -1.30869002135536E-01
DEBUG_STATS_RL:                Vvel (DYNAMICS)  max=  1.12908985968407E-01
DEBUG_STATS_RL:                Vvel (DYNAMICS) mean=  8.38091323559389E-04
DEBUG_STATS_RL:                Vvel (DYNAMICS) S.D.=  1.34843374550973E-02
DEBUG_STATS_RL:                Wvel (DYNAMICS)  min= -1.20362098749169E-04
DEBUG_STATS_RL:                Wvel (DYNAMICS)  max=  1.08146084101360E-04
DEBUG_STATS_RL:                Wvel (DYNAMICS) mean=  8.73378508730366E-08
DEBUG_STATS_RL:                Wvel (DYNAMICS) S.D.=  1.13664213811745E-05
DEBUG_STATS_RL:               Theta (DYNAMICS)  min= -1.97947059962185E+00
DEBUG_STATS_RL:               Theta (DYNAMICS)  max=  2.97800531644978E+01
DEBUG_STATS_RL:               Theta (DYNAMICS) mean=  3.20474802901783E+00
DEBUG_STATS_RL:               Theta (DYNAMICS) S.D.=  5.85328153312145E+00
DEBUG_STATS_RL:                Salt (DYNAMICS)  min= -6.85830501234083E-04
DEBUG_STATS_RL:                Salt (DYNAMICS)  max=  3.74526993084154E+01
DEBUG_STATS_RL:                Salt (DYNAMICS) mean=  1.88442372354983E+01
DEBUG_STATS_RL:                Salt (DYNAMICS) S.D.=  1.73004285735832E+01
DEBUG_STATS_RL:                  Gu (DYNAMICS)  min= -1.68407514220689E-01
DEBUG_STATS_RL:                  Gu (DYNAMICS)  max=  8.71417437251256E-02
DEBUG_STATS_RL:                  Gu (DYNAMICS) mean=  1.63213044437110E-03
DEBUG_STATS_RL:                  Gu (DYNAMICS) S.D.=  1.69850202743814E-02
DEBUG_STATS_RL:                  Gv (DYNAMICS)  min= -1.35364414507114E-01
DEBUG_STATS_RL:                  Gv (DYNAMICS)  max=  1.06717503630427E-01
DEBUG_STATS_RL:                  Gv (DYNAMICS) mean=  2.77526221763191E-03
DEBUG_STATS_RL:                  Gv (DYNAMICS) S.D.=  1.44595691144417E-02
DEBUG_STATS_RL:               GuNm1 (DYNAMICS)  min= -7.78301065005511E-06
DEBUG_STATS_RL:               GuNm1 (DYNAMICS)  max=  7.51866934948308E-06
DEBUG_STATS_RL:               GuNm1 (DYNAMICS) mean= -1.68841487157511E-08
DEBUG_STATS_RL:               GuNm1 (DYNAMICS) S.D.=  1.19863325198972E-06
DEBUG_STATS_RL:               GvNm1 (DYNAMICS)  min= -1.07848480532181E-05
DEBUG_STATS_RL:               GvNm1 (DYNAMICS)  max=  1.66154714579287E-05
DEBUG_STATS_RL:               GvNm1 (DYNAMICS) mean=  7.62313743002357E-07
DEBUG_STATS_RL:               GvNm1 (DYNAMICS) S.D.=  2.64806414165211E-06
DEBUG_STATS_RL:               GtNm1 (DYNAMICS)  min= -2.58802317887807E-06
DEBUG_STATS_RL:               GtNm1 (DYNAMICS)  max=  2.73967318674918E-06
DEBUG_STATS_RL:               GtNm1 (DYNAMICS) mean=  1.47101583041813E-09
DEBUG_STATS_RL:               GtNm1 (DYNAMICS) S.D.=  1.91518002153740E-07
DEBUG_STATS_RL:               GsNm1 (DYNAMICS)  min= -4.29937468041689E-07
DEBUG_STATS_RL:               GsNm1 (DYNAMICS)  max=  4.57082305437617E-07
DEBUG_STATS_RL:               GsNm1 (DYNAMICS) mean= -6.37876081574043E-10
DEBUG_STATS_RL:               GsNm1 (DYNAMICS) S.D.=  1.81083103993844E-08
DEBUG_STATS_RL:    cg2d_b (SOLVE_FOR_PRESSURE)  min= -2.14333127857921E+04
DEBUG_STATS_RL:    cg2d_b (SOLVE_FOR_PRESSURE)  max=  1.88704552559000E+04
DEBUG_STATS_RL:    cg2d_b (SOLVE_FOR_PRESSURE) mean=  2.13481921683629E+00
DEBUG_STATS_RL:    cg2d_b (SOLVE_FOR_PRESSURE) S.D.=  3.79075882863439E+03
 cg2d: Sum(rhs),rhsMax =   2.30580617022184E-01  1.40779736987357E+00
(PID.TID 0000.0001)  cg2d: iter=     1 ; resid.=  1.07673324235855E-01
(PID.TID 0000.0001)  cg2d: iter=     2 ; resid.=  5.57310791788560E-02
(PID.TID 0000.0001)  cg2d: iter=     3 ; resid.=  3.91464522845226E-02
(PID.TID 0000.0001)  cg2d: iter=     4 ; resid.=  3.27673413170248E-02
(PID.TID 0000.0001)  cg2d: iter=     5 ; resid.=  3.09451056148514E-02
(PID.TID 0000.0001)  cg2d: iter=     6 ; resid.=  2.67836826781062E-02
(PID.TID 0000.0001)  cg2d: iter=     7 ; resid.=  2.41984201158560E-02
(PID.TID 0000.0001)  cg2d: iter=     8 ; resid.=  2.01597091871340E-02
(PID.TID 0000.0001)  cg2d: iter=     9 ; resid.=  1.66166376140038E-02
(PID.TID 0000.0001)  cg2d: iter=    10 ; resid.=  1.39048250456212E-02
(PID.TID 0000.0001)  cg2d: iter=    11 ; resid.=  1.15234193420633E-02
(PID.TID 0000.0001)  cg2d: iter=    12 ; resid.=  9.92044214054123E-03
(PID.TID 0000.0001)  cg2d: iter=    13 ; resid.=  9.15226899014337E-03
(PID.TID 0000.0001)  cg2d: iter=    14 ; resid.=  7.58120711019694E-03
(PID.TID 0000.0001)  cg2d: iter=    15 ; resid.=  6.37237435610116E-03
(PID.TID 0000.0001)  cg2d: iter=    16 ; resid.=  5.17299522565833E-03
(PID.TID 0000.0001)  cg2d: iter=    17 ; resid.=  4.64602821100512E-03
(PID.TID 0000.0001)  cg2d: iter=    18 ; resid.=  4.18593081520457E-03
(PID.TID 0000.0001)  cg2d: iter=    19 ; resid.=  3.46076607492572E-03
(PID.TID 0000.0001)  cg2d: iter=    20 ; resid.=  2.93707169077388E-03
(PID.TID 0000.0001)  cg2d: iter=    21 ; resid.=  2.34523806102942E-03
(PID.TID 0000.0001)  cg2d: iter=    22 ; resid.=  1.84233242926057E-03
(PID.TID 0000.0001)  cg2d: iter=    23 ; resid.=  1.44803351344358E-03
(PID.TID 0000.0001)  cg2d: iter=    24 ; resid.=  1.15205728157839E-03
(PID.TID 0000.0001)  cg2d: iter=    25 ; resid.=  9.20803958696302E-04
(PID.TID 0000.0001)  cg2d: iter=    26 ; resid.=  7.70635144452389E-04
(PID.TID 0000.0001)  cg2d: iter=    27 ; resid.=  6.78622159768504E-04
(PID.TID 0000.0001)  cg2d: iter=    28 ; resid.=  6.19348442391994E-04
(PID.TID 0000.0001)  cg2d: iter=    29 ; resid.=  5.71907653569069E-04
(PID.TID 0000.0001)  cg2d: iter=    30 ; resid.=  4.85852333058213E-04
(PID.TID 0000.0001)  cg2d: iter=    31 ; resid.=  4.11012328229281E-04
(PID.TID 0000.0001)  cg2d: iter=    32 ; resid.=  3.27348603290061E-04
(PID.TID 0000.0001)  cg2d: iter=    33 ; resid.=  2.58507432682339E-04
(PID.TID 0000.0001)  cg2d: iter=    34 ; resid.=  1.99440712483905E-04
(PID.TID 0000.0001)  cg2d: iter=    35 ; resid.=  1.53423044221163E-04
(PID.TID 0000.0001)  cg2d: iter=    36 ; resid.=  1.26073009845880E-04
(PID.TID 0000.0001)  cg2d: iter=    37 ; resid.=  1.04182361526036E-04
(PID.TID 0000.0001)  cg2d: iter=    38 ; resid.=  9.29211919030565E-05
(PID.TID 0000.0001)  cg2d: iter=    39 ; resid.=  7.93410476124585E-05
(PID.TID 0000.0001)  cg2d: iter=    40 ; resid.=  6.73479173557226E-05
(PID.TID 0000.0001)  cg2d: iter=    41 ; resid.=  5.75684690559760E-05
(PID.TID 0000.0001)  cg2d: iter=    42 ; resid.=  4.79726447660266E-05
(PID.TID 0000.0001)  cg2d: iter=    43 ; resid.=  3.98417579562161E-05
(PID.TID 0000.0001)  cg2d: iter=    44 ; resid.=  3.16260658503728E-05
(PID.TID 0000.0001)  cg2d: iter=    45 ; resid.=  2.79310322560739E-05
(PID.TID 0000.0001)  cg2d: iter=    46 ; resid.=  2.47898551230297E-05
(PID.TID 0000.0001)  cg2d: iter=    47 ; resid.=  2.24832515532739E-05
(PID.TID 0000.0001)  cg2d: iter=    48 ; resid.=  1.88195399421851E-05
(PID.TID 0000.0001)  cg2d: iter=    49 ; resid.=  1.52896522358196E-05
(PID.TID 0000.0001)  cg2d: iter=    50 ; resid.=  1.25958344088682E-05
(PID.TID 0000.0001)  cg2d: iter=    51 ; resid.=  1.03825861037045E-05
(PID.TID 0000.0001)  cg2d: iter=    52 ; resid.=  8.11484760461469E-06
(PID.TID 0000.0001)  cg2d: iter=    53 ; resid.=  6.32483553539388E-06
(PID.TID 0000.0001)  cg2d: iter=    54 ; resid.=  5.20325661201578E-06
(PID.TID 0000.0001)  cg2d: iter=    55 ; resid.=  4.29267188234140E-06
(PID.TID 0000.0001)  cg2d: iter=    56 ; resid.=  3.60474424715362E-06
(PID.TID 0000.0001)  cg2d: iter=    57 ; resid.=  2.75435673340441E-06
(PID.TID 0000.0001)  cg2d: iter=    58 ; resid.=  2.05413312536192E-06
(PID.TID 0000.0001)  cg2d: iter=    59 ; resid.=  1.46584067918116E-06
(PID.TID 0000.0001)  cg2d: iter=    60 ; resid.=  1.07787733804896E-06
(PID.TID 0000.0001)  cg2d: iter=    61 ; resid.=  8.54571976064148E-07
(PID.TID 0000.0001)  cg2d: iter=    62 ; resid.=  7.22773048270407E-07
(PID.TID 0000.0001)  cg2d: iter=    63 ; resid.=  5.84849287947610E-07
(PID.TID 0000.0001)  cg2d: iter=    64 ; resid.=  4.36510448864415E-07
(PID.TID 0000.0001)  cg2d: iter=    65 ; resid.=  3.42031004490390E-07
(PID.TID 0000.0001)  cg2d: iter=    66 ; resid.=  2.94634826949074E-07
(PID.TID 0000.0001)  cg2d: iter=    67 ; resid.=  2.37664273181988E-07
(PID.TID 0000.0001)  cg2d: iter=    68 ; resid.=  1.87118409287822E-07
(PID.TID 0000.0001)  cg2d: iter=    69 ; resid.=  1.43912812152831E-07
(PID.TID 0000.0001)  cg2d: iter=    70 ; resid.=  1.11480573868906E-07
(PID.TID 0000.0001)  cg2d: iter=    71 ; resid.=  9.80855102709977E-08
(PID.TID 0000.0001)  cg2d: iter=    72 ; resid.=  8.73991057267319E-08
(PID.TID 0000.0001)  cg2d: iter=    73 ; resid.=  7.35886057027004E-08
(PID.TID 0000.0001)  cg2d: iter=    74 ; resid.=  6.12905014822975E-08
(PID.TID 0000.0001)  cg2d: iter=    75 ; resid.=  4.89158814696203E-08
(PID.TID 0000.0001)  cg2d: iter=    76 ; resid.=  4.08069425514133E-08
(PID.TID 0000.0001)  cg2d: iter=    77 ; resid.=  3.40655736434261E-08
(PID.TID 0000.0001)  cg2d: iter=    78 ; resid.=  2.74921553161723E-08
(PID.TID 0000.0001)  cg2d: iter=    79 ; resid.=  2.24646468058883E-08
(PID.TID 0000.0001)  cg2d: iter=    80 ; resid.=  1.75986826914566E-08
(PID.TID 0000.0001)  cg2d: iter=    81 ; resid.=  1.42609907357467E-08
(PID.TID 0000.0001)  cg2d: iter=    82 ; resid.=  1.18995709790663E-08
(PID.TID 0000.0001)  cg2d: iter=    83 ; resid.=  9.77832834397531E-09
(PID.TID 0000.0001)  cg2d: iter=    84 ; resid.=  7.68759818316802E-09
(PID.TID 0000.0001)  cg2d: iter=    85 ; resid.=  5.85524328619248E-09
(PID.TID 0000.0001)  cg2d: iter=    86 ; resid.=  4.74160025506999E-09
(PID.TID 0000.0001)  cg2d: iter=    87 ; resid.=  4.01151884201680E-09
(PID.TID 0000.0001)  cg2d: iter=    88 ; resid.=  3.23811471135098E-09
(PID.TID 0000.0001)  cg2d: iter=    89 ; resid.=  2.79235390993141E-09
(PID.TID 0000.0001)  cg2d: iter=    90 ; resid.=  2.45273494782586E-09
(PID.TID 0000.0001)  cg2d: iter=    91 ; resid.=  2.15603042104502E-09
(PID.TID 0000.0001)  cg2d: iter=    92 ; resid.=  1.95877546971872E-09
(PID.TID 0000.0001)  cg2d: iter=    93 ; resid.=  1.59989199984039E-09
(PID.TID 0000.0001)  cg2d: iter=    94 ; resid.=  1.17836240901120E-09
(PID.TID 0000.0001)  cg2d: iter=    95 ; resid.=  8.62728890822425E-10
(PID.TID 0000.0001)  cg2d: iter=    96 ; resid.=  6.66523840024797E-10
(PID.TID 0000.0001)  cg2d: iter=    97 ; resid.=  5.12530569624188E-10
(PID.TID 0000.0001)  cg2d: iter=    98 ; resid.=  3.87691082818971E-10
(PID.TID 0000.0001)  cg2d: iter=    99 ; resid.=  2.91850294954630E-10
(PID.TID 0000.0001)  cg2d: iter=   100 ; resid.=  2.38306834183757E-10
(PID.TID 0000.0001)  cg2d: iter=   101 ; resid.=  2.15664412467501E-10
(PID.TID 0000.0001)  cg2d: iter=   102 ; resid.=  1.88388044214549E-10
(PID.TID 0000.0001)  cg2d: iter=   103 ; resid.=  1.47359501866948E-10
(PID.TID 0000.0001)  cg2d: iter=   104 ; resid.=  1.24193511064927E-10
(PID.TID 0000.0001)  cg2d: iter=   105 ; resid.=  1.01779731935776E-10
(PID.TID 0000.0001)  cg2d: iter=   106 ; resid.=  8.15815865351562E-11
(PID.TID 0000.0001)  cg2d: iter=   107 ; resid.=  6.76094084039159E-11
(PID.TID 0000.0001)  cg2d: iter=   108 ; resid.=  5.20405024413763E-11
(PID.TID 0000.0001)  cg2d: iter=   109 ; resid.=  4.03802484263297E-11
(PID.TID 0000.0001)  cg2d: iter=   110 ; resid.=  2.94488584244163E-11
(PID.TID 0000.0001)  cg2d: iter=   111 ; resid.=  2.16462846956473E-11
(PID.TID 0000.0001)  cg2d: iter=   112 ; resid.=  1.80675262079601E-11
(PID.TID 0000.0001)  cg2d: iter=   113 ; resid.=  1.50418287721033E-11
(PID.TID 0000.0001)  cg2d: iter=   114 ; resid.=  1.14753126480454E-11
(PID.TID 0000.0001)  cg2d: iter=   115 ; resid.=  9.02405279993849E-12
(PID.TID 0000.0001)  cg2d: iter=   116 ; resid.=  7.68182548519230E-12
(PID.TID 0000.0001)  cg2d: iter=   117 ; resid.=  6.17515434475543E-12
(PID.TID 0000.0001)  cg2d: iter=   118 ; resid.=  4.65429817231815E-12
(PID.TID 0000.0001)  cg2d: iter=   119 ; resid.=  3.54544082144355E-12
(PID.TID 0000.0001)  cg2d: iter=   120 ; resid.=  2.64173154815987E-12
(PID.TID 0000.0001)  cg2d: iter=   121 ; resid.=  1.92538003947475E-12
(PID.TID 0000.0001)  cg2d: iter=   122 ; resid.=  1.43627914593913E-12
(PID.TID 0000.0001)  cg2d: iter=   123 ; resid.=  1.08062991796860E-12
(PID.TID 0000.0001)  cg2d: iter=   124 ; resid.=  8.04726894302834E-13
(PID.TID 0000.0001)  cg2d: iter=   125 ; resid.=  6.30841678341359E-13
(PID.TID 0000.0001)  cg2d: iter=   126 ; resid.=  4.86377804394210E-13
(PID.TID 0000.0001)  cg2d: iter=   127 ; resid.=  3.47540816681992E-13
(PID.TID 0000.0001)  cg2d: iter=   128 ; resid.=  2.25606459467286E-13
(PID.TID 0000.0001)  cg2d: iter=   129 ; resid.=  1.41350046638777E-13
(PID.TID 0000.0001)  cg2d: iter=   130 ; resid.=  9.57408050630988E-14
DEBUG_STATS_RL:    cg2d_x (SOLVE_FOR_PRESSURE)  min= -1.66141526390196E+01
DEBUG_STATS_RL:    cg2d_x (SOLVE_FOR_PRESSURE)  max=  8.68152765820193E+00
DEBUG_STATS_RL:    cg2d_x (SOLVE_FOR_PRESSURE) mean= -1.61894670867460E+00
DEBUG_STATS_RL:    cg2d_x (SOLVE_FOR_PRESSURE) S.D.=  6.27354999982246E+00
(PID.TID 0000.0001)      cg2d_init_res =   4.17036205386782E-01
(PID.TID 0000.0001)      cg2d_iters(min,last) =      -1     130
(PID.TID 0000.0001)      cg2d_last_res =   9.57408050630988E-14
(PID.TID 0000.0001) // =======================================================
(PID.TID 0000.0001) // Begin MONITOR dynamic field statistics
(PID.TID 0000.0001) // =======================================================
(PID.TID 0000.0001) %MON time_tsnumber                =                    30
(PID.TID 0000.0001) %MON time_secondsf                =   2.5920000000000E+06
(PID.TID 0000.0001) %MON dynstat_eta_max              =   8.8496714150885E-01
(PID.TID 0000.0001) %MON dynstat_eta_min              =  -1.6935935411845E+00
(PID.TID 0000.0001) %MON dynstat_eta_mean             =  -2.2274191439246E-03
(PID.TID 0000.0001) %MON dynstat_eta_sd               =   5.5816741709378E-01
(PID.TID 0000.0001) %MON dynstat_eta_del2             =   2.1453997777099E-03
(PID.TID 0000.0001) %MON dynstat_uvel_max             =   8.5855113268790E-02
(PID.TID 0000.0001) %MON dynstat_uvel_min             =  -1.6674472663034E-01
(PID.TID 0000.0001) %MON dynstat_uvel_mean            =   1.3165358529207E-03
(PID.TID 0000.0001) %MON dynstat_uvel_sd              =   1.0450100759980E-02
(PID.TID 0000.0001) %MON dynstat_uvel_del2            =   7.2383845269501E-05
(PID.TID 0000.0001) %MON dynstat_vvel_max             =   1.1201722225382E-01
(PID.TID 0000.0001) %MON dynstat_vvel_min             =  -1.2844698421468E-01
(PID.TID 0000.0001) %MON dynstat_vvel_mean            =   3.0916531181057E-05
(PID.TID 0000.0001) %MON dynstat_vvel_sd              =   8.2016712836814E-03
(PID.TID 0000.0001) %MON dynstat_vvel_del2            =   7.2110871782918E-05
(PID.TID 0000.0001) %MON dynstat_wvel_max             =   1.0540803403149E-04
(PID.TID 0000.0001) %MON dynstat_wvel_min             =  -1.0719247560732E-04
(PID.TID 0000.0001) %MON dynstat_wvel_mean            =   9.7883318404373E-23
(PID.TID 0000.0001) %MON dynstat_wvel_sd              =   1.2741471151330E-05
(PID.TID 0000.0001) %MON dynstat_wvel_del2            =   1.5524303461213E-07
(PID.TID 0000.0001) %MON dynstat_theta_max            =   2.9780053164498E+01
(PID.TID 0000.0001) %MON dynstat_theta_min            =  -1.9794705996219E+00
(PID.TID 0000.0001) %MON dynstat_theta_mean           =   3.6197253595357E+00
(PID.TID 0000.0001) %MON dynstat_theta_sd             =   4.4153200480103E+00
(PID.TID 0000.0001) %MON dynstat_theta_del2           =   4.7851044628942E-03
(PID.TID 0000.0001) %MON dynstat_salt_max             =   3.7452699308415E+01
(PID.TID 0000.0001) %MON dynstat_salt_min             =   2.9801882719747E+01
(PID.TID 0000.0001) %MON dynstat_salt_mean            =   3.4717283801686E+01
(PID.TID 0000.0001) %MON dynstat_salt_sd              =   2.9619778465085E-01
(PID.TID 0000.0001) %MON dynstat_salt_del2            =   9.9219656858461E-04
(PID.TID 0000.0001) %MON dynstat_sst_max              =   2.9780053164498E+01
(PID.TID 0000.0001) %MON dynstat_sst_min              =  -1.9794705996219E+00
(PID.TID 0000.0001) %MON dynstat_sst_mean             =   1.8643806238240E+01
(PID.TID 0000.0001) %MON dynstat_sst_sd               =   9.0977088973187E+00
(PID.TID 0000.0001) %MON dynstat_sst_del2             =   2.5469587426950E-02
(PID.TID 0000.0001) %MON dynstat_sss_max              =   3.7425899442624E+01
(PID.TID 0000.0001) %MON dynstat_sss_min              =   2.9801882719747E+01
(PID.TID 0000.0001) %MON dynstat_sss_mean             =   3.4845100906853E+01
(PID.TID 0000.0001) %MON dynstat_sss_sd               =   9.7478672033193E-01
(PID.TID 0000.0001) %MON dynstat_sss_del2             =   7.8310302748912E-03
(PID.TID 0000.0001) %MON forcing_qnet_max             =   3.9514640299479E+02
(PID.TID 0000.0001) %MON forcing_qnet_min             =  -1.7666627705892E+02
(PID.TID 0000.0001) %MON forcing_qnet_mean            =  -1.5323797657397E+01
(PID.TID 0000.0001) %MON forcing_qnet_sd              =   9.5133125046695E+01
(PID.TID 0000.0001) %MON forcing_qnet_del2            =   9.7583035332786E-01
(PID.TID 0000.0001) %MON forcing_qsw_max              =   0.0000000000000E+00
(PID.TID 0000.0001) %MON forcing_qsw_min              =   0.0000000000000E+00
(PID.TID 0000.0001) %MON forcing_qsw_mean             =   0.0000000000000E+00
(PID.TID 0000.0001) %MON forcing_qsw_sd               =   0.0000000000000E+00
(PID.TID 0000.0001) %MON forcing_qsw_del2             =   0.0000000000000E+00
(PID.TID 0000.0001) %MON forcing_empmr_max            =   7.7776982720934E-05
(PID.TID 0000.0001) %MON forcing_empmr_min            =  -7.7270975869700E-05
(PID.TID 0000.0001) %MON forcing_empmr_mean           =   9.3249062375004E-07
(PID.TID 0000.0001) %MON forcing_empmr_sd             =   2.8214611087815E-05
(PID.TID 0000.0001) %MON forcing_empmr_del2           =   3.5545803972656E-07
(PID.TID 0000.0001) %MON forcing_fu_max               =   2.8244099617004E-01
(PID.TID 0000.0001) %MON forcing_fu_min               =  -1.8917357027531E-01
(PID.TID 0000.0001) %MON forcing_fu_mean              =   1.6761938169132E-02
(PID.TID 0000.0001) %MON forcing_fu_sd                =   9.0031773326239E-02
(PID.TID 0000.0001) %MON forcing_fu_del2              =   6.6818963371085E-04
(PID.TID 0000.0001) %MON forcing_fv_max               =   1.9031694233418E-01
(PID.TID 0000.0001) %MON forcing_fv_min               =  -1.6425870358944E-01
(PID.TID 0000.0001) %MON forcing_fv_mean              =  -6.1725504335176E-03
(PID.TID 0000.0001) %MON forcing_fv_sd                =   4.5033516804219E-02
(PID.TID 0000.0001) %MON forcing_fv_del2              =   4.6460661813294E-04
(PID.TID 0000.0001) %MON trAdv_CFL_u_max              =   3.3322664535666E-02
(PID.TID 0000.0001) %MON trAdv_CFL_v_max              =   2.6014064429840E-02
(PID.TID 0000.0001) %MON trAdv_CFL_w_max              =   4.5231304253221E-02
(PID.TID 0000.0001) %MON advcfl_uvel_max              =   3.3387579933709E-02
(PID.TID 0000.0001) %MON advcfl_vvel_max              =   2.4955188990956E-02
(PID.TID 0000.0001) %MON advcfl_wvel_max              =   3.6667081307967E-02
(PID.TID 0000.0001) %MON advcfl_W_hf_max              =   4.4524313016817E-02
(PID.TID 0000.0001) %MON pe_b_mean                    =   3.9867323322583E-04
(PID.TID 0000.0001) %MON ke_max                       =   1.3526976990454E-02
(PID.TID 0000.0001) %MON ke_mean                      =   8.0600473558014E-05
(PID.TID 0000.0001) %MON ke_vol                       =   1.3226782436723E+18
(PID.TID 0000.0001) %MON vort_r_min                   =  -2.9419198305064E-07
(PID.TID 0000.0001) %MON vort_r_max                   =   3.9335974209841E-07
(PID.TID 0000.0001) %MON vort_a_mean                  =  -2.5274807135106E-05
(PID.TID 0000.0001) %MON vort_a_sd                    =   7.3604545035968E-05
(PID.TID 0000.0001) %MON vort_p_mean                  =  -3.1845655468924E-05
(PID.TID 0000.0001) %MON vort_p_sd                    =   1.3162547348171E-04
(PID.TID 0000.0001) %MON surfExpan_theta_mean         =   1.2401205849962E-07
(PID.TID 0000.0001) %MON surfExpan_salt_mean          =   1.4893087158627E-08
(PID.TID 0000.0001) // =======================================================
(PID.TID 0000.0001) // End MONITOR dynamic field statistics
(PID.TID 0000.0001) // =======================================================
(PID.TID 0000.0001) // =======================================================
(PID.TID 0000.0001) // Field Current uVel   at iteration         30
(PID.TID 0000.0001) // CMIN =         -1.667447266303416E-01
(PID.TID 0000.0001) // CMAX =          8.585511326878975E-02
(PID.TID 0000.0001) // CINT =          9.355549625893755E-03
(PID.TID 0000.0001) // SYMBOLS (CMIN->CMAX): -abcdefghijklmnopqrstuvwxyz+
(PID.TID 0000.0001) //                  0.0: .
(PID.TID 0000.0001) // RANGE I (Lo:Hi:Step):(     1:    90:     1)
(PID.TID 0000.0001) // RANGE J (Lo:Hi:Step):(    40:     1:    -1)
(PID.TID 0000.0001) // RANGE K (Lo:Hi:Step):(   1:   1:   1)
(PID.TID 0000.0001) // =======================================================
(PID.TID 0000.0001) K =   1
(PID.TID 0000.0001)                I=10      I=20      I=30      I=40      I=50      I=60      I=70      I=80      I=90
(PID.TID 0000.0001) |--J--|123456789|123456789|123456789|123456789|123456789|123456789|123456789|123456789|123456789|
(PID.TID 0000.0001)     40 rrrqq..qqqqqrrrrrrr...................................................................qqqq
(PID.TID 0000.0001)     39 rsssrrrrrrrrrr....r......................................................rrr.........ppppq
(PID.TID 0000.0001)     38 rsttssrrssssr............................................................rrrr.......pppqqr
(PID.TID 0000.0001)     37 tts...................................................................r....qq....pppp..stt
(PID.TID 0000.0001)     36 ut..........................................ppq.....................qrrrrrrqpr..qqqqsstuuu
(PID.TID 0000.0001)     35 ss..................................qqq...rqppoq....qqqr............rr.....srrrqprrrrssuut
(PID.TID 0000.0001)     34 ....................................rqq..qrrqqqq..rqpqqrr...................ssrsssssssss..
(PID.TID 0000.0001)     33 .....................................qqqqqrrrqrsrqqqrrrrrrr..................rsttutsrrrpq.
(PID.TID 0000.0001)     32 .....................................pppppqrrrrrrqqqrrrsssr.................tuttsssrqpppq.
(PID.TID 0000.0001)     31 .....................................ppppqqqrrrrrrrrsssttts...............swzxwvutsrqqpq..
(PID.TID 0000.0001)     30 ....................................sssrrssssssssttttuuutsr.............qsuuvvuuuttsrqqr..
(PID.TID 0000.0001)     29 ..................................twwvutuuuuuuvuuvuuvvvvtrqq............uvvutsrrssrrrqqr..
(PID.TID 0000.0001)     28 ................................rtuuuuttuvvvvwvvvvvwxwwvtsqpp..........tuutstsrrrrrqqqrq..
(PID.TID 0000.0001)     27 ...............r...............rsrqrrrrstvvuuuuuuuuvwwvusrqppp....rqs..uuuuutsrrrqqqpp....
(PID.TID 0000.0001)     26 ...............ro............ommomlmmmnprsssrqqrrqqqrrqpoonnoprr..qrrststttssrqqpponmm....
(PID.TID 0000.0001)     25 ...............pnp....qr....mgkjiedefghijkllkkkklkkkjjjihhhjlnpqr....pnnnoonnlkklmjiii....
(PID.TID 0000.0001)     24 .............mmmlmo..pmq....kl..lb-abcbbcceeeefhiihhggedddegijlmnnno..lliliiihghhihiij....
(PID.TID 0000.0001)     23 .............lfiijm..mjn....jm...hfeeeddedfghiklnnmlmmlmljkkllmlllllm.....kkljiiijkmnn....
(PID.TID 0000.0001)     22 r............ighhgjnmmlo....n..snoomlkkkkijlnnnoppqqqrrsronopqqropnnnr.......njjimnprrqrts
(PID.TID 0000.0001)     21 ppp.........mlljijloopqrr......utsrppoponmnoqpooonrqprqprponorssppooqs.........mknopqrqrtr
(PID.TID 0000.0001)     20 opo........opqrrpnnpsssrr.........rqrrqqpqqqrqopqpqppqpoqpompsqqnpnmor..........omnooopqtq
(PID.TID 0000.0001)     19 qnn........rrtuxsnnnqqpppnp....tt......rrsstttrttsqpqppqpnllopmmlmmlmp............mnnnpqpq
(PID.TID 0000.0001)     18 nmo........skmookhjjlljlmmoqsuuts....rursttututtsssqqqqpomkklkikkjjkmop...........nmmoqomn
(PID.TID 0000.0001)     17 jkn..........khfedfgimkllmpqrut......rsrrrrrqqqqqqrrrrqpnmlkjiijiijkkmo..........rpmllmkii
(PID.TID 0000.0001)     16 ghk.......t..omlkjnkkpqnnoqrrs........rrssrrqqrrrrsstsrqpnlllkllkkklmlmp.........trolkihhh
(PID.TID 0000.0001)     15 ihhm.....qp..tstttwtqtwtqppqs..........rsuuuuuvvvvwwwvtutrpppooonommmkjko.......tvsrpnlkjj
(PID.TID 0000.0001)     14 ljhj.....roptvvwwwywstwurqnop..........stuvwyxxxyyzz+zxxxwvutqpqqqpoonljn......svvtttrpnmm
(PID.TID 0000.0001)     13 pnlk.....usrsttuuuwtssutrpono..........uuvuwxxxwxxyyzzyyzyxxwusssssqqpomo.....rtuvttuusrpo
(PID.TID 0000.0001)     12 qppppttstvtrrsrrrrssstssrqppqqrrrr.....ttuttuuuuuuvvvwwvvwwvwvttsrssrqpo......stuuuuuuttrr
(PID.TID 0000.0001)     11 rrrssqttvwvuutsrrrrsssssrqqqrssssrq...ssssr..ssrrrrssstsrstssttsrqrssrqp.....rsuvuuuuuutss
(PID.TID 0000.0001)     10 ssrsttvvwwxxxwvtttttsrssssrrsssssrqq..rrrrr..tsrqpqqrrrqqppqqrrrrqqrrrrq...tsrssstuuuuuuut
(PID.TID 0000.0001)      9 uttttuvvvxxxwwwvutuuttttttttttssssrrssrsrr..ttsrqqrrqqqqqqqqqqrrrrrrrrrq..rrssssstttuuuvvu
(PID.TID 0000.0001)      8 vuvvvvutuvwwwwvuuvvuvvvvuuuvuuuuuvvvvuuuuututsrsstttttsstsstssssstssssss..rqsstuutststuvvv
(PID.TID 0000.0001)      7 vvvuuttttuuvvvuuvvwvvvuuuuuuuuuvvwxyxwwwvvwvuttuvvvvwvvvvttutttuuutuuuuwwustuvwwvuttsstttu
(PID.TID 0000.0001)      6 tttsssstttttuuuuuvvvuttttttttuuuvuvwvuvwwvwwwwvwwwvwwwvvvttuuuuuvvvvvvwxyyyyyxxwvuttsssttt
(PID.TID 0000.0001)      5 rrrrssssssssssssttttssssrrrsssssssssttuuvvwxwwwwwvvvuuttttuvvvuuvvvvvwwxxxwvwwvutttssssssr
(PID.TID 0000.0001)      4 qqqqqqqrrqqqqqqqrrrrrqqqqqqqrrqqqqrrrrrsstuuuuuutttssrrrstuuuuuuuuuuuuuuts...rssrrrrrrrrqq
(PID.TID 0000.0001)      3 qpppppppqq.............................qqrrrrrrrrrrqqqqqrsssssssssssssrrr...rqqqqqqqrrqqqq
(PID.TID 0000.0001)      2 ...........................................rrrrqqqqqpppqqrrrrqqq...qqq......rqqqqqqqqrr...
(PID.TID 0000.0001)      1 ..........................................................................................
(PID.TID 0000.0001) // =======================================================
(PID.TID 0000.0001) // END OF FIELD                                          =
(PID.TID 0000.0001) // =======================================================
(PID.TID 0000.0001) 
(PID.TID 0000.0001) // =======================================================
(PID.TID 0000.0001) // Field Current vVel   at iteration         30
(PID.TID 0000.0001) // CMIN =         -1.284469842146817E-01
(PID.TID 0000.0001) // CMAX =          1.120172222538215E-01
(PID.TID 0000.0001) // CINT =          8.906081721055677E-03
(PID.TID 0000.0001) // SYMBOLS (CMIN->CMAX): -abcdefghijklmnopqrstuvwxyz+
(PID.TID 0000.0001) //                  0.0: .
(PID.TID 0000.0001) // RANGE I (Lo:Hi:Step):(     1:    90:     1)
(PID.TID 0000.0001) // RANGE J (Lo:Hi:Step):(    40:     1:    -1)
(PID.TID 0000.0001) // RANGE K (Lo:Hi:Step):(   1:   1:   1)
(PID.TID 0000.0001) // =======================================================
(PID.TID 0000.0001) K =   1
(PID.TID 0000.0001)                I=10      I=20      I=30      I=40      I=50      I=60      I=70      I=80      I=90
(PID.TID 0000.0001) |--J--|123456789|123456789|123456789|123456789|123456789|123456789|123456789|123456789|123456789|
(PID.TID 0000.0001)     40 mnprp.nmnnoooo...nn..................................................................mmmmm
(PID.TID 0000.0001)     39 nopponnnnnnoo...........................................................nnno........klmnno
(PID.TID 0000.0001)     38 ooo.......................................................................nnn......ml.oooo
(PID.TID 0000.0001)     37 pp...................................................................on...mnn...lmppo.ooop
(PID.TID 0000.0001)     36 pp.........................................pqqp....................nno....lklm.kknpqqpoooo
(PID.TID 0000.0001)     35 ...................................nnoo..ppqqqpo...nnopp...................lllmmmnopppqq..
(PID.TID 0000.0001)     34 ....................................non.oppppppo.nnooooon...................lklmmmnooopo..
(PID.TID 0000.0001)     33 ....................................oonnopooppooonnmmmlllmn.................mklmlklmmmmmo.
(PID.TID 0000.0001)     32 ....................................nnlmmmmmmmmllkjjjjjjjlm................qnjijiijkkklm..
(PID.TID 0000.0001)     31 ....................................kihhhhiiiihggfgghhhiikl..............lkigfefgijjkkmn..
(PID.TID 0000.0001)     30 ...................................igecbcbbabccccdeefghijjk............nliigfgggijjkllmn..
(PID.TID 0000.0001)     29 .................................kjhfdaaaa--abcdeeefhiijkkjk...........okjjjjjkllllmnnnn..
(PID.TID 0000.0001)     28 ...............................qonmkiigffffefgfghihijklmnmlkl.........nmlmmmmmnpqqpppp....
(PID.TID 0000.0001)     27 ..............nn..............rrrqqppomlmlkkkkjklmmmnoppqponmm...oorr.onnooonnorssrrqo....
(PID.TID 0000.0001)     26 ..............opq...........ovyxutsrrqrqqponnnnoppppqqqqrpoponoo....trroopqqqqrtutsrpm....
(PID.TID 0000.0001)     25 ..............sstt...onm...npr.xrqqppqsssrqqpoprrrrppqppppopponnm....qrppoqrrrrstsqpop....
(PID.TID 0000.0001)     24 ............omqsttp.nonm...npp..gkmmnoqrrqpppooppqqoooonoqqqqpnmlmoo.....knonortsqomms....
(PID.TID 0000.0001)     23 ............npqrrpl.jkij...lq...dhjjkkmnonnoooppqssqrtttuvvtsqpmnoqqp.......nptvtrrrrr....
(PID.TID 0000.0001)     22 r...........kmmooligefin......pmijlmmmmllklllmpqstttuuuwvtrrqnnnopppmk........ppppqstsqpno
(PID.TID 0000.0001)     21 lkk........klmligghjiknqp......n.oooppqqpnnooprrrqsutuuvutssqnoooonooo.........mmqrrrsrpmm
(PID.TID 0000.0001)     20 jkl.......onoonifiloqrsrp......m......rrponoppooooprstutttutttstrrqqrp...........ttsrrppqn
(PID.TID 0000.0001)     19 kkk.......rqwxywspprsttrono...nnn.....ssqponnnmnonnprrrssrrssuutqppqsp...........qppoonopn
(PID.TID 0000.0001)     18 onn.......r.+y+zwrooqqqponllnoo.....mnpnnonnmmllnmllnoponnopqrrrpmlnsto..........ppooqpopq
(PID.TID 0000.0001)     17 rpp.......q.rsrqokfhkmmlllmnno.......nnlmmmlllkklkkkloomllnopoopomlorsq.........lmnnorsppr
(PID.TID 0000.0001)     16 ppp......rp.mnmmlgfhhiiijlnnn.........nmlllkkllkjjjklmlkjkmmmmopnlmnpqqp........lmmmnpqpop
(PID.TID 0000.0001)     15 nooo....mnn.monnnklonkijklmmm.........mmlllklmmlkklmmmlkklmlkoqpnllmnnppo......mmnonnoonon
(PID.TID 0000.0001)     14 nnmm....klmmnonnnmosqkjlmnlkk.........onnnnmnoonnnoonnoooppnorrponnoppqqp.....mmnopooooppo
(PID.TID 0000.0001)     13 rqpn....moqqonnnnnqqonorspmkm.........ppqqqppppoopoooppqrqrrstrqrrqqqpqp.....noooqrpqrrsts
(PID.TID 0000.0001)     12 tsrpnmnpprtspprrrrrrqqrssqpppononn....qrrrq.nopqqqpoopppqqrstsqrsssrqqqo.....qqqrstsststuu
(PID.TID 0000.0001)     11 utttsqssrrttsrtuvvttttuutttsrqrqppp..pqqqqp.onopppooopppqqqrrqqrtttrrqqo....mpstttttssssuu
(PID.TID 0000.0001)     10 ttstuttsrqqststuvwustuutttsssrrrqpqr.ppqpp..onooppppppppqrrrqqqrsssrqqpo..sompsuutttssssst
(PID.TID 0000.0001)      9 qrrrssrqponpqrrqsvspprssrrrrrqpppnorqpppop.rpoooopopqqpppqrqpppqsrrqqpno.psrpoqrssssrrrrqr
(PID.TID 0000.0001)      8 opppqrqpponnoppopuuqpopqqqpppppoonnnnmmllnqsqoooonmlmmmoonponnoopqpppoln.qrsrpqssrrqqqqppp
(PID.TID 0000.0001)      7 ooooooppooooonnnoqtsqoopoooopooonnoomllkjknppnnoponnmlkmnnnonnnnoooonnmnqqoopppppqpoopppoo
(PID.TID 0000.0001)      6 oonnnnooonmnnnnnnopponnonmmmnnnnmmmonmlkjjkmnnnonnnonmllllmnnmmmnnnmmmmmnoonnoonnnnnnooooo
(PID.TID 0000.0001)      5 onnnnmmnnnmnnnmmnnnnnnnnmmmmnnnmmmlmmmmmllmmlmnonnnnnnmmmmmnnmmmnnnnmnnnno..onnnnnnnnooooo
(PID.TID 0000.0001)      4 nmmmmmmmmm............................nnnnnnmnooooonnmmnnnnnnnmmmmnnnnmmm...pnnnnnnnoonnnn
(PID.TID 0000.0001)      3 ..........................................nnnnnnnnnnnnnopooonnmn..nnnn.....oonnmmnnnonn...
(PID.TID 0000.0001)      2 ..........................................................................................
(PID.TID 0000.0001)      1 ..........................................................................................
(PID.TID 0000.0001) // =======================================================
(PID.TID 0000.0001) // END OF FIELD                                          =
(PID.TID 0000.0001) // =======================================================
(PID.TID 0000.0001) 
(PID.TID 0000.0001) // =======================================================
(PID.TID 0000.0001) // Field Current theta  at iteration         30
(PID.TID 0000.0001) // CMIN =         -1.979470599621851E+00
(PID.TID 0000.0001) // CMAX =          2.978005316449784E+01
(PID.TID 0000.0001) // CINT =          1.176278657930359E+00
(PID.TID 0000.0001) // SYMBOLS (CMIN->CMAX): -abcdefghijklmnopqrstuvwxyz+
(PID.TID 0000.0001) //                  0.0: .
(PID.TID 0000.0001) // RANGE I (Lo:Hi:Step):(     1:    90:     1)
(PID.TID 0000.0001) // RANGE J (Lo:Hi:Step):(    40:     1:    -1)
(PID.TID 0000.0001) // RANGE K (Lo:Hi:Step):(   1:   1:   1)
(PID.TID 0000.0001) // =======================================================
(PID.TID 0000.0001) K =   1
(PID.TID 0000.0001)                I=10      I=20      I=30      I=40      I=50      I=60      I=70      I=80      I=90
(PID.TID 0000.0001) |--J--|123456789|123456789|123456789|123456789|123456789|123456789|123456789|123456789|123456789|
(PID.TID 0000.0001)     40 aabcdbaa-----abcdddbbbbbbbbbbbbbbbbbbbbbbbbbbbbbbbbbbbbbbbbbbbbbbbbbbbbbbbbbbbbbbbbbbaaaaa
(PID.TID 0000.0001)     39 bccddcccbaa---bbbddbbbbbbbbbbbbbbbbbbbbbbbbbbbbbbbbbbbbbbbbbbbbbbbbbbbbb----bbbbbbbbbaaaab
(PID.TID 0000.0001)     38 efffeecddcbbbbbbbbbbbbbbbbbbbbbbbbbbbbbbbbbbbbbbbbbbbbbbbbbbbbbbbbbbbbbb-----bbbbbbcaaabcd
(PID.TID 0000.0001)     37 fghbbbbbbbbbbbbbbbbbbbbbbbbbbbbbbbbbbbbbbbbbbbbbbbbbbbbbbbbbbbbbbbbbbbbbbbbabbbbdccdebdeef
(PID.TID 0000.0001)     36 hhbbbbbbbbbbbbbbbbbbbbbbbbbbbbbbbbbbbbbbbbbcbaabbbbbbbbbbbbbbbbbbbbccccbbbbccdbddfgghhhhhh
(PID.TID 0000.0001)     35 ggbbbbbbbbbbbbbbbbbbbbbbbbbbbbbbbbba--abbbcccccbbbbeefffbbbbbbbbbbbbbbbbbbccdeeeefghiijiih
(PID.TID 0000.0001)     34 bbbbbbbbbbbbbbbbbbbbbbbbbbbbbbbbbbb---abcdddddddbdeefffggbbbbbbbbbbbbbbbbbbcbceffghijjjjbb
(PID.TID 0000.0001)     33 bbbbbbbbbbbbbbbbbbbbbbbbbbbbbbbbbbbb-abbccddddeeefffffgghhibbbbbbbbbbbbbbbbbbbehijjkkkkkkb
(PID.TID 0000.0001)     32 bbbbbbbbbbbbbbbbbbbbbbbbbbbbbbbbbbbbabccddeeefffghgghhhhiiibbbbbbbbbbbbbbbbccbejlmmmmlllkb
(PID.TID 0000.0001)     31 bbbbbbbbbbbbbbbbbbbbbbbbbbbbbbbbbbbbdfgghhhiiiiiijjjjkkkkkkbbbbbbbbbbbbbbgiljhlnnnnnnmmmbb
(PID.TID 0000.0001)     30 bbbbbbbbbbbbbbbbbbbbbbbbbbbbbbbbbbblkkllllllllllllllmmmnnmlbbbbbbbbbbbblnoqqqppppppoooonbb
(PID.TID 0000.0001)     29 bbbbbbbbbbbbbbbbbbbbbbbbbbbbbbbbbopoooooooooooooooooopppoonmbbbbbbbbbbbqrrrrrrqqqqqqppppbb
(PID.TID 0000.0001)     28 bbbbbbbbbbbbbbbbbbbbbbbbbbbbbbboqqqqqqqqqrrqqqqqqrrqrrrqqpooobbbbbbbbbssssssssrrrrrrqqqpbb
(PID.TID 0000.0001)     27 bbbbbbbbbbbbbbvvbbbbbbbbbbbbbbrssssstttsttttttttttttttssrrqqpqbbbsstubuuuuuuuuttttsssrbbbb
(PID.TID 0000.0001)     26 bbbbbbbbbbbbbbvuubbbbbbbbbbbutuuuuuvvvvvvvvvvvvuvvvuutttssrrrstvbtuvwwvvvvvvvvvuuttsrrbbbb
(PID.TID 0000.0001)     25 bbbbbbbbbbbbbbvvwxbbbwwxbbbuuvwwwwwxxxxxwwwwwwwwwvvvuuuuutttuuvwwbbbxwwwwwwvvvvvvutsrqbbbb
(PID.TID 0000.0001)     24 bbbbbbbbbbbbwwwwxyybxwxxbbbwwwbxxxyyyxxxxxxwwwwwwwwvvvvvvvvvvwwxxvvvbxwwwwwwwwwvvvuusrbbbb
(PID.TID 0000.0001)     23 bbbbbbbbbbbbxwxxyyzbxxxybbbxxxbbyyyyyyyyxxxxxxxxxxxxxxxxxwxxxxxwxxwwwbbbbwwxxxwwwwwvvubbbb
(PID.TID 0000.0001)     22 wbbbbbbbbbbbxxxyyyyyyyyzbbbxxbyyzzzzzzzzzzzzyyyyyyyyyyxxwwwxxxxwwwwwwwbbbbbbyxxxxxxxxyxxxx
(PID.TID 0000.0001)     21 xwxbbbbbbbbxxxyyyzzyzzz++bbbbbzyzzzzzz+++zzzzzyyyyyyyyxxwwwwwwwvwvvvvvbbbbbbbbyyyyyyyyyxxx
(PID.TID 0000.0001)     20 xwwbbbbbbbyyyyyyyzzzzzz++bbbbbbzbzzzzz+++++zzzzzzyyyyyxxxwxxxwwwwvvvvubbbbbbbbbyyyyyyyyxxx
(PID.TID 0000.0001)     19 wvvbbbbbbbzzzzyyyyzzzzzzzzzbbbzzzbbbbb+++++++++z+zzzyyyyxxxxxxwwwwwwvvbbbbbbbbbbbyyyxxxwwx
(PID.TID 0000.0001)     18 vutbbbbbbbzzzyyyyyyzzyzzzzzzzz+zzbbb++++++++++++++++zzzyyyyxxwwwvvwvvuubbbbbbbbbbyyyxwwwww
(PID.TID 0000.0001)     17 uutbbbbbbbzbzyyyyxxyyyyyyyyyzzzbbbbbzzzzzz+zz+zzzzzzzzzyyyyxxwwvvvvuuuubbbbbbbbbyyyyxwuuvv
(PID.TID 0000.0001)     16 utsbbbbbbzzbzyyyyxxxxxxxwxxxxzbbbbbbbyyyyzyzzyzzzyzzzyyyyyyyxxwwvvvuutttbbbbbbbbyyyyxwvvvu
(PID.TID 0000.0001)     15 utsrbbbbxyybxyxxxwxwwwwwvvwwxbbbbbbbbbxxxxxxxxxxxxxxyyxyyyyyxxwwwvuuutsssbbbbbbxxyxxxxxwvu
(PID.TID 0000.0001)     14 utsqbbbbxyxwxxwwwxwwvuuuuuuuubbbbbbbbbwwwwwwwwwwwxwwwwwwxxxxxwwwvvuutsssrbbbbbvwxxwxxwwwvu
(PID.TID 0000.0001)     13 tttrbbbbwxwvwwuuuvvuuuuttttttbbbbbbbbbvvvvvvvvvvuuuuuvvvvwwwwwvvvuuutssrqbbbbvwwwwvvwwwvvu
(PID.TID 0000.0001)     12 sstsststuutttttsssssstsrrssssrqrrqbbbbuvuuttttsssssssssssttutttttsstssrqbbbbbuvvuuttuutttt
(PID.TID 0000.0001)     11 qpprssssrrrrrrrqqppopqqppqpppqqqqqqbbtttsssbrrqqqrrrrqqqqqrrpqqqrqrrrrqpbbbbprssrrrrrqqqqq
(PID.TID 0000.0001)     10 mllmooooonoonoonnnnmmnmmmmllmnnnoooobqrqqqqbpqqppqpppppppoponoooooooopoobbonoppoonnnoonnmm
(PID.TID 0000.0001)      9 iiiiiiiiiijjiijiiiijjjiiiijiijkklmnmmnoooobnnnnoooonnnnnnnmlllmmmmllmmmmbmmmnnmllkjjjkjiii
(PID.TID 0000.0001)      8 fffffffgffgghhggfffghhgfgghhhiijjjjkjklllllllllllkllllllkkkjjjkkkkjjkkljbkkkkjjihhggggfeef
(PID.TID 0000.0001)      7 dddddeeefeeefgffeeeeeeeeeffffggggggghhijjjjjjjkkjiihhhhhiiiihhiiiiiiiiiiijiiihggfeeeeedddd
(PID.TID 0000.0001)      6 cccddddedddddeeeeeddeeeeeeeddeeeeeeffffghhhhhhiihffeeeeffgfffffghhhhhhhhhhggffeeddcdcccccc
(PID.TID 0000.0001)      5 cccdddddddddddddddddddddccddddeeeeeeeeeeefffeeefedccccddddedddeeeeffffeeeeeedddccccccccccc
(PID.TID 0000.0001)      4 cccccccbbccbbccccccccbbbbbbbccccccbbccccccdcccccccccccccccccccccccccdcccccbbbaabbbcccccccc
(PID.TID 0000.0001)      3 bbbbbaaaaabbbbbbbbbbbbbbbbbbbbbbbbbbbbbbbbbbbbbbbbbbbbbbbaaabbbbbbabbbbbbbbaaaaaabbcccbbbb
(PID.TID 0000.0001)      2 bbbbbbbbbbbbbbbbbbbbbbbbbbbbbbbbbbbbbbbbbbbbbbbbbbbaaaaaaaaaaaaabbaaaabbbbbaaaaaabbbbbbbbb
(PID.TID 0000.0001)      1 bbbbbbbbbbbbbbbbbbbbbbbbbbbbbbbbbbbbbbbbbbbbbbbbbbbbbbbbbbbbbbbbbbbbbbbbbbbbbbbbbbbbbbbbbb
(PID.TID 0000.0001) // =======================================================
(PID.TID 0000.0001) // END OF FIELD                                          =
(PID.TID 0000.0001) // =======================================================
(PID.TID 0000.0001) 
(PID.TID 0000.0001) // =======================================================
(PID.TID 0000.0001) // Field Current etaN   at iteration         30
(PID.TID 0000.0001) // CMIN =         -1.693593541184461E+00
(PID.TID 0000.0001) // CMAX =          8.849671415088514E-01
(PID.TID 0000.0001) // CINT =          9.550224750715974E-02
(PID.TID 0000.0001) // SYMBOLS (CMIN->CMAX): -abcdefghijklmnopqrstuvwxyz+
(PID.TID 0000.0001) //                  0.0: .
(PID.TID 0000.0001) // RANGE I (Lo:Hi:Step):(    -1:    92:     1)
(PID.TID 0000.0001) // RANGE J (Lo:Hi:Step):(    42:    -1:    -1)
(PID.TID 0000.0001) // RANGE K (Lo:Hi:Step):(   1:   1:   1)
(PID.TID 0000.0001) // =======================================================
(PID.TID 0000.0001) K =   1
(PID.TID 0000.0001)                I=8       I=18      I=28      I=38      I=48      I=58      I=68      I=78      I=88
(PID.TID 0000.0001) |--J--|101234567|901234567|901234567|901234567|901234567|901234567|901234567|901234567|901234567|9012
(PID.TID 0000.0001)     42 ............................................bcccccdddddeeeedddcddd..dddd.....aaaaabbbbbbb.....
(PID.TID 0000.0001)     41 ..............................................................................................
(PID.TID 0000.0001)     40 jjjiijk.kkkkkkkkkkkkk..................................................................kkjjjji
(PID.TID 0000.0001)     39 jjjiijkkkkkkkkkk...kk.....................................................iiii........kkjjjjji
(PID.TID 0000.0001)     38 jjjkkkkkkkkkkkl...........................................................iiiii......kjjjjjjjk
(PID.TID 0000.0001)     37 jkkkl..................................................................ll...iii...jjiji.jjjkkk
(PID.TID 0000.0001)     36 kklm.........................................oppp....................llmmlkjiiji.kihiijkkkkklm
(PID.TID 0000.0001)     35 lllm.................................oooo..ooooppo...rqqqq...........llm....jhhhhhhhhijjkklllm
(PID.TID 0000.0001)     34 .....................................onoo.pppoooop.qpooppqr..................kjihhhhijkklo....
(PID.TID 0000.0001)     33 m.....................................oooooooooopppppppppqrrs.................jiiijjjklmmmm...
(PID.TID 0000.0001)     32 l.....................................ppooooppppqqqqqqqqqrrrr................gjjjkmmmmnnmll...
(PID.TID 0000.0001)     31 ......................................oppppppqqrrrrrrrrrsssss..............llmmmmmnnnnnmmm....
(PID.TID 0000.0001)     30 .....................................qqrrrrrsrrssssssssttttts............lmnoqqqqpppoonnnn....
(PID.TID 0000.0001)     29 ...................................tuuvvvuuuvuuuuuuuuttuuuutts...........pqrrrrqqqpppooonn....
(PID.TID 0000.0001)     28 .................................vwwwxxxxwwwwwwvvvvvuuuuuuuutts.........rrrrrrrqqqqppooooo....
(PID.TID 0000.0001)     27 ................ss..............yxxxxxxyxxxxxxwwwvvvvvvvuuuuttss...rrrs.sssrrrrqqppppooo......
(PID.TID 0000.0001)     26 ................sss...........yyyyyxxxyxxxyyxxxxwwwwwvvvuuuutttttt.rrrtttttsssrrqqppppoo......
(PID.TID 0000.0001)     25 ................ssst...vvv...yyyyzyxxxxxxyyxxxxxwwwwvvvvuuuuttttttu...ttttttssrrqqpppoon......
(PID.TID 0000.0001)     24 ..............ststtuv.vvvv...yyy.+zyxxxxxxxxxxxwwwwwvvvvuuuttttttuuttt.uuttsssrrqqqppooo......
(PID.TID 0000.0001)     23 ..............sstttuu.vvvv...yyx..zyxxxxxxxxxxxxxxwwwvvvvuuuuuuuuuuuuuu....sssrrrqqqpppq......
(PID.TID 0000.0001)     22 pqq...........sstttuuuuvvv...zy.wwxxxxxxxxxxxxxxxwwwwvvvvuuuuuuuutuuuuuu......rrrrqqqqqqqqpqq.
(PID.TID 0000.0001)     21 pqqqq........tttttuuuuvvvvv.....wwwwwwwwxxxxxxwwwwwwwvvvvuuuuttttttttuuu........rrrrqqqqqqpqqq
(PID.TID 0000.0001)     20 pqqpq.......utttttuuuvvvvvv......w.wwwwwxxxxxxwwwwwwwwwwvvvvuuuuttttttuu.........rrrrqqqqqpqqp
(PID.TID 0000.0001)     19 ppppp.......uuuuuuuuvvvvvvvvw...www.....xxxxxxxxxxxxxxxwwwvvvvvuuuuttttu...........rrrqqqppppp
(PID.TID 0000.0001)     18 ppooo.......uuvvvuuvvvvvvvvvvwwwwww...yyyyyyxyyxxxxxxxxwwwwvvvvuuuuuttttt..........srrrqppppoo
(PID.TID 0000.0001)     17 ppooo.......v.xwvvvvvvwvvvvvvvwww.....yyxxxxxxxxxxxxxxxwwwwwvvvvuuuuttttt.........ssrrrqppppoo
(PID.TID 0000.0001)     16 qpppo......xw.yxwwwvvvvwvvvvvvvw.......yxxxxxxxxxxxxxxxwwwwwwwwvvuuuuuttts........sssrrrqqqppp
(PID.TID 0000.0001)     15 qqqpoo....xxv.xxwwwvxwvvvvuuuuv.........xxwwwwwwwwwwwxxwwwwxwwwwvvuuuuutssr......sssssssrrqqqp
(PID.TID 0000.0001)     14 rqqqpo....xwvvwwwvvvwvttuuutsts.........wwwwwwwwwvvwwwwwwwxxwwxwvvvvvuuutss.....ssssssssssrqqq
(PID.TID 0000.0001)     13 srrqpp....wxwvvvvuuuuuttuutssss.........vvvvuuuuuuuuutuvvvvvwwxwvvvvvuuttss....sssssssssstsrrq
(PID.TID 0000.0001)     12 rrrqqpppstvwwvuvvuuutttttttsssssrrrr....uuuutttttttssttttttuuuvuvvvuuuutts.....srrrsrrsrssrrrq
(PID.TID 0000.0001)     11 qqqpppqrsstuvvuwvuuuttsstsssrrrrrrrrr..ttttss.sssssrssstttttttttuvutttttss....pqqqqqqpqqqqqqqp
(PID.TID 0000.0001)     10 ooonnnnoooopqqqsssrqqqqqqqqqqqqqqqqrrr.rsssss.qrrrrrsssstttssssstuutsrssss..llopoonnnnnnooooon
(PID.TID 0000.0001)      9 kllllllkkkkklmmlmmmlllnnnnnnnnnoppprsrqqrrrs.ppqrrsssrsrstttsrrrsssrrqrrrr.onmmnnmlkkjkkkkklll
(PID.TID 0000.0001)      8 gghhhhggfggghijiiijihijjjjjjjkkllmmnoooppqqrrpoopqqqqqrqrrrrqqqqqrrqqqqqru.omlkkkjhhgggggfgghh
(PID.TID 0000.0001)      7 dddddddddeeefffggghhgeeeffggghhiiiijiiijklmnonnnnnmllllmnnnnnnnnoopooooooponmlkjhgfedeeeeddddd
(PID.TID 0000.0001)      6 bbbbbbccdddddeeeefffedddeeeefffffffffeefghikllkkjjihhggghijkllllllmmllllllkjihgfedddccccccbbbb
(PID.TID 0000.0001)      5 aaaabbbcccccccccdddddcccccccdddddddddddddeefgggggfeeeedeefghiihhiiiiihhhhgfedcbbbbbbbbbbbaaaaa
(PID.TID 0000.0001)      4 aaaabbbbbbcccccdddccccccccdddddcdddcccccccddddddddccccddeeffffffffffffeeedde..-aaaaaaaaaaaaaaa
(PID.TID 0000.0001)      3 bbbbcccccccc............................ccccccccccccccdddeeddddddddddddddee..baaaaaaaaaabbbbbb
(PID.TID 0000.0001)      2 ............................................bcccccdddddeeeedddcddd..dddd.....aaaaabbbbbbb.....
(PID.TID 0000.0001)      1 ..............................................................................................
(PID.TID 0000.0001)      0 jjjiijk.kkkkkkkkkkkkk..................................................................kkjjjji
(PID.TID 0000.0001)     -1 jjjiijkkkkkkkkkk...kk.....................................................iiii........kkjjjjji
(PID.TID 0000.0001) // =======================================================
(PID.TID 0000.0001) // END OF FIELD                                          =
(PID.TID 0000.0001) // =======================================================
(PID.TID 0000.0001) 
(PID.TID 0000.0001)  MDS_WRITE_FIELD: it,rec,kS,kL,kH=      30     1  15   1  15 file=U.0000000030
(PID.TID 0000.0001)  MDS_WRITE_FIELD: it,rec,kS,kL,kH=      30     1  15   1  15 file=V.0000000030
(PID.TID 0000.0001)  MDS_WRITE_FIELD: it,rec,kS,kL,kH=      30     1  15   1  15 file=T.0000000030
(PID.TID 0000.0001)  MDS_WRITE_FIELD: it,rec,kS,kL,kH=      30     1  15   1  15 file=S.0000000030
(PID.TID 0000.0001)  MDS_WRITE_FIELD: it,rec,kS,kL,kH=      30     1   1   1   1 file=Eta.0000000030
(PID.TID 0000.0001)  MDS_WRITE_FIELD: it,rec,kS,kL,kH=      30     1  15   1  15 file=W.0000000030
(PID.TID 0000.0001)  MDS_WRITE_FIELD: it,rec,kS,kL,kH=      30     1  15   1  15 file=PH.0000000030
(PID.TID 0000.0001)  MDS_WRITE_FIELD: it,rec,kS,kL,kH=      30     1   1   1   1 file=PHL.0000000030
(PID.TID 0000.0001)  MDS_WRITE_FIELD: it,rec,kS,kL,kH=      30     1   1   1   1 file=ETAtave.0000000030
(PID.TID 0000.0001)  MDS_WRITE_FIELD: it,rec,kS,kL,kH=      30     1  15   1  15 file=Ttave.0000000030
(PID.TID 0000.0001)  MDS_WRITE_FIELD: it,rec,kS,kL,kH=      30     1  15   1  15 file=Stave.0000000030
(PID.TID 0000.0001)  MDS_WRITE_FIELD: it,rec,kS,kL,kH=      30     1  15   1  15 file=uVeltave.0000000030
(PID.TID 0000.0001)  MDS_WRITE_FIELD: it,rec,kS,kL,kH=      30     1  15   1  15 file=vVeltave.0000000030
(PID.TID 0000.0001)  MDS_WRITE_FIELD: it,rec,kS,kL,kH=      30     1  15   1  15 file=wVeltave.0000000030
(PID.TID 0000.0001)  MDS_WRITE_FIELD: it,rec,kS,kL,kH=      30     1   1   1   1 file=Eta2tave.0000000030
(PID.TID 0000.0001)  MDS_WRITE_FIELD: it,rec,kS,kL,kH=      30     1  15   1  15 file=UTtave.0000000030
(PID.TID 0000.0001)  MDS_WRITE_FIELD: it,rec,kS,kL,kH=      30     1  15   1  15 file=VTtave.0000000030
(PID.TID 0000.0001)  MDS_WRITE_FIELD: it,rec,kS,kL,kH=      30     1  15   1  15 file=WTtave.0000000030
(PID.TID 0000.0001)  MDS_WRITE_FIELD: it,rec,kS,kL,kH=      30     1  15   1  15 file=UStave.0000000030
(PID.TID 0000.0001)  MDS_WRITE_FIELD: it,rec,kS,kL,kH=      30     1  15   1  15 file=VStave.0000000030
(PID.TID 0000.0001)  MDS_WRITE_FIELD: it,rec,kS,kL,kH=      30     1  15   1  15 file=WStave.0000000030
(PID.TID 0000.0001)  MDS_WRITE_FIELD: it,rec,kS,kL,kH=      30     1  15   1  15 file=TTtave.0000000030
(PID.TID 0000.0001)  MDS_WRITE_FIELD: it,rec,kS,kL,kH=      30     1  15   1  15 file=UUtave.0000000030
(PID.TID 0000.0001)  MDS_WRITE_FIELD: it,rec,kS,kL,kH=      30     1  15   1  15 file=VVtave.0000000030
(PID.TID 0000.0001)  MDS_WRITE_FIELD: it,rec,kS,kL,kH=      30     1  15   1  15 file=UVtave.0000000030
(PID.TID 0000.0001)  MDS_WRITE_FIELD: it,rec,kS,kL,kH=      30     1  15   1  15 file=Tdiftave.0000000030
(PID.TID 0000.0001)  MDS_WRITE_FIELD: it,rec,kS,kL,kH=      30     1  15   1  15 file=PhHytave.0000000030
(PID.TID 0000.0001)  MDS_WRITE_FIELD: it,rec,kS,kL,kH=      30     1   1   1   1 file=PHLtave.0000000030
(PID.TID 0000.0001)  MDS_WRITE_FIELD: it,rec,kS,kL,kH=      30     1   1   1   1 file=uFluxtave.0000000030
(PID.TID 0000.0001)  MDS_WRITE_FIELD: it,rec,kS,kL,kH=      30     1   1   1   1 file=vFluxtave.0000000030
(PID.TID 0000.0001)  MDS_WRITE_FIELD: it,rec,kS,kL,kH=      30     1   1   1   1 file=tFluxtave.0000000030
(PID.TID 0000.0001)  MDS_WRITE_FIELD: it,rec,kS,kL,kH=      30     1   1   1   1 file=sFluxtave.0000000030
(PID.TID 0000.0001)  MDS_WRITE_FIELD: it,rec,kS,kL,kH=      30     1   1   1   1 file=PHL2tave.0000000030
(PID.TID 0000.0001)  MDS_WRITE_FIELD: it,rec,kS,kL,kH=      30     1  15   1  15 file=Convtave.0000000030
(PID.TID 0000.0001) // Time-average data written, t-step        30
(PID.TID 0000.0001) 
(PID.TID 0000.0001)  MDS_WRITE_FIELD: it,rec,kS,kL,kH=      30     1  15   1  15 file=GM_Kwx-T.0000000030
(PID.TID 0000.0001)  MDS_WRITE_FIELD: it,rec,kS,kL,kH=      30     1  15   1  15 file=GM_Kwy-T.0000000030
(PID.TID 0000.0001)  MDS_WRITE_FIELD: it,rec,kS,kL,kH=      30     1  15   1  15 file=GM_Kwz-T.0000000030
(PID.TID 0000.0001)  MDS_WRITE_FIELD: it,rec,kS,kL,kH=      30     1   1   1   1 file=ETAN_forecast.0000000030
(PID.TID 0000.0001)  MDS_WRITE_FIELD: it,rec,kS,kL,kH=      30     1  15   1  15 file=THETA_forecast.0000000030
(PID.TID 0000.0001)  MDS_WRITE_FIELD: it,rec,kS,kL,kH=      30     1  15   1  15 file=SALT_forecast.0000000030
(PID.TID 0000.0001)  MDS_WRITE_FIELD: it,rec,kS,kL,kH=      30     1  15   1  15 file=UVEL_forecast.0000000030
(PID.TID 0000.0001)  MDS_WRITE_FIELD: it,rec,kS,kL,kH=      30     1  15   1  15 file=VVEL_forecast.0000000030
(PID.TID 0000.0001)  MDS_WRITE_FIELD: it,rec,kS,kL,kH=      30     1   1   1   1 file=ETAN_001_forecast.0000000030
(PID.TID 0000.0001)  MDS_WRITE_FIELD: it,rec,kS,kL,kH=      30     1  15   1  15 file=THETA_001_forecast.0000000030
(PID.TID 0000.0001)  MDS_WRITE_FIELD: it,rec,kS,kL,kH=      30     1  15   1  15 file=SALT_001_forecast.0000000030
(PID.TID 0000.0001)  MDS_WRITE_FIELD: it,rec,kS,kL,kH=      30     1  15   1  15 file=UVEL_001_forecast.0000000030
(PID.TID 0000.0001)  MDS_WRITE_FIELD: it,rec,kS,kL,kH=      30     1  15   1  15 file=VVEL_001_forecast.0000000030
(PID.TID 0000.0001)  MDS_WRITE_FIELD: it,rec,kS,kL,kH=      30     1   1   1   1 file=ETAN_002_forecast.0000000030
(PID.TID 0000.0001)  MDS_WRITE_FIELD: it,rec,kS,kL,kH=      30     1  15   1  15 file=THETA_002_forecast.0000000030
(PID.TID 0000.0001)  MDS_WRITE_FIELD: it,rec,kS,kL,kH=      30     1  15   1  15 file=SALT_002_forecast.0000000030
(PID.TID 0000.0001)  MDS_WRITE_FIELD: it,rec,kS,kL,kH=      30     1  15   1  15 file=UVEL_002_forecast.0000000030
(PID.TID 0000.0001)  MDS_WRITE_FIELD: it,rec,kS,kL,kH=      30     1  15   1  15 file=VVEL_002_forecast.0000000030
(PID.TID 0000.0001)  MDS_WRITE_FIELD: it,rec,kS,kL,kH=      30     1   1   1   1 file=ETAN_003_forecast.0000000030
(PID.TID 0000.0001)  MDS_WRITE_FIELD: it,rec,kS,kL,kH=      30     1  15   1  15 file=THETA_003_forecast.0000000030
(PID.TID 0000.0001)  MDS_WRITE_FIELD: it,rec,kS,kL,kH=      30     1  15   1  15 file=SALT_003_forecast.0000000030
(PID.TID 0000.0001)  MDS_WRITE_FIELD: it,rec,kS,kL,kH=      30     1  15   1  15 file=UVEL_003_forecast.0000000030
(PID.TID 0000.0001)  MDS_WRITE_FIELD: it,rec,kS,kL,kH=      30     1  15   1  15 file=VVEL_003_forecast.0000000030
(PID.TID 0000.0001)  MDS_WRITE_FIELD: it,rec,kS,kL,kH=      30     1   1   1   1 file=ETAN_004_forecast.0000000030
(PID.TID 0000.0001)  MDS_WRITE_FIELD: it,rec,kS,kL,kH=      30     1  15   1  15 file=THETA_004_forecast.0000000030
(PID.TID 0000.0001)  MDS_WRITE_FIELD: it,rec,kS,kL,kH=      30     1  15   1  15 file=SALT_004_forecast.0000000030
(PID.TID 0000.0001)  MDS_WRITE_FIELD: it,rec,kS,kL,kH=      30     1  15   1  15 file=UVEL_004_forecast.0000000030
(PID.TID 0000.0001)  MDS_WRITE_FIELD: it,rec,kS,kL,kH=      30     1  15   1  15 file=VVEL_004_forecast.0000000030
(PID.TID 0000.0001)  MDS_WRITE_FIELD: it,rec,kS,kL,kH=      30     1   1   1   1 file=ETAN_analysis.0000000030
(PID.TID 0000.0001)  MDS_WRITE_FIELD: it,rec,kS,kL,kH=      30     1  15   1  15 file=THETA_analysis.0000000030
(PID.TID 0000.0001)  MDS_WRITE_FIELD: it,rec,kS,kL,kH=      30     1  15   1  15 file=SALT_analysis.0000000030
(PID.TID 0000.0001)  MDS_WRITE_FIELD: it,rec,kS,kL,kH=      30     1  15   1  15 file=UVEL_analysis.0000000030
(PID.TID 0000.0001)  MDS_WRITE_FIELD: it,rec,kS,kL,kH=      30     1  15   1  15 file=VVEL_analysis.0000000030
(PID.TID 0000.0001)  MDS_WRITE_FIELD: it,rec,kS,kL,kH=      30     1   1   1   1 file=ETAN_001_analysis.0000000030
(PID.TID 0000.0001)  MDS_WRITE_FIELD: it,rec,kS,kL,kH=      30     1  15   1  15 file=THETA_001_analysis.0000000030
(PID.TID 0000.0001)  MDS_WRITE_FIELD: it,rec,kS,kL,kH=      30     1  15   1  15 file=SALT_001_analysis.0000000030
(PID.TID 0000.0001)  MDS_WRITE_FIELD: it,rec,kS,kL,kH=      30     1  15   1  15 file=UVEL_001_analysis.0000000030
(PID.TID 0000.0001)  MDS_WRITE_FIELD: it,rec,kS,kL,kH=      30     1  15   1  15 file=VVEL_001_analysis.0000000030
(PID.TID 0000.0001)  MDS_WRITE_FIELD: it,rec,kS,kL,kH=      30     1   1   1   1 file=ETAN_002_analysis.0000000030
(PID.TID 0000.0001)  MDS_WRITE_FIELD: it,rec,kS,kL,kH=      30     1  15   1  15 file=THETA_002_analysis.0000000030
(PID.TID 0000.0001)  MDS_WRITE_FIELD: it,rec,kS,kL,kH=      30     1  15   1  15 file=SALT_002_analysis.0000000030
(PID.TID 0000.0001)  MDS_WRITE_FIELD: it,rec,kS,kL,kH=      30     1  15   1  15 file=UVEL_002_analysis.0000000030
(PID.TID 0000.0001)  MDS_WRITE_FIELD: it,rec,kS,kL,kH=      30     1  15   1  15 file=VVEL_002_analysis.0000000030
(PID.TID 0000.0001)  MDS_WRITE_FIELD: it,rec,kS,kL,kH=      30     1   1   1   1 file=ETAN_003_analysis.0000000030
(PID.TID 0000.0001)  MDS_WRITE_FIELD: it,rec,kS,kL,kH=      30     1  15   1  15 file=THETA_003_analysis.0000000030
(PID.TID 0000.0001)  MDS_WRITE_FIELD: it,rec,kS,kL,kH=      30     1  15   1  15 file=SALT_003_analysis.0000000030
(PID.TID 0000.0001)  MDS_WRITE_FIELD: it,rec,kS,kL,kH=      30     1  15   1  15 file=UVEL_003_analysis.0000000030
(PID.TID 0000.0001)  MDS_WRITE_FIELD: it,rec,kS,kL,kH=      30     1  15   1  15 file=VVEL_003_analysis.0000000030
(PID.TID 0000.0001)  MDS_WRITE_FIELD: it,rec,kS,kL,kH=      30     1   1   1   1 file=ETAN_004_analysis.0000000030
(PID.TID 0000.0001)  MDS_WRITE_FIELD: it,rec,kS,kL,kH=      30     1  15   1  15 file=THETA_004_analysis.0000000030
(PID.TID 0000.0001)  MDS_WRITE_FIELD: it,rec,kS,kL,kH=      30     1  15   1  15 file=SALT_004_analysis.0000000030
(PID.TID 0000.0001)  MDS_WRITE_FIELD: it,rec,kS,kL,kH=      30     1  15   1  15 file=UVEL_004_analysis.0000000030
(PID.TID 0000.0001)  MDS_WRITE_FIELD: it,rec,kS,kL,kH=      30     1  15   1  15 file=VVEL_004_analysis.0000000030
 EXTERNAL_FIELDS_LOAD,        30 : iP,iLd,i0,i1=    1    2    1    2 ; Wght=  0.5000000000  0.5000000000
 EXTERNAL_FIELDS_LOAD: (fu0,1),fu,fv= -3.5633E-02 -1.4435E-02 -2.5034E-02 -3.7446E-02
 EXTERNAL_FIELDS_LOAD: SST,SSS,Q,E-P=  2.1328E-01  3.4568E+01  2.5313E+02  1.0007E-05
DEBUG_STATS_RL:          Uvel (THERMODYNAMICS)  min= -1.66763084786224E-01
DEBUG_STATS_RL:          Uvel (THERMODYNAMICS)  max=  8.58352950550804E-02
DEBUG_STATS_RL:          Uvel (THERMODYNAMICS) mean=  1.72493183414292E-03
DEBUG_STATS_RL:          Uvel (THERMODYNAMICS) S.D.=  1.66616201478076E-02
DEBUG_STATS_RL:          Vvel (THERMODYNAMICS)  min= -1.28436049689263E-01
DEBUG_STATS_RL:          Vvel (THERMODYNAMICS)  max=  1.12052006773912E-01
DEBUG_STATS_RL:          Vvel (THERMODYNAMICS) mean=  5.80802288070372E-04
DEBUG_STATS_RL:          Vvel (THERMODYNAMICS) S.D.=  1.30856874073867E-02
DEBUG_STATS_RL:          Wvel (THERMODYNAMICS)  min= -1.07192475607320E-04
DEBUG_STATS_RL:          Wvel (THERMODYNAMICS)  max=  1.05408034031488E-04
DEBUG_STATS_RL:          Wvel (THERMODYNAMICS) mean= -3.16814036167807E-09
DEBUG_STATS_RL:          Wvel (THERMODYNAMICS) S.D.=  1.14024766579749E-05
DEBUG_STATS_RL:         Theta (THERMODYNAMICS)  min= -1.97848341983685E+00
DEBUG_STATS_RL:         Theta (THERMODYNAMICS)  max=  2.97920948251562E+01
DEBUG_STATS_RL:         Theta (THERMODYNAMICS) mean=  3.20487857732852E+00
DEBUG_STATS_RL:         Theta (THERMODYNAMICS) S.D.=  5.85337199028973E+00
DEBUG_STATS_RL:          Salt (THERMODYNAMICS)  min= -6.85624969102121E-04
DEBUG_STATS_RL:          Salt (THERMODYNAMICS)  max=  3.74532607451311E+01
DEBUG_STATS_RL:          Salt (THERMODYNAMICS) mean=  1.88442103252691E+01
DEBUG_STATS_RL:          Salt (THERMODYNAMICS) S.D.=  1.73004041063921E+01
DEBUG_STATS_RL:         GtNm1 (THERMODYNAMICS)  min= -2.36437309879148E-06
DEBUG_STATS_RL:         GtNm1 (THERMODYNAMICS)  max=  2.47800255908755E-06
DEBUG_STATS_RL:         GtNm1 (THERMODYNAMICS) mean=  2.97451469117643E-09
DEBUG_STATS_RL:         GtNm1 (THERMODYNAMICS) S.D.=  1.87881030990193E-07
DEBUG_STATS_RL:         GsNm1 (THERMODYNAMICS)  min= -4.56848670455059E-07
DEBUG_STATS_RL:         GsNm1 (THERMODYNAMICS)  max=  4.75958158059358E-07
DEBUG_STATS_RL:         GsNm1 (THERMODYNAMICS) mean= -6.09495670115276E-10
DEBUG_STATS_RL:         GsNm1 (THERMODYNAMICS) S.D.=  1.77534808669882E-08
DEBUG_STATS_RL:                EtaN (DYNAMICS)  min= -1.69321733845380E+00
DEBUG_STATS_RL:                EtaN (DYNAMICS)  max=  8.84218653569950E-01
DEBUG_STATS_RL:                EtaN (DYNAMICS) mean= -1.65020619710547E-01
DEBUG_STATS_RL:                EtaN (DYNAMICS) S.D.=  6.39455588057445E-01
DEBUG_STATS_RL:                Uvel (DYNAMICS)  min= -1.66763084786224E-01
DEBUG_STATS_RL:                Uvel (DYNAMICS)  max=  8.58352950550804E-02
DEBUG_STATS_RL:                Uvel (DYNAMICS) mean=  1.72493183414292E-03
DEBUG_STATS_RL:                Uvel (DYNAMICS) S.D.=  1.66616201478076E-02
DEBUG_STATS_RL:                Vvel (DYNAMICS)  min= -1.28436049689263E-01
DEBUG_STATS_RL:                Vvel (DYNAMICS)  max=  1.12052006773912E-01
DEBUG_STATS_RL:                Vvel (DYNAMICS) mean=  5.80802288070372E-04
DEBUG_STATS_RL:                Vvel (DYNAMICS) S.D.=  1.30856874073867E-02
DEBUG_STATS_RL:                Wvel (DYNAMICS)  min= -1.07192475607320E-04
DEBUG_STATS_RL:                Wvel (DYNAMICS)  max=  1.05408034031488E-04
DEBUG_STATS_RL:                Wvel (DYNAMICS) mean= -3.16814036167807E-09
DEBUG_STATS_RL:                Wvel (DYNAMICS) S.D.=  1.14024766579749E-05
DEBUG_STATS_RL:               Theta (DYNAMICS)  min= -1.97848341983685E+00
DEBUG_STATS_RL:               Theta (DYNAMICS)  max=  2.97920948251562E+01
DEBUG_STATS_RL:               Theta (DYNAMICS) mean=  3.20487857732852E+00
DEBUG_STATS_RL:               Theta (DYNAMICS) S.D.=  5.85337199028973E+00
DEBUG_STATS_RL:                Salt (DYNAMICS)  min= -6.85624969102121E-04
DEBUG_STATS_RL:                Salt (DYNAMICS)  max=  3.74532607451311E+01
DEBUG_STATS_RL:                Salt (DYNAMICS) mean=  1.88442103252691E+01
DEBUG_STATS_RL:                Salt (DYNAMICS) S.D.=  1.73004041063921E+01
DEBUG_STATS_RL:                  Gu (DYNAMICS)  min= -1.68244647031058E-01
DEBUG_STATS_RL:                  Gu (DYNAMICS)  max=  8.50487737577421E-02
DEBUG_STATS_RL:                  Gu (DYNAMICS) mean=  1.60160707443078E-03
DEBUG_STATS_RL:                  Gu (DYNAMICS) S.D.=  1.71379124954034E-02
DEBUG_STATS_RL:                  Gv (DYNAMICS)  min= -1.31804831731769E-01
DEBUG_STATS_RL:                  Gv (DYNAMICS)  max=  1.04595715447257E-01
DEBUG_STATS_RL:                  Gv (DYNAMICS) mean=  2.54056052696281E-03
DEBUG_STATS_RL:                  Gv (DYNAMICS) S.D.=  1.39749790696543E-02
DEBUG_STATS_RL:               GuNm1 (DYNAMICS)  min= -7.79583700714762E-06
DEBUG_STATS_RL:               GuNm1 (DYNAMICS)  max=  7.57018395842837E-06
DEBUG_STATS_RL:               GuNm1 (DYNAMICS) mean= -1.77641405081181E-08
DEBUG_STATS_RL:               GuNm1 (DYNAMICS) S.D.=  1.19762412634523E-06
DEBUG_STATS_RL:               GvNm1 (DYNAMICS)  min= -1.07985899494568E-05
DEBUG_STATS_RL:               GvNm1 (DYNAMICS)  max=  1.65718797260779E-05
DEBUG_STATS_RL:               GvNm1 (DYNAMICS) mean=  7.61073418413338E-07
DEBUG_STATS_RL:               GvNm1 (DYNAMICS) S.D.=  2.64754930097465E-06
DEBUG_STATS_RL:               GtNm1 (DYNAMICS)  min= -2.36437309879148E-06
DEBUG_STATS_RL:               GtNm1 (DYNAMICS)  max=  2.47800255908755E-06
DEBUG_STATS_RL:               GtNm1 (DYNAMICS) mean=  2.97451469117643E-09
DEBUG_STATS_RL:               GtNm1 (DYNAMICS) S.D.=  1.87881030990193E-07
DEBUG_STATS_RL:               GsNm1 (DYNAMICS)  min= -4.56848670455059E-07
DEBUG_STATS_RL:               GsNm1 (DYNAMICS)  max=  4.75958158059358E-07
DEBUG_STATS_RL:               GsNm1 (DYNAMICS) mean= -6.09495670115276E-10
DEBUG_STATS_RL:               GsNm1 (DYNAMICS) S.D.=  1.77534808669882E-08
DEBUG_STATS_RL:    cg2d_b (SOLVE_FOR_PRESSURE)  min= -2.10303238505525E+04
DEBUG_STATS_RL:    cg2d_b (SOLVE_FOR_PRESSURE)  max=  1.88858173224597E+04
DEBUG_STATS_RL:    cg2d_b (SOLVE_FOR_PRESSURE) mean=  2.20942496159376E+00
DEBUG_STATS_RL:    cg2d_b (SOLVE_FOR_PRESSURE) S.D.=  3.79170790022753E+03
 cg2d: Sum(rhs),rhsMax =   2.43211603512898E-01  1.38132797763409E+00
(PID.TID 0000.0001)  cg2d: iter=     1 ; resid.=  1.06802280012552E-01
(PID.TID 0000.0001)  cg2d: iter=     2 ; resid.=  5.71080858939681E-02
(PID.TID 0000.0001)  cg2d: iter=     3 ; resid.=  4.14583498284910E-02
(PID.TID 0000.0001)  cg2d: iter=     4 ; resid.=  3.55202485001625E-02
(PID.TID 0000.0001)  cg2d: iter=     5 ; resid.=  3.34680924546573E-02
(PID.TID 0000.0001)  cg2d: iter=     6 ; resid.=  2.86081065839524E-02
(PID.TID 0000.0001)  cg2d: iter=     7 ; resid.=  2.57874910076341E-02
(PID.TID 0000.0001)  cg2d: iter=     8 ; resid.=  2.12447306992534E-02
(PID.TID 0000.0001)  cg2d: iter=     9 ; resid.=  1.72222888114502E-02
(PID.TID 0000.0001)  cg2d: iter=    10 ; resid.=  1.40813728589571E-02
(PID.TID 0000.0001)  cg2d: iter=    11 ; resid.=  1.14718949070670E-02
(PID.TID 0000.0001)  cg2d: iter=    12 ; resid.=  9.82777858508177E-03
(PID.TID 0000.0001)  cg2d: iter=    13 ; resid.=  8.93247989870957E-03
(PID.TID 0000.0001)  cg2d: iter=    14 ; resid.=  7.37529653219403E-03
(PID.TID 0000.0001)  cg2d: iter=    15 ; resid.=  6.13119934658054E-03
(PID.TID 0000.0001)  cg2d: iter=    16 ; resid.=  5.01196239968815E-03
(PID.TID 0000.0001)  cg2d: iter=    17 ; resid.=  4.52001838199644E-03
(PID.TID 0000.0001)  cg2d: iter=    18 ; resid.=  3.98430823694013E-03
(PID.TID 0000.0001)  cg2d: iter=    19 ; resid.=  3.30236303711435E-03
(PID.TID 0000.0001)  cg2d: iter=    20 ; resid.=  2.86686163982515E-03
(PID.TID 0000.0001)  cg2d: iter=    21 ; resid.=  2.32311277176180E-03
(PID.TID 0000.0001)  cg2d: iter=    22 ; resid.=  1.83392165828206E-03
(PID.TID 0000.0001)  cg2d: iter=    23 ; resid.=  1.46332057106921E-03
(PID.TID 0000.0001)  cg2d: iter=    24 ; resid.=  1.18467067021572E-03
(PID.TID 0000.0001)  cg2d: iter=    25 ; resid.=  9.54163110835830E-04
(PID.TID 0000.0001)  cg2d: iter=    26 ; resid.=  8.13529819513480E-04
(PID.TID 0000.0001)  cg2d: iter=    27 ; resid.=  7.29946074890303E-04
(PID.TID 0000.0001)  cg2d: iter=    28 ; resid.=  6.76850020550356E-04
(PID.TID 0000.0001)  cg2d: iter=    29 ; resid.=  6.18347975940191E-04
(PID.TID 0000.0001)  cg2d: iter=    30 ; resid.=  5.18804109650946E-04
(PID.TID 0000.0001)  cg2d: iter=    31 ; resid.=  4.37946178280703E-04
(PID.TID 0000.0001)  cg2d: iter=    32 ; resid.=  3.40006943050805E-04
(PID.TID 0000.0001)  cg2d: iter=    33 ; resid.=  2.61184247906603E-04
(PID.TID 0000.0001)  cg2d: iter=    34 ; resid.=  1.95900500280913E-04
(PID.TID 0000.0001)  cg2d: iter=    35 ; resid.=  1.50684262835091E-04
(PID.TID 0000.0001)  cg2d: iter=    36 ; resid.=  1.24950705820644E-04
(PID.TID 0000.0001)  cg2d: iter=    37 ; resid.=  1.04409407788116E-04
(PID.TID 0000.0001)  cg2d: iter=    38 ; resid.=  9.36440230696764E-05
(PID.TID 0000.0001)  cg2d: iter=    39 ; resid.=  7.93814249896898E-05
(PID.TID 0000.0001)  cg2d: iter=    40 ; resid.=  6.79390512367305E-05
(PID.TID 0000.0001)  cg2d: iter=    41 ; resid.=  5.72991668809470E-05
(PID.TID 0000.0001)  cg2d: iter=    42 ; resid.=  4.65064493438011E-05
(PID.TID 0000.0001)  cg2d: iter=    43 ; resid.=  3.80393784267403E-05
(PID.TID 0000.0001)  cg2d: iter=    44 ; resid.=  3.06266977966032E-05
(PID.TID 0000.0001)  cg2d: iter=    45 ; resid.=  2.70317441166636E-05
(PID.TID 0000.0001)  cg2d: iter=    46 ; resid.=  2.39905819008831E-05
(PID.TID 0000.0001)  cg2d: iter=    47 ; resid.=  2.16985725474050E-05
(PID.TID 0000.0001)  cg2d: iter=    48 ; resid.=  1.84924708173192E-05
(PID.TID 0000.0001)  cg2d: iter=    49 ; resid.=  1.53165403404472E-05
(PID.TID 0000.0001)  cg2d: iter=    50 ; resid.=  1.27617802735177E-05
(PID.TID 0000.0001)  cg2d: iter=    51 ; resid.=  1.06489497976039E-05
(PID.TID 0000.0001)  cg2d: iter=    52 ; resid.=  8.63128652598863E-06
(PID.TID 0000.0001)  cg2d: iter=    53 ; resid.=  6.95573419878956E-06
(PID.TID 0000.0001)  cg2d: iter=    54 ; resid.=  5.66327643398687E-06
(PID.TID 0000.0001)  cg2d: iter=    55 ; resid.=  4.56026223416699E-06
(PID.TID 0000.0001)  cg2d: iter=    56 ; resid.=  3.70461853465475E-06
(PID.TID 0000.0001)  cg2d: iter=    57 ; resid.=  2.75916877166832E-06
(PID.TID 0000.0001)  cg2d: iter=    58 ; resid.=  2.02300073110703E-06
(PID.TID 0000.0001)  cg2d: iter=    59 ; resid.=  1.46624261040431E-06
(PID.TID 0000.0001)  cg2d: iter=    60 ; resid.=  1.10998143973833E-06
(PID.TID 0000.0001)  cg2d: iter=    61 ; resid.=  9.36919909179214E-07
(PID.TID 0000.0001)  cg2d: iter=    62 ; resid.=  8.68363588512103E-07
(PID.TID 0000.0001)  cg2d: iter=    63 ; resid.=  7.34625220710792E-07
(PID.TID 0000.0001)  cg2d: iter=    64 ; resid.=  5.67443530821306E-07
(PID.TID 0000.0001)  cg2d: iter=    65 ; resid.=  4.52561595428807E-07
(PID.TID 0000.0001)  cg2d: iter=    66 ; resid.=  3.82706761134070E-07
(PID.TID 0000.0001)  cg2d: iter=    67 ; resid.=  2.99154673497882E-07
(PID.TID 0000.0001)  cg2d: iter=    68 ; resid.=  2.38710980306214E-07
(PID.TID 0000.0001)  cg2d: iter=    69 ; resid.=  1.91274917202917E-07
(PID.TID 0000.0001)  cg2d: iter=    70 ; resid.=  1.57695775734830E-07
(PID.TID 0000.0001)  cg2d: iter=    71 ; resid.=  1.46378402054276E-07
(PID.TID 0000.0001)  cg2d: iter=    72 ; resid.=  1.35079125340922E-07
(PID.TID 0000.0001)  cg2d: iter=    73 ; resid.=  1.13958502412982E-07
(PID.TID 0000.0001)  cg2d: iter=    74 ; resid.=  9.25500262309860E-08
(PID.TID 0000.0001)  cg2d: iter=    75 ; resid.=  7.13724571346241E-08
(PID.TID 0000.0001)  cg2d: iter=    76 ; resid.=  5.74856102592341E-08
(PID.TID 0000.0001)  cg2d: iter=    77 ; resid.=  4.66836642191564E-08
(PID.TID 0000.0001)  cg2d: iter=    78 ; resid.=  3.71175281668431E-08
(PID.TID 0000.0001)  cg2d: iter=    79 ; resid.=  3.02015975906869E-08
(PID.TID 0000.0001)  cg2d: iter=    80 ; resid.=  2.39196625527377E-08
(PID.TID 0000.0001)  cg2d: iter=    81 ; resid.=  1.93988626180804E-08
(PID.TID 0000.0001)  cg2d: iter=    82 ; resid.=  1.60343028323823E-08
(PID.TID 0000.0001)  cg2d: iter=    83 ; resid.=  1.29098694810805E-08
(PID.TID 0000.0001)  cg2d: iter=    84 ; resid.=  1.02178378532966E-08
(PID.TID 0000.0001)  cg2d: iter=    85 ; resid.=  8.30098704440956E-09
(PID.TID 0000.0001)  cg2d: iter=    86 ; resid.=  7.36776101064749E-09
(PID.TID 0000.0001)  cg2d: iter=    87 ; resid.=  6.47268974393416E-09
(PID.TID 0000.0001)  cg2d: iter=    88 ; resid.=  5.08372868783780E-09
(PID.TID 0000.0001)  cg2d: iter=    89 ; resid.=  4.14418121089724E-09
(PID.TID 0000.0001)  cg2d: iter=    90 ; resid.=  3.36441778736631E-09
(PID.TID 0000.0001)  cg2d: iter=    91 ; resid.=  2.66219427953997E-09
(PID.TID 0000.0001)  cg2d: iter=    92 ; resid.=  2.15752631197586E-09
(PID.TID 0000.0001)  cg2d: iter=    93 ; resid.=  1.67694871800960E-09
(PID.TID 0000.0001)  cg2d: iter=    94 ; resid.=  1.23967702902005E-09
(PID.TID 0000.0001)  cg2d: iter=    95 ; resid.=  9.43345781666962E-10
(PID.TID 0000.0001)  cg2d: iter=    96 ; resid.=  7.39462929200554E-10
(PID.TID 0000.0001)  cg2d: iter=    97 ; resid.=  5.78596342726939E-10
(PID.TID 0000.0001)  cg2d: iter=    98 ; resid.=  4.35857635860943E-10
(PID.TID 0000.0001)  cg2d: iter=    99 ; resid.=  3.29947802005148E-10
(PID.TID 0000.0001)  cg2d: iter=   100 ; resid.=  2.81096667080460E-10
(PID.TID 0000.0001)  cg2d: iter=   101 ; resid.=  2.70635038664298E-10
(PID.TID 0000.0001)  cg2d: iter=   102 ; resid.=  2.46866824357203E-10
(PID.TID 0000.0001)  cg2d: iter=   103 ; resid.=  1.94835583094772E-10
(PID.TID 0000.0001)  cg2d: iter=   104 ; resid.=  1.61194174201720E-10
(PID.TID 0000.0001)  cg2d: iter=   105 ; resid.=  1.26336054738825E-10
(PID.TID 0000.0001)  cg2d: iter=   106 ; resid.=  9.55090035426779E-11
(PID.TID 0000.0001)  cg2d: iter=   107 ; resid.=  7.33496970323745E-11
(PID.TID 0000.0001)  cg2d: iter=   108 ; resid.=  5.30785311887690E-11
(PID.TID 0000.0001)  cg2d: iter=   109 ; resid.=  4.04016094853843E-11
(PID.TID 0000.0001)  cg2d: iter=   110 ; resid.=  3.05952975317617E-11
(PID.TID 0000.0001)  cg2d: iter=   111 ; resid.=  2.36771395075409E-11
(PID.TID 0000.0001)  cg2d: iter=   112 ; resid.=  2.07075922931875E-11
(PID.TID 0000.0001)  cg2d: iter=   113 ; resid.=  1.70252893230604E-11
(PID.TID 0000.0001)  cg2d: iter=   114 ; resid.=  1.25031102589520E-11
(PID.TID 0000.0001)  cg2d: iter=   115 ; resid.=  9.40218624101494E-12
(PID.TID 0000.0001)  cg2d: iter=   116 ; resid.=  7.29195963999007E-12
(PID.TID 0000.0001)  cg2d: iter=   117 ; resid.=  5.66009046200979E-12
(PID.TID 0000.0001)  cg2d: iter=   118 ; resid.=  4.23881909043503E-12
(PID.TID 0000.0001)  cg2d: iter=   119 ; resid.=  3.34477816474616E-12
(PID.TID 0000.0001)  cg2d: iter=   120 ; resid.=  2.57717161728793E-12
(PID.TID 0000.0001)  cg2d: iter=   121 ; resid.=  1.93253337677946E-12
(PID.TID 0000.0001)  cg2d: iter=   122 ; resid.=  1.45516798605231E-12
(PID.TID 0000.0001)  cg2d: iter=   123 ; resid.=  1.06157700910125E-12
(PID.TID 0000.0001)  cg2d: iter=   124 ; resid.=  7.58242155074887E-13
(PID.TID 0000.0001)  cg2d: iter=   125 ; resid.=  5.72901602608523E-13
(PID.TID 0000.0001)  cg2d: iter=   126 ; resid.=  4.36866125873608E-13
(PID.TID 0000.0001)  cg2d: iter=   127 ; resid.=  3.20724009108719E-13
(PID.TID 0000.0001)  cg2d: iter=   128 ; resid.=  2.19133437571152E-13
(PID.TID 0000.0001)  cg2d: iter=   129 ; resid.=  1.43524352211866E-13
(PID.TID 0000.0001)  cg2d: iter=   130 ; resid.=  1.01090274313609E-13
(PID.TID 0000.0001)  cg2d: iter=   131 ; resid.=  7.43609614928224E-14
DEBUG_STATS_RL:    cg2d_x (SOLVE_FOR_PRESSURE)  min= -1.65678379590467E+01
DEBUG_STATS_RL:    cg2d_x (SOLVE_FOR_PRESSURE)  max=  8.77597239473001E+00
DEBUG_STATS_RL:    cg2d_x (SOLVE_FOR_PRESSURE) mean= -1.62421476856629E+00
DEBUG_STATS_RL:    cg2d_x (SOLVE_FOR_PRESSURE) S.D.=  6.29023261472849E+00
(PID.TID 0000.0001)      cg2d_init_res =   4.16323493080940E-01
(PID.TID 0000.0001)      cg2d_iters(min,last) =      -1     131
(PID.TID 0000.0001)      cg2d_last_res =   7.43609614928224E-14
(PID.TID 0000.0001) // =======================================================
(PID.TID 0000.0001) // Begin MONITOR dynamic field statistics
(PID.TID 0000.0001) // =======================================================
(PID.TID 0000.0001) %MON time_tsnumber                =                    31
(PID.TID 0000.0001) %MON time_secondsf                =   2.6784000000000E+06
(PID.TID 0000.0001) %MON dynstat_eta_max              =   8.9459453565031E-01
(PID.TID 0000.0001) %MON dynstat_eta_min              =  -1.6888723709527E+00
(PID.TID 0000.0001) %MON dynstat_eta_mean             =  -2.3052609877722E-03
(PID.TID 0000.0001) %MON dynstat_eta_sd               =   5.5966258130938E-01
(PID.TID 0000.0001) %MON dynstat_eta_del2             =   2.1567411797935E-03
(PID.TID 0000.0001) %MON dynstat_uvel_max             =   8.3725412581888E-02
(PID.TID 0000.0001) %MON dynstat_uvel_min             =  -1.6650289799441E-01
(PID.TID 0000.0001) %MON dynstat_uvel_mean            =   1.3445994775087E-03
(PID.TID 0000.0001) %MON dynstat_uvel_sd              =   1.0502272965511E-02
(PID.TID 0000.0001) %MON dynstat_uvel_del2            =   7.2489584496353E-05
(PID.TID 0000.0001) %MON dynstat_vvel_max             =   1.1088206106735E-01
(PID.TID 0000.0001) %MON dynstat_vvel_min             =  -1.2484596600840E-01
(PID.TID 0000.0001) %MON dynstat_vvel_mean            =   2.4902347035737E-05
(PID.TID 0000.0001) %MON dynstat_vvel_sd              =   8.0964627591764E-03
(PID.TID 0000.0001) %MON dynstat_vvel_del2            =   7.2093007179393E-05
(PID.TID 0000.0001) %MON dynstat_wvel_max             =   1.0254345568370E-04
(PID.TID 0000.0001) %MON dynstat_wvel_min             =  -9.3342309512391E-05
(PID.TID 0000.0001) %MON dynstat_wvel_mean            =   1.4167887612624E-12
(PID.TID 0000.0001) %MON dynstat_wvel_sd              =   1.2862707718047E-05
(PID.TID 0000.0001) %MON dynstat_wvel_del2            =   1.5810406757376E-07
(PID.TID 0000.0001) %MON dynstat_theta_max            =   2.9792094825156E+01
(PID.TID 0000.0001) %MON dynstat_theta_min            =  -1.9784834198369E+00
(PID.TID 0000.0001) %MON dynstat_theta_mean           =   3.6197891876320E+00
(PID.TID 0000.0001) %MON dynstat_theta_sd             =   4.4154405374711E+00
(PID.TID 0000.0001) %MON dynstat_theta_del2           =   4.7756327679612E-03
(PID.TID 0000.0001) %MON dynstat_salt_max             =   3.7453260745131E+01
(PID.TID 0000.0001) %MON dynstat_salt_min             =   2.9803483782799E+01
(PID.TID 0000.0001) %MON dynstat_salt_mean            =   3.4717285118828E+01
(PID.TID 0000.0001) %MON dynstat_salt_sd              =   2.9619871423653E-01
(PID.TID 0000.0001) %MON dynstat_salt_del2            =   9.9021739521564E-04
(PID.TID 0000.0001) %MON dynstat_sst_max              =   2.9792094825156E+01
(PID.TID 0000.0001) %MON dynstat_sst_min              =  -1.9784834198369E+00
(PID.TID 0000.0001) %MON dynstat_sst_mean             =   1.8648397556878E+01
(PID.TID 0000.0001) %MON dynstat_sst_sd               =   9.0961958504642E+00
(PID.TID 0000.0001) %MON dynstat_sst_del2             =   2.5426870262620E-02
(PID.TID 0000.0001) %MON dynstat_sss_max              =   3.7424898175662E+01
(PID.TID 0000.0001) %MON dynstat_sss_min              =   2.9803483782799E+01
(PID.TID 0000.0001) %MON dynstat_sss_mean             =   3.4844578378838E+01
(PID.TID 0000.0001) %MON dynstat_sss_sd               =   9.7491851440688E-01
(PID.TID 0000.0001) %MON dynstat_sss_del2             =   7.8193394141155E-03
(PID.TID 0000.0001) %MON forcing_qnet_max             =   3.9182731628418E+02
(PID.TID 0000.0001) %MON forcing_qnet_min             =  -1.7642675781250E+02
(PID.TID 0000.0001) %MON forcing_qnet_mean            =  -1.5238888489994E+01
(PID.TID 0000.0001) %MON forcing_qnet_sd              =   9.4114712979606E+01
(PID.TID 0000.0001) %MON forcing_qnet_del2            =   9.7322307830092E-01
(PID.TID 0000.0001) %MON forcing_qsw_max              =   0.0000000000000E+00
(PID.TID 0000.0001) %MON forcing_qsw_min              =   0.0000000000000E+00
(PID.TID 0000.0001) %MON forcing_qsw_mean             =   0.0000000000000E+00
(PID.TID 0000.0001) %MON forcing_qsw_sd               =   0.0000000000000E+00
(PID.TID 0000.0001) %MON forcing_qsw_del2             =   0.0000000000000E+00
(PID.TID 0000.0001) %MON forcing_empmr_max            =   7.7462892988933E-05
(PID.TID 0000.0001) %MON forcing_empmr_min            =  -7.7350620131256E-05
(PID.TID 0000.0001) %MON forcing_empmr_mean           =   9.3317302101000E-07
(PID.TID 0000.0001) %MON forcing_empmr_sd             =   2.8186220289087E-05
(PID.TID 0000.0001) %MON forcing_empmr_del2           =   3.5503679705846E-07
(PID.TID 0000.0001) %MON forcing_fu_max               =   2.8382815420628E-01
(PID.TID 0000.0001) %MON forcing_fu_min               =  -1.9083349406719E-01
(PID.TID 0000.0001) %MON forcing_fu_mean              =   1.6816238384601E-02
(PID.TID 0000.0001) %MON forcing_fu_sd                =   9.0089488020582E-02
(PID.TID 0000.0001) %MON forcing_fu_del2              =   6.6869774104657E-04
(PID.TID 0000.0001) %MON forcing_fv_max               =   1.8921542167664E-01
(PID.TID 0000.0001) %MON forcing_fv_min               =  -1.6326740384102E-01
(PID.TID 0000.0001) %MON forcing_fv_mean              =  -6.2378113402327E-03
(PID.TID 0000.0001) %MON forcing_fv_sd                =   4.4915007548310E-02
(PID.TID 0000.0001) %MON forcing_fv_del2              =   4.6591560448849E-04
(PID.TID 0000.0001) %MON trAdv_CFL_u_max              =   3.3398037821329E-02
(PID.TID 0000.0001) %MON trAdv_CFL_v_max              =   2.5530443552021E-02
(PID.TID 0000.0001) %MON trAdv_CFL_w_max              =   4.4524313016817E-02
(PID.TID 0000.0001) %MON advcfl_uvel_max              =   3.3339158175038E-02
(PID.TID 0000.0001) %MON advcfl_vvel_max              =   2.4255568906863E-02
(PID.TID 0000.0001) %MON advcfl_wvel_max              =   3.5925629752215E-02
(PID.TID 0000.0001) %MON advcfl_W_hf_max              =   4.3623978984833E-02
(PID.TID 0000.0001) %MON pe_b_mean                    =   4.0081236494700E-04
(PID.TID 0000.0001) %MON ke_max                       =   1.3668768824127E-02
(PID.TID 0000.0001) %MON ke_mean                      =   8.0361072614303E-05
(PID.TID 0000.0001) %MON ke_vol                       =   1.3226782436723E+18
(PID.TID 0000.0001) %MON vort_r_min                   =  -3.1229477308224E-07
(PID.TID 0000.0001) %MON vort_r_max                   =   3.9994379560208E-07
(PID.TID 0000.0001) %MON vort_a_mean                  =  -2.5274807096977E-05
(PID.TID 0000.0001) %MON vort_a_sd                    =   7.3604549774589E-05
(PID.TID 0000.0001) %MON vort_p_mean                  =  -3.1845655420882E-05
(PID.TID 0000.0001) %MON vort_p_sd                    =   1.3162542287402E-04
(PID.TID 0000.0001) %MON surfExpan_theta_mean         =   1.7308254841503E-07
(PID.TID 0000.0001) %MON surfExpan_salt_mean          =   1.3057049814719E-08
(PID.TID 0000.0001) // =======================================================
(PID.TID 0000.0001) // End MONITOR dynamic field statistics
(PID.TID 0000.0001) // =======================================================
 EXTERNAL_FIELDS_LOAD,        31 : iP,iLd,i0,i1=    1    2    1    2 ; Wght=  0.4666666667  0.5333333333
 EXTERNAL_FIELDS_LOAD: (fu0,1),fu,fv= -3.5633E-02 -1.4435E-02 -2.4327E-02 -3.6125E-02
 EXTERNAL_FIELDS_LOAD: SST,SSS,Q,E-P=  1.6361E-01  3.4558E+01  2.5228E+02  9.8983E-06
DEBUG_STATS_RL:          Uvel (THERMODYNAMICS)  min= -1.66502897994409E-01
DEBUG_STATS_RL:          Uvel (THERMODYNAMICS)  max=  8.37254125818884E-02
DEBUG_STATS_RL:          Uvel (THERMODYNAMICS) mean=  1.70609574277620E-03
DEBUG_STATS_RL:          Uvel (THERMODYNAMICS) S.D.=  1.68238128906869E-02
DEBUG_STATS_RL:          Vvel (THERMODYNAMICS)  min= -1.24845966008396E-01
DEBUG_STATS_RL:          Vvel (THERMODYNAMICS)  max=  1.10882061067347E-01
DEBUG_STATS_RL:          Vvel (THERMODYNAMICS) mean=  3.35241504601110E-04
DEBUG_STATS_RL:          Vvel (THERMODYNAMICS) S.D.=  1.28211088283454E-02
DEBUG_STATS_RL:          Wvel (THERMODYNAMICS)  min= -9.33423095123913E-05
DEBUG_STATS_RL:          Wvel (THERMODYNAMICS)  max=  1.02543455683702E-04
DEBUG_STATS_RL:          Wvel (THERMODYNAMICS) mean= -9.03124755193046E-08
DEBUG_STATS_RL:          Wvel (THERMODYNAMICS) S.D.=  1.15816288969663E-05
DEBUG_STATS_RL:         Theta (THERMODYNAMICS)  min= -1.97738041147966E+00
DEBUG_STATS_RL:         Theta (THERMODYNAMICS)  max=  2.98044578585431E+01
DEBUG_STATS_RL:         Theta (THERMODYNAMICS) mean=  3.20508217099622E+00
DEBUG_STATS_RL:         Theta (THERMODYNAMICS) S.D.=  5.85351834652703E+00
DEBUG_STATS_RL:          Salt (THERMODYNAMICS)  min= -6.85624969102121E-04
DEBUG_STATS_RL:          Salt (THERMODYNAMICS)  max=  3.74536892249416E+01
DEBUG_STATS_RL:          Salt (THERMODYNAMICS) mean=  1.88441857944759E+01
DEBUG_STATS_RL:          Salt (THERMODYNAMICS) S.D.=  1.73003820609873E+01
DEBUG_STATS_RL:         GtNm1 (THERMODYNAMICS)  min= -2.16494648082941E-06
DEBUG_STATS_RL:         GtNm1 (THERMODYNAMICS)  max=  2.41707510911812E-06
DEBUG_STATS_RL:         GtNm1 (THERMODYNAMICS) mean=  4.48078491221652E-09
DEBUG_STATS_RL:         GtNm1 (THERMODYNAMICS) S.D.=  1.83894554650585E-07
DEBUG_STATS_RL:         GsNm1 (THERMODYNAMICS)  min= -4.27156789737751E-07
DEBUG_STATS_RL:         GsNm1 (THERMODYNAMICS)  max=  4.59441681083479E-07
DEBUG_STATS_RL:         GsNm1 (THERMODYNAMICS) mean= -5.71589186542282E-10
DEBUG_STATS_RL:         GsNm1 (THERMODYNAMICS) S.D.=  1.70747367056463E-08
DEBUG_STATS_RL:                EtaN (DYNAMICS)  min= -1.68887237095273E+00
DEBUG_STATS_RL:                EtaN (DYNAMICS)  max=  8.94594535650313E-01
DEBUG_STATS_RL:                EtaN (DYNAMICS) mean= -1.65567254695851E-01
DEBUG_STATS_RL:                EtaN (DYNAMICS) S.D.=  6.41206178871407E-01
DEBUG_STATS_RL:                Uvel (DYNAMICS)  min= -1.66502897994409E-01
DEBUG_STATS_RL:                Uvel (DYNAMICS)  max=  8.37254125818884E-02
DEBUG_STATS_RL:                Uvel (DYNAMICS) mean=  1.70609574277620E-03
DEBUG_STATS_RL:                Uvel (DYNAMICS) S.D.=  1.68238128906869E-02
DEBUG_STATS_RL:                Vvel (DYNAMICS)  min= -1.24845966008396E-01
DEBUG_STATS_RL:                Vvel (DYNAMICS)  max=  1.10882061067347E-01
DEBUG_STATS_RL:                Vvel (DYNAMICS) mean=  3.35241504601110E-04
DEBUG_STATS_RL:                Vvel (DYNAMICS) S.D.=  1.28211088283454E-02
DEBUG_STATS_RL:                Wvel (DYNAMICS)  min= -9.33423095123913E-05
DEBUG_STATS_RL:                Wvel (DYNAMICS)  max=  1.02543455683702E-04
DEBUG_STATS_RL:                Wvel (DYNAMICS) mean= -9.03124755193046E-08
DEBUG_STATS_RL:                Wvel (DYNAMICS) S.D.=  1.15816288969663E-05
DEBUG_STATS_RL:               Theta (DYNAMICS)  min= -1.97738041147966E+00
DEBUG_STATS_RL:               Theta (DYNAMICS)  max=  2.98044578585431E+01
DEBUG_STATS_RL:               Theta (DYNAMICS) mean=  3.20508217099622E+00
DEBUG_STATS_RL:               Theta (DYNAMICS) S.D.=  5.85351834652703E+00
DEBUG_STATS_RL:                Salt (DYNAMICS)  min= -6.85624969102121E-04
DEBUG_STATS_RL:                Salt (DYNAMICS)  max=  3.74536892249416E+01
DEBUG_STATS_RL:                Salt (DYNAMICS) mean=  1.88441857944759E+01
DEBUG_STATS_RL:                Salt (DYNAMICS) S.D.=  1.73003820609873E+01
DEBUG_STATS_RL:                  Gu (DYNAMICS)  min= -1.67448366671747E-01
DEBUG_STATS_RL:                  Gu (DYNAMICS)  max=  8.24796446555730E-02
DEBUG_STATS_RL:                  Gu (DYNAMICS) mean=  1.64028462105310E-03
DEBUG_STATS_RL:                  Gu (DYNAMICS) S.D.=  1.74386288322195E-02
DEBUG_STATS_RL:                  Gv (DYNAMICS)  min= -1.27176010487660E-01
DEBUG_STATS_RL:                  Gv (DYNAMICS)  max=  1.03233601480030E-01
DEBUG_STATS_RL:                  Gv (DYNAMICS) mean=  2.32850026550255E-03
DEBUG_STATS_RL:                  Gv (DYNAMICS) S.D.=  1.36167689801714E-02
DEBUG_STATS_RL:               GuNm1 (DYNAMICS)  min= -7.80917813056580E-06
DEBUG_STATS_RL:               GuNm1 (DYNAMICS)  max=  7.63067438850680E-06
DEBUG_STATS_RL:               GuNm1 (DYNAMICS) mean= -1.85892936420551E-08
DEBUG_STATS_RL:               GuNm1 (DYNAMICS) S.D.=  1.19556817612924E-06
DEBUG_STATS_RL:               GvNm1 (DYNAMICS)  min= -1.07843798333587E-05
DEBUG_STATS_RL:               GvNm1 (DYNAMICS)  max=  1.65305449196382E-05
DEBUG_STATS_RL:               GvNm1 (DYNAMICS) mean=  7.59842804476274E-07
DEBUG_STATS_RL:               GvNm1 (DYNAMICS) S.D.=  2.64527101550361E-06
DEBUG_STATS_RL:               GtNm1 (DYNAMICS)  min= -2.16494648082941E-06
DEBUG_STATS_RL:               GtNm1 (DYNAMICS)  max=  2.41707510911812E-06
DEBUG_STATS_RL:               GtNm1 (DYNAMICS) mean=  4.48078491221652E-09
DEBUG_STATS_RL:               GtNm1 (DYNAMICS) S.D.=  1.83894554650585E-07
DEBUG_STATS_RL:               GsNm1 (DYNAMICS)  min= -4.27156789737751E-07
DEBUG_STATS_RL:               GsNm1 (DYNAMICS)  max=  4.59441681083479E-07
DEBUG_STATS_RL:               GsNm1 (DYNAMICS) mean= -5.71589186542282E-10
DEBUG_STATS_RL:               GsNm1 (DYNAMICS) S.D.=  1.70747367056463E-08
DEBUG_STATS_RL:    cg2d_b (SOLVE_FOR_PRESSURE)  min= -2.06395418645306E+04
DEBUG_STATS_RL:    cg2d_b (SOLVE_FOR_PRESSURE)  max=  1.89019791398749E+04
DEBUG_STATS_RL:    cg2d_b (SOLVE_FOR_PRESSURE) mean=  2.28416149694049E+00
DEBUG_STATS_RL:    cg2d_b (SOLVE_FOR_PRESSURE) S.D.=  3.78525971256527E+03
 cg2d: Sum(rhs),rhsMax =   2.56199187953157E-01  1.35566037050244E+00
(PID.TID 0000.0001)  cg2d: iter=     1 ; resid.=  1.03602333611490E-01
(PID.TID 0000.0001)  cg2d: iter=     2 ; resid.=  5.53583111868691E-02
(PID.TID 0000.0001)  cg2d: iter=     3 ; resid.=  4.06229105264527E-02
(PID.TID 0000.0001)  cg2d: iter=     4 ; resid.=  3.58754862568080E-02
(PID.TID 0000.0001)  cg2d: iter=     5 ; resid.=  3.43234131137531E-02
(PID.TID 0000.0001)  cg2d: iter=     6 ; resid.=  2.94755509510640E-02
(PID.TID 0000.0001)  cg2d: iter=     7 ; resid.=  2.60932244298708E-02
(PID.TID 0000.0001)  cg2d: iter=     8 ; resid.=  2.13723211825117E-02
(PID.TID 0000.0001)  cg2d: iter=     9 ; resid.=  1.72492972782159E-02
(PID.TID 0000.0001)  cg2d: iter=    10 ; resid.=  1.42084872599719E-02
(PID.TID 0000.0001)  cg2d: iter=    11 ; resid.=  1.18507014966038E-02
(PID.TID 0000.0001)  cg2d: iter=    12 ; resid.=  1.03185669822736E-02
(PID.TID 0000.0001)  cg2d: iter=    13 ; resid.=  9.51622509514890E-03
(PID.TID 0000.0001)  cg2d: iter=    14 ; resid.=  7.93879099355923E-03
(PID.TID 0000.0001)  cg2d: iter=    15 ; resid.=  6.52632282807340E-03
(PID.TID 0000.0001)  cg2d: iter=    16 ; resid.=  5.32484291374785E-03
(PID.TID 0000.0001)  cg2d: iter=    17 ; resid.=  4.82858357782224E-03
(PID.TID 0000.0001)  cg2d: iter=    18 ; resid.=  4.19638950544662E-03
(PID.TID 0000.0001)  cg2d: iter=    19 ; resid.=  3.39444343764451E-03
(PID.TID 0000.0001)  cg2d: iter=    20 ; resid.=  2.88350162219392E-03
(PID.TID 0000.0001)  cg2d: iter=    21 ; resid.=  2.30660326163207E-03
(PID.TID 0000.0001)  cg2d: iter=    22 ; resid.=  1.80268419298783E-03
(PID.TID 0000.0001)  cg2d: iter=    23 ; resid.=  1.44337020695765E-03
(PID.TID 0000.0001)  cg2d: iter=    24 ; resid.=  1.15265701456864E-03
(PID.TID 0000.0001)  cg2d: iter=    25 ; resid.=  9.18338559341252E-04
(PID.TID 0000.0001)  cg2d: iter=    26 ; resid.=  7.83480243208269E-04
(PID.TID 0000.0001)  cg2d: iter=    27 ; resid.=  7.16437966932279E-04
(PID.TID 0000.0001)  cg2d: iter=    28 ; resid.=  6.72623902443480E-04
(PID.TID 0000.0001)  cg2d: iter=    29 ; resid.=  6.09153846953572E-04
(PID.TID 0000.0001)  cg2d: iter=    30 ; resid.=  5.05370772727759E-04
(PID.TID 0000.0001)  cg2d: iter=    31 ; resid.=  4.25081876134956E-04
(PID.TID 0000.0001)  cg2d: iter=    32 ; resid.=  3.30012315614852E-04
(PID.TID 0000.0001)  cg2d: iter=    33 ; resid.=  2.54334608154837E-04
(PID.TID 0000.0001)  cg2d: iter=    34 ; resid.=  1.90122389813403E-04
(PID.TID 0000.0001)  cg2d: iter=    35 ; resid.=  1.49465020034868E-04
(PID.TID 0000.0001)  cg2d: iter=    36 ; resid.=  1.27287119619862E-04
(PID.TID 0000.0001)  cg2d: iter=    37 ; resid.=  1.09051545556465E-04
(PID.TID 0000.0001)  cg2d: iter=    38 ; resid.=  9.69388663668989E-05
(PID.TID 0000.0001)  cg2d: iter=    39 ; resid.=  8.07587281856516E-05
(PID.TID 0000.0001)  cg2d: iter=    40 ; resid.=  6.90706356928225E-05
(PID.TID 0000.0001)  cg2d: iter=    41 ; resid.=  5.88349882212513E-05
(PID.TID 0000.0001)  cg2d: iter=    42 ; resid.=  4.78459648184183E-05
(PID.TID 0000.0001)  cg2d: iter=    43 ; resid.=  3.99921077429180E-05
(PID.TID 0000.0001)  cg2d: iter=    44 ; resid.=  3.39077871360604E-05
(PID.TID 0000.0001)  cg2d: iter=    45 ; resid.=  3.05672785733040E-05
(PID.TID 0000.0001)  cg2d: iter=    46 ; resid.=  2.71123971474589E-05
(PID.TID 0000.0001)  cg2d: iter=    47 ; resid.=  2.34311816566576E-05
(PID.TID 0000.0001)  cg2d: iter=    48 ; resid.=  1.89594895304017E-05
(PID.TID 0000.0001)  cg2d: iter=    49 ; resid.=  1.49089640863534E-05
(PID.TID 0000.0001)  cg2d: iter=    50 ; resid.=  1.20557221386606E-05
(PID.TID 0000.0001)  cg2d: iter=    51 ; resid.=  9.92967117202550E-06
(PID.TID 0000.0001)  cg2d: iter=    52 ; resid.=  8.31422008151768E-06
(PID.TID 0000.0001)  cg2d: iter=    53 ; resid.=  7.02770966360635E-06
(PID.TID 0000.0001)  cg2d: iter=    54 ; resid.=  5.67881131606142E-06
(PID.TID 0000.0001)  cg2d: iter=    55 ; resid.=  4.49370332798098E-06
(PID.TID 0000.0001)  cg2d: iter=    56 ; resid.=  3.62192016090629E-06
(PID.TID 0000.0001)  cg2d: iter=    57 ; resid.=  2.72489185891097E-06
(PID.TID 0000.0001)  cg2d: iter=    58 ; resid.=  2.00294653604910E-06
(PID.TID 0000.0001)  cg2d: iter=    59 ; resid.=  1.48314151837142E-06
(PID.TID 0000.0001)  cg2d: iter=    60 ; resid.=  1.14686555173999E-06
(PID.TID 0000.0001)  cg2d: iter=    61 ; resid.=  1.00915757866690E-06
(PID.TID 0000.0001)  cg2d: iter=    62 ; resid.=  9.54227053870501E-07
(PID.TID 0000.0001)  cg2d: iter=    63 ; resid.=  7.89179797173144E-07
(PID.TID 0000.0001)  cg2d: iter=    64 ; resid.=  6.07015775812562E-07
(PID.TID 0000.0001)  cg2d: iter=    65 ; resid.=  4.88160217115424E-07
(PID.TID 0000.0001)  cg2d: iter=    66 ; resid.=  4.20197598267896E-07
(PID.TID 0000.0001)  cg2d: iter=    67 ; resid.=  3.34353315887901E-07
(PID.TID 0000.0001)  cg2d: iter=    68 ; resid.=  2.75567265248247E-07
(PID.TID 0000.0001)  cg2d: iter=    69 ; resid.=  2.22660864827542E-07
(PID.TID 0000.0001)  cg2d: iter=    70 ; resid.=  1.88043364884621E-07
(PID.TID 0000.0001)  cg2d: iter=    71 ; resid.=  1.75195463899134E-07
(PID.TID 0000.0001)  cg2d: iter=    72 ; resid.=  1.55753731295080E-07
(PID.TID 0000.0001)  cg2d: iter=    73 ; resid.=  1.25652961772174E-07
(PID.TID 0000.0001)  cg2d: iter=    74 ; resid.=  9.80404785319877E-08
(PID.TID 0000.0001)  cg2d: iter=    75 ; resid.=  7.58921535338123E-08
(PID.TID 0000.0001)  cg2d: iter=    76 ; resid.=  6.18145167377081E-08
(PID.TID 0000.0001)  cg2d: iter=    77 ; resid.=  5.15055891739139E-08
(PID.TID 0000.0001)  cg2d: iter=    78 ; resid.=  4.19653813927289E-08
(PID.TID 0000.0001)  cg2d: iter=    79 ; resid.=  3.52904830133147E-08
(PID.TID 0000.0001)  cg2d: iter=    80 ; resid.=  2.87987651134038E-08
(PID.TID 0000.0001)  cg2d: iter=    81 ; resid.=  2.26638288077364E-08
(PID.TID 0000.0001)  cg2d: iter=    82 ; resid.=  1.78208369139247E-08
(PID.TID 0000.0001)  cg2d: iter=    83 ; resid.=  1.38503151176256E-08
(PID.TID 0000.0001)  cg2d: iter=    84 ; resid.=  1.09489939889061E-08
(PID.TID 0000.0001)  cg2d: iter=    85 ; resid.=  8.83284272096074E-09
(PID.TID 0000.0001)  cg2d: iter=    86 ; resid.=  7.73945065765674E-09
(PID.TID 0000.0001)  cg2d: iter=    87 ; resid.=  6.79353284767402E-09
(PID.TID 0000.0001)  cg2d: iter=    88 ; resid.=  5.36748086393319E-09
(PID.TID 0000.0001)  cg2d: iter=    89 ; resid.=  4.37619805386847E-09
(PID.TID 0000.0001)  cg2d: iter=    90 ; resid.=  3.57334742497004E-09
(PID.TID 0000.0001)  cg2d: iter=    91 ; resid.=  2.82482503322466E-09
(PID.TID 0000.0001)  cg2d: iter=    92 ; resid.=  2.19523966982411E-09
(PID.TID 0000.0001)  cg2d: iter=    93 ; resid.=  1.66001206815876E-09
(PID.TID 0000.0001)  cg2d: iter=    94 ; resid.=  1.20447800256679E-09
(PID.TID 0000.0001)  cg2d: iter=    95 ; resid.=  9.20418395341013E-10
(PID.TID 0000.0001)  cg2d: iter=    96 ; resid.=  7.23232352995333E-10
(PID.TID 0000.0001)  cg2d: iter=    97 ; resid.=  5.80139220200013E-10
(PID.TID 0000.0001)  cg2d: iter=    98 ; resid.=  4.38105738368796E-10
(PID.TID 0000.0001)  cg2d: iter=    99 ; resid.=  3.31787464692456E-10
(PID.TID 0000.0001)  cg2d: iter=   100 ; resid.=  2.83645198725506E-10
(PID.TID 0000.0001)  cg2d: iter=   101 ; resid.=  2.65960654199926E-10
(PID.TID 0000.0001)  cg2d: iter=   102 ; resid.=  2.41814281335737E-10
(PID.TID 0000.0001)  cg2d: iter=   103 ; resid.=  1.93391687427687E-10
(PID.TID 0000.0001)  cg2d: iter=   104 ; resid.=  1.61438040071155E-10
(PID.TID 0000.0001)  cg2d: iter=   105 ; resid.=  1.28503747016263E-10
(PID.TID 0000.0001)  cg2d: iter=   106 ; resid.=  9.85283187283404E-11
(PID.TID 0000.0001)  cg2d: iter=   107 ; resid.=  7.48505167384310E-11
(PID.TID 0000.0001)  cg2d: iter=   108 ; resid.=  5.48507034686214E-11
(PID.TID 0000.0001)  cg2d: iter=   109 ; resid.=  4.23033735265794E-11
(PID.TID 0000.0001)  cg2d: iter=   110 ; resid.=  3.27159313725685E-11
(PID.TID 0000.0001)  cg2d: iter=   111 ; resid.=  2.48109720714196E-11
(PID.TID 0000.0001)  cg2d: iter=   112 ; resid.=  2.07326900228157E-11
(PID.TID 0000.0001)  cg2d: iter=   113 ; resid.=  1.66993476988888E-11
(PID.TID 0000.0001)  cg2d: iter=   114 ; resid.=  1.22805341651178E-11
(PID.TID 0000.0001)  cg2d: iter=   115 ; resid.=  9.36957356177497E-12
(PID.TID 0000.0001)  cg2d: iter=   116 ; resid.=  7.07597890263070E-12
(PID.TID 0000.0001)  cg2d: iter=   117 ; resid.=  5.47553691197957E-12
(PID.TID 0000.0001)  cg2d: iter=   118 ; resid.=  4.07174611746724E-12
(PID.TID 0000.0001)  cg2d: iter=   119 ; resid.=  3.28116026707931E-12
(PID.TID 0000.0001)  cg2d: iter=   120 ; resid.=  2.66060064447973E-12
(PID.TID 0000.0001)  cg2d: iter=   121 ; resid.=  2.11431624926482E-12
(PID.TID 0000.0001)  cg2d: iter=   122 ; resid.=  1.63579892430952E-12
(PID.TID 0000.0001)  cg2d: iter=   123 ; resid.=  1.17919455315425E-12
(PID.TID 0000.0001)  cg2d: iter=   124 ; resid.=  8.28269893455585E-13
(PID.TID 0000.0001)  cg2d: iter=   125 ; resid.=  6.08043860867096E-13
(PID.TID 0000.0001)  cg2d: iter=   126 ; resid.=  4.49332570848350E-13
(PID.TID 0000.0001)  cg2d: iter=   127 ; resid.=  3.11145001234878E-13
(PID.TID 0000.0001)  cg2d: iter=   128 ; resid.=  2.02194650127374E-13
(PID.TID 0000.0001)  cg2d: iter=   129 ; resid.=  1.28407162497066E-13
(PID.TID 0000.0001)  cg2d: iter=   130 ; resid.=  9.09684037264618E-14
DEBUG_STATS_RL:    cg2d_x (SOLVE_FOR_PRESSURE)  min= -1.64977241211102E+01
DEBUG_STATS_RL:    cg2d_x (SOLVE_FOR_PRESSURE)  max=  8.85770610807712E+00
DEBUG_STATS_RL:    cg2d_x (SOLVE_FOR_PRESSURE) mean= -1.63135578695412E+00
DEBUG_STATS_RL:    cg2d_x (SOLVE_FOR_PRESSURE) S.D.=  6.31004271151215E+00
(PID.TID 0000.0001)      cg2d_init_res =   4.14780161294232E-01
(PID.TID 0000.0001)      cg2d_iters(min,last) =      -1     130
(PID.TID 0000.0001)      cg2d_last_res =   9.09684037264618E-14
(PID.TID 0000.0001) // =======================================================
(PID.TID 0000.0001) // Begin MONITOR dynamic field statistics
(PID.TID 0000.0001) // =======================================================
(PID.TID 0000.0001) %MON time_tsnumber                =                    32
(PID.TID 0000.0001) %MON time_secondsf                =   2.7648000000000E+06
(PID.TID 0000.0001) %MON dynstat_eta_max              =   9.0292620877446E-01
(PID.TID 0000.0001) %MON dynstat_eta_min              =  -1.6817251907350E+00
(PID.TID 0000.0001) %MON dynstat_eta_mean             =  -2.3832392953822E-03
(PID.TID 0000.0001) %MON dynstat_eta_sd               =   5.6140738021918E-01
(PID.TID 0000.0001) %MON dynstat_eta_del2             =   2.1640203101383E-03
(PID.TID 0000.0001) %MON dynstat_uvel_max             =   8.6616711788251E-02
(PID.TID 0000.0001) %MON dynstat_uvel_min             =  -1.6563999059820E-01
(PID.TID 0000.0001) %MON dynstat_uvel_mean            =   1.3708566719063E-03
(PID.TID 0000.0001) %MON dynstat_uvel_sd              =   1.0622882274408E-02
(PID.TID 0000.0001) %MON dynstat_uvel_del2            =   7.2933779730910E-05
(PID.TID 0000.0001) %MON dynstat_vvel_max             =   1.0945034234014E-01
(PID.TID 0000.0001) %MON dynstat_vvel_min             =  -1.2017198378556E-01
(PID.TID 0000.0001) %MON dynstat_vvel_mean            =   1.6582208942626E-05
(PID.TID 0000.0001) %MON dynstat_vvel_sd              =   8.0749282744415E-03
(PID.TID 0000.0001) %MON dynstat_vvel_del2            =   7.2503479962810E-05
(PID.TID 0000.0001) %MON dynstat_wvel_max             =   9.9570133761879E-05
(PID.TID 0000.0001) %MON dynstat_wvel_min             =  -1.0367499212911E-04
(PID.TID 0000.0001) %MON dynstat_wvel_mean            =  -5.3129578561205E-13
(PID.TID 0000.0001) %MON dynstat_wvel_sd              =   1.3072210704167E-05
(PID.TID 0000.0001) %MON dynstat_wvel_del2            =   1.6035106770436E-07
(PID.TID 0000.0001) %MON dynstat_theta_max            =   2.9804457858543E+01
(PID.TID 0000.0001) %MON dynstat_theta_min            =  -1.9773804114797E+00
(PID.TID 0000.0001) %MON dynstat_theta_mean           =   3.6198515680521E+00
(PID.TID 0000.0001) %MON dynstat_theta_sd             =   4.4155646663660E+00
(PID.TID 0000.0001) %MON dynstat_theta_del2           =   4.7643578508041E-03
(PID.TID 0000.0001) %MON dynstat_salt_max             =   3.7453689224942E+01
(PID.TID 0000.0001) %MON dynstat_salt_min             =   2.9804631715432E+01
(PID.TID 0000.0001) %MON dynstat_salt_mean            =   3.4717286238337E+01
(PID.TID 0000.0001) %MON dynstat_salt_sd              =   2.9619982790438E-01
(PID.TID 0000.0001) %MON dynstat_salt_del2            =   9.8827014624671E-04
(PID.TID 0000.0001) %MON dynstat_sst_max              =   2.9804457858543E+01
(PID.TID 0000.0001) %MON dynstat_sst_min              =  -1.9773804114797E+00
(PID.TID 0000.0001) %MON dynstat_sst_mean             =   1.8653774024688E+01
(PID.TID 0000.0001) %MON dynstat_sst_sd               =   9.0941729497071E+00
(PID.TID 0000.0001) %MON dynstat_sst_del2             =   2.5378852047984E-02
(PID.TID 0000.0001) %MON dynstat_sss_max              =   3.7423735563008E+01
(PID.TID 0000.0001) %MON dynstat_sss_min              =   2.9804631715432E+01
(PID.TID 0000.0001) %MON dynstat_sss_mean             =   3.4844140983111E+01
(PID.TID 0000.0001) %MON dynstat_sss_sd               =   9.7503862756887E-01
(PID.TID 0000.0001) %MON dynstat_sss_del2             =   7.8075583529679E-03
(PID.TID 0000.0001) %MON forcing_qnet_max             =   3.8850822957357E+02
(PID.TID 0000.0001) %MON forcing_qnet_min             =  -1.7618723856608E+02
(PID.TID 0000.0001) %MON forcing_qnet_mean            =  -1.5153979322590E+01
(PID.TID 0000.0001) %MON forcing_qnet_sd              =   9.3101706459460E+01
(PID.TID 0000.0001) %MON forcing_qnet_del2            =   9.7073809157123E-01
(PID.TID 0000.0001) %MON forcing_qsw_max              =   0.0000000000000E+00
(PID.TID 0000.0001) %MON forcing_qsw_min              =   0.0000000000000E+00
(PID.TID 0000.0001) %MON forcing_qsw_mean             =   0.0000000000000E+00
(PID.TID 0000.0001) %MON forcing_qsw_sd               =   0.0000000000000E+00
(PID.TID 0000.0001) %MON forcing_qsw_del2             =   0.0000000000000E+00
(PID.TID 0000.0001) %MON forcing_empmr_max            =   7.7148803256932E-05
(PID.TID 0000.0001) %MON forcing_empmr_min            =  -7.7430264392812E-05
(PID.TID 0000.0001) %MON forcing_empmr_mean           =   9.3385541826996E-07
(PID.TID 0000.0001) %MON forcing_empmr_sd             =   2.8159654457023E-05
(PID.TID 0000.0001) %MON forcing_empmr_del2           =   3.5467644143970E-07
(PID.TID 0000.0001) %MON forcing_fu_max               =   2.8521531224251E-01
(PID.TID 0000.0001) %MON forcing_fu_min               =  -1.9249341785908E-01
(PID.TID 0000.0001) %MON forcing_fu_mean              =   1.6870538600070E-02
(PID.TID 0000.0001) %MON forcing_fu_sd                =   9.0164710524852E-02
(PID.TID 0000.0001) %MON forcing_fu_del2              =   6.6983433008820E-04
(PID.TID 0000.0001) %MON forcing_fv_max               =   1.8811390101910E-01
(PID.TID 0000.0001) %MON forcing_fv_min               =  -1.6227610409260E-01
(PID.TID 0000.0001) %MON forcing_fv_mean              =  -6.3030722469479E-03
(PID.TID 0000.0001) %MON forcing_fv_sd                =   4.4812198805099E-02
(PID.TID 0000.0001) %MON forcing_fv_del2              =   4.6773713492803E-04
(PID.TID 0000.0001) %MON trAdv_CFL_u_max              =   3.3345929596509E-02
(PID.TID 0000.0001) %MON trAdv_CFL_v_max              =   2.4816808797736E-02
(PID.TID 0000.0001) %MON trAdv_CFL_w_max              =   4.3623978984833E-02
(PID.TID 0000.0001) %MON advcfl_uvel_max              =   3.3166376760907E-02
(PID.TID 0000.0001) %MON advcfl_vvel_max              =   2.3347489122628E-02
(PID.TID 0000.0001) %MON advcfl_wvel_max              =   3.5023852970252E-02
(PID.TID 0000.0001) %MON advcfl_W_hf_max              =   4.2528964321020E-02
(PID.TID 0000.0001) %MON pe_b_mean                    =   4.0331582383213E-04
(PID.TID 0000.0001) %MON ke_max                       =   1.3772093440501E-02
(PID.TID 0000.0001) %MON ke_mean                      =   8.1394514235706E-05
(PID.TID 0000.0001) %MON ke_vol                       =   1.3226782436723E+18
(PID.TID 0000.0001) %MON vort_r_min                   =  -3.3017162800730E-07
(PID.TID 0000.0001) %MON vort_r_max                   =   4.0524734245935E-07
(PID.TID 0000.0001) %MON vort_a_mean                  =  -2.5274807060080E-05
(PID.TID 0000.0001) %MON vort_a_sd                    =   7.3604554125190E-05
(PID.TID 0000.0001) %MON vort_p_mean                  =  -3.1845655374393E-05
(PID.TID 0000.0001) %MON vort_p_sd                    =   1.3162534385470E-04
(PID.TID 0000.0001) %MON surfExpan_theta_mean         =   2.1202896325969E-07
(PID.TID 0000.0001) %MON surfExpan_salt_mean          =   1.4469257201053E-08
(PID.TID 0000.0001) // =======================================================
(PID.TID 0000.0001) // End MONITOR dynamic field statistics
(PID.TID 0000.0001) // =======================================================
 EXTERNAL_FIELDS_LOAD,        32 : iP,iLd,i0,i1=    1    2    1    2 ; Wght=  0.4333333333  0.5666666667
 EXTERNAL_FIELDS_LOAD: (fu0,1),fu,fv= -3.5633E-02 -1.4435E-02 -2.3621E-02 -3.4805E-02
 EXTERNAL_FIELDS_LOAD: SST,SSS,Q,E-P=  1.1393E-01  3.4548E+01  2.5144E+02  9.7896E-06
DEBUG_STATS_RL:          Uvel (THERMODYNAMICS)  min= -1.65639990598204E-01
DEBUG_STATS_RL:          Uvel (THERMODYNAMICS)  max=  8.66167117882506E-02
DEBUG_STATS_RL:          Uvel (THERMODYNAMICS) mean=  1.75962564951256E-03
DEBUG_STATS_RL:          Uvel (THERMODYNAMICS) S.D.=  1.71356118923084E-02
DEBUG_STATS_RL:          Vvel (THERMODYNAMICS)  min= -1.20171983785556E-01
DEBUG_STATS_RL:          Vvel (THERMODYNAMICS)  max=  1.09450342340142E-01
DEBUG_STATS_RL:          Vvel (THERMODYNAMICS) mean=  1.13319249678454E-04
DEBUG_STATS_RL:          Vvel (THERMODYNAMICS) S.D.=  1.26925648191920E-02
DEBUG_STATS_RL:          Wvel (THERMODYNAMICS)  min= -1.03674992129109E-04
DEBUG_STATS_RL:          Wvel (THERMODYNAMICS)  max=  9.95701337618791E-05
DEBUG_STATS_RL:          Wvel (THERMODYNAMICS) mean= -1.70754770762654E-07
DEBUG_STATS_RL:          Wvel (THERMODYNAMICS) S.D.=  1.18252059964134E-05
DEBUG_STATS_RL:         Theta (THERMODYNAMICS)  min= -1.97634145256310E+00
DEBUG_STATS_RL:         Theta (THERMODYNAMICS)  max=  2.98169973964641E+01
DEBUG_STATS_RL:         Theta (THERMODYNAMICS) mean=  3.20535302306637E+00
DEBUG_STATS_RL:         Theta (THERMODYNAMICS) S.D.=  5.85372141235369E+00
DEBUG_STATS_RL:          Salt (THERMODYNAMICS)  min= -6.85624969102121E-04
DEBUG_STATS_RL:          Salt (THERMODYNAMICS)  max=  3.74539843013150E+01
DEBUG_STATS_RL:          Salt (THERMODYNAMICS) mean=  1.88441642157558E+01
DEBUG_STATS_RL:          Salt (THERMODYNAMICS) S.D.=  1.73003627472977E+01
DEBUG_STATS_RL:         GtNm1 (THERMODYNAMICS)  min= -2.21292101074953E-06
DEBUG_STATS_RL:         GtNm1 (THERMODYNAMICS)  max=  2.34539193353893E-06
DEBUG_STATS_RL:         GtNm1 (THERMODYNAMICS) mean=  5.95695432190315E-09
DEBUG_STATS_RL:         GtNm1 (THERMODYNAMICS) S.D.=  1.81591164756497E-07
DEBUG_STATS_RL:         GsNm1 (THERMODYNAMICS)  min= -4.28408734742844E-07
DEBUG_STATS_RL:         GsNm1 (THERMODYNAMICS)  max=  4.89316747709508E-07
DEBUG_STATS_RL:         GsNm1 (THERMODYNAMICS) mean= -5.14831060975006E-10
DEBUG_STATS_RL:         GsNm1 (THERMODYNAMICS) S.D.=  1.69573073603897E-08
DEBUG_STATS_RL:                EtaN (DYNAMICS)  min= -1.68172519073501E+00
DEBUG_STATS_RL:                EtaN (DYNAMICS)  max=  9.02926208774457E-01
DEBUG_STATS_RL:                EtaN (DYNAMICS) mean= -1.66295187253222E-01
DEBUG_STATS_RL:                EtaN (DYNAMICS) S.D.=  6.43225556729068E-01
DEBUG_STATS_RL:                Uvel (DYNAMICS)  min= -1.65639990598204E-01
DEBUG_STATS_RL:                Uvel (DYNAMICS)  max=  8.66167117882506E-02
DEBUG_STATS_RL:                Uvel (DYNAMICS) mean=  1.75962564951256E-03
DEBUG_STATS_RL:                Uvel (DYNAMICS) S.D.=  1.71356118923084E-02
DEBUG_STATS_RL:                Vvel (DYNAMICS)  min= -1.20171983785556E-01
DEBUG_STATS_RL:                Vvel (DYNAMICS)  max=  1.09450342340142E-01
DEBUG_STATS_RL:                Vvel (DYNAMICS) mean=  1.13319249678454E-04
DEBUG_STATS_RL:                Vvel (DYNAMICS) S.D.=  1.26925648191920E-02
DEBUG_STATS_RL:                Wvel (DYNAMICS)  min= -1.03674992129109E-04
DEBUG_STATS_RL:                Wvel (DYNAMICS)  max=  9.95701337618791E-05
DEBUG_STATS_RL:                Wvel (DYNAMICS) mean= -1.70754770762654E-07
DEBUG_STATS_RL:                Wvel (DYNAMICS) S.D.=  1.18252059964134E-05
DEBUG_STATS_RL:               Theta (DYNAMICS)  min= -1.97634145256310E+00
DEBUG_STATS_RL:               Theta (DYNAMICS)  max=  2.98169973964641E+01
DEBUG_STATS_RL:               Theta (DYNAMICS) mean=  3.20535302306637E+00
DEBUG_STATS_RL:               Theta (DYNAMICS) S.D.=  5.85372141235369E+00
DEBUG_STATS_RL:                Salt (DYNAMICS)  min= -6.85624969102121E-04
DEBUG_STATS_RL:                Salt (DYNAMICS)  max=  3.74539843013150E+01
DEBUG_STATS_RL:                Salt (DYNAMICS) mean=  1.88441642157558E+01
DEBUG_STATS_RL:                Salt (DYNAMICS) S.D.=  1.73003627472977E+01
DEBUG_STATS_RL:                  Gu (DYNAMICS)  min= -1.66055201559278E-01
DEBUG_STATS_RL:                  Gu (DYNAMICS)  max=  8.99474640204307E-02
DEBUG_STATS_RL:                  Gu (DYNAMICS) mean=  1.74640712402753E-03
DEBUG_STATS_RL:                  Gu (DYNAMICS) S.D.=  1.78761948198618E-02
DEBUG_STATS_RL:                  Gv (DYNAMICS)  min= -1.21578949310539E-01
DEBUG_STATS_RL:                  Gv (DYNAMICS)  max=  1.01626770016653E-01
DEBUG_STATS_RL:                  Gv (DYNAMICS) mean=  2.15010371364548E-03
DEBUG_STATS_RL:                  Gv (DYNAMICS) S.D.=  1.33833010758384E-02
DEBUG_STATS_RL:               GuNm1 (DYNAMICS)  min= -7.82647077522503E-06
DEBUG_STATS_RL:               GuNm1 (DYNAMICS)  max=  7.69594537242058E-06
DEBUG_STATS_RL:               GuNm1 (DYNAMICS) mean= -1.93299101666831E-08
DEBUG_STATS_RL:               GuNm1 (DYNAMICS) S.D.=  1.19269368159875E-06
DEBUG_STATS_RL:               GvNm1 (DYNAMICS)  min= -1.07465248361872E-05
DEBUG_STATS_RL:               GvNm1 (DYNAMICS)  max=  1.64920150568456E-05
DEBUG_STATS_RL:               GvNm1 (DYNAMICS) mean=  7.58646418680139E-07
DEBUG_STATS_RL:               GvNm1 (DYNAMICS) S.D.=  2.64144784156265E-06
DEBUG_STATS_RL:               GtNm1 (DYNAMICS)  min= -2.21292101074953E-06
DEBUG_STATS_RL:               GtNm1 (DYNAMICS)  max=  2.34539193353893E-06
DEBUG_STATS_RL:               GtNm1 (DYNAMICS) mean=  5.95695432190315E-09
DEBUG_STATS_RL:               GtNm1 (DYNAMICS) S.D.=  1.81591164756497E-07
DEBUG_STATS_RL:               GsNm1 (DYNAMICS)  min= -4.28408734742844E-07
DEBUG_STATS_RL:               GsNm1 (DYNAMICS)  max=  4.89316747709508E-07
DEBUG_STATS_RL:               GsNm1 (DYNAMICS) mean= -5.14831060975006E-10
DEBUG_STATS_RL:               GsNm1 (DYNAMICS) S.D.=  1.69573073603897E-08
DEBUG_STATS_RL:    cg2d_b (SOLVE_FOR_PRESSURE)  min= -2.02754005967078E+04
DEBUG_STATS_RL:    cg2d_b (SOLVE_FOR_PRESSURE)  max=  1.89284234097880E+04
DEBUG_STATS_RL:    cg2d_b (SOLVE_FOR_PRESSURE) mean=  2.35893184938406E+00
DEBUG_STATS_RL:    cg2d_b (SOLVE_FOR_PRESSURE) S.D.=  3.77262301468018E+03
 cg2d: Sum(rhs),rhsMax =   2.69337575120950E-01  1.33174259707064E+00
(PID.TID 0000.0001)  cg2d: iter=     1 ; resid.=  1.01491761770544E-01
(PID.TID 0000.0001)  cg2d: iter=     2 ; resid.=  5.43166576321400E-02
(PID.TID 0000.0001)  cg2d: iter=     3 ; resid.=  3.96404914893314E-02
(PID.TID 0000.0001)  cg2d: iter=     4 ; resid.=  3.55993154076273E-02
(PID.TID 0000.0001)  cg2d: iter=     5 ; resid.=  3.42163838700161E-02
(PID.TID 0000.0001)  cg2d: iter=     6 ; resid.=  2.94429918545007E-02
(PID.TID 0000.0001)  cg2d: iter=     7 ; resid.=  2.54601942973314E-02
(PID.TID 0000.0001)  cg2d: iter=     8 ; resid.=  2.07673038336824E-02
(PID.TID 0000.0001)  cg2d: iter=     9 ; resid.=  1.67390340312741E-02
(PID.TID 0000.0001)  cg2d: iter=    10 ; resid.=  1.37712581115273E-02
(PID.TID 0000.0001)  cg2d: iter=    11 ; resid.=  1.16019265118467E-02
(PID.TID 0000.0001)  cg2d: iter=    12 ; resid.=  1.01445093148312E-02
(PID.TID 0000.0001)  cg2d: iter=    13 ; resid.=  9.29061550978875E-03
(PID.TID 0000.0001)  cg2d: iter=    14 ; resid.=  7.80432892541511E-03
(PID.TID 0000.0001)  cg2d: iter=    15 ; resid.=  6.35943334960707E-03
(PID.TID 0000.0001)  cg2d: iter=    16 ; resid.=  5.17986368202739E-03
(PID.TID 0000.0001)  cg2d: iter=    17 ; resid.=  4.71057407108861E-03
(PID.TID 0000.0001)  cg2d: iter=    18 ; resid.=  4.06432783690235E-03
(PID.TID 0000.0001)  cg2d: iter=    19 ; resid.=  3.26800089649197E-03
(PID.TID 0000.0001)  cg2d: iter=    20 ; resid.=  2.73066998194715E-03
(PID.TID 0000.0001)  cg2d: iter=    21 ; resid.=  2.15577156620877E-03
(PID.TID 0000.0001)  cg2d: iter=    22 ; resid.=  1.67028963087969E-03
(PID.TID 0000.0001)  cg2d: iter=    23 ; resid.=  1.34164731933623E-03
(PID.TID 0000.0001)  cg2d: iter=    24 ; resid.=  1.07039953483633E-03
(PID.TID 0000.0001)  cg2d: iter=    25 ; resid.=  8.52610229415715E-04
(PID.TID 0000.0001)  cg2d: iter=    26 ; resid.=  7.20661815850920E-04
(PID.TID 0000.0001)  cg2d: iter=    27 ; resid.=  6.59966606767387E-04
(PID.TID 0000.0001)  cg2d: iter=    28 ; resid.=  6.26313547350323E-04
(PID.TID 0000.0001)  cg2d: iter=    29 ; resid.=  5.64609594574975E-04
(PID.TID 0000.0001)  cg2d: iter=    30 ; resid.=  4.67826648346048E-04
(PID.TID 0000.0001)  cg2d: iter=    31 ; resid.=  4.00471135943966E-04
(PID.TID 0000.0001)  cg2d: iter=    32 ; resid.=  3.18537330298232E-04
(PID.TID 0000.0001)  cg2d: iter=    33 ; resid.=  2.48686647758508E-04
(PID.TID 0000.0001)  cg2d: iter=    34 ; resid.=  1.84270359993447E-04
(PID.TID 0000.0001)  cg2d: iter=    35 ; resid.=  1.44200207833939E-04
(PID.TID 0000.0001)  cg2d: iter=    36 ; resid.=  1.22512654417379E-04
(PID.TID 0000.0001)  cg2d: iter=    37 ; resid.=  1.04722668399384E-04
(PID.TID 0000.0001)  cg2d: iter=    38 ; resid.=  9.17000290496296E-05
(PID.TID 0000.0001)  cg2d: iter=    39 ; resid.=  7.56306406236922E-05
(PID.TID 0000.0001)  cg2d: iter=    40 ; resid.=  6.50276679371086E-05
(PID.TID 0000.0001)  cg2d: iter=    41 ; resid.=  5.66403540142309E-05
(PID.TID 0000.0001)  cg2d: iter=    42 ; resid.=  4.68055114776642E-05
(PID.TID 0000.0001)  cg2d: iter=    43 ; resid.=  3.93802867137074E-05
(PID.TID 0000.0001)  cg2d: iter=    44 ; resid.=  3.39784876081318E-05
(PID.TID 0000.0001)  cg2d: iter=    45 ; resid.=  3.03905536979546E-05
(PID.TID 0000.0001)  cg2d: iter=    46 ; resid.=  2.65527868370657E-05
(PID.TID 0000.0001)  cg2d: iter=    47 ; resid.=  2.22534488597043E-05
(PID.TID 0000.0001)  cg2d: iter=    48 ; resid.=  1.81811661617040E-05
(PID.TID 0000.0001)  cg2d: iter=    49 ; resid.=  1.43173260944071E-05
(PID.TID 0000.0001)  cg2d: iter=    50 ; resid.=  1.15080400210333E-05
(PID.TID 0000.0001)  cg2d: iter=    51 ; resid.=  9.37104039686688E-06
(PID.TID 0000.0001)  cg2d: iter=    52 ; resid.=  8.02470023929454E-06
(PID.TID 0000.0001)  cg2d: iter=    53 ; resid.=  6.89462919597191E-06
(PID.TID 0000.0001)  cg2d: iter=    54 ; resid.=  5.48366697029407E-06
(PID.TID 0000.0001)  cg2d: iter=    55 ; resid.=  4.30074955831760E-06
(PID.TID 0000.0001)  cg2d: iter=    56 ; resid.=  3.48620266445304E-06
(PID.TID 0000.0001)  cg2d: iter=    57 ; resid.=  2.68474679664721E-06
(PID.TID 0000.0001)  cg2d: iter=    58 ; resid.=  2.01794997943966E-06
(PID.TID 0000.0001)  cg2d: iter=    59 ; resid.=  1.54516817088600E-06
(PID.TID 0000.0001)  cg2d: iter=    60 ; resid.=  1.22177708969264E-06
(PID.TID 0000.0001)  cg2d: iter=    61 ; resid.=  1.08753110833959E-06
(PID.TID 0000.0001)  cg2d: iter=    62 ; resid.=  1.02421756129402E-06
(PID.TID 0000.0001)  cg2d: iter=    63 ; resid.=  8.28306415113683E-07
(PID.TID 0000.0001)  cg2d: iter=    64 ; resid.=  6.42299258098724E-07
(PID.TID 0000.0001)  cg2d: iter=    65 ; resid.=  5.25108302662943E-07
(PID.TID 0000.0001)  cg2d: iter=    66 ; resid.=  4.64286896148763E-07
(PID.TID 0000.0001)  cg2d: iter=    67 ; resid.=  3.79139176049769E-07
(PID.TID 0000.0001)  cg2d: iter=    68 ; resid.=  3.18791319718791E-07
(PID.TID 0000.0001)  cg2d: iter=    69 ; resid.=  2.54739190830604E-07
(PID.TID 0000.0001)  cg2d: iter=    70 ; resid.=  2.12386268555840E-07
(PID.TID 0000.0001)  cg2d: iter=    71 ; resid.=  1.91994820243169E-07
(PID.TID 0000.0001)  cg2d: iter=    72 ; resid.=  1.67337868633921E-07
(PID.TID 0000.0001)  cg2d: iter=    73 ; resid.=  1.34581339119281E-07
(PID.TID 0000.0001)  cg2d: iter=    74 ; resid.=  1.05942113163368E-07
(PID.TID 0000.0001)  cg2d: iter=    75 ; resid.=  8.43010622689400E-08
(PID.TID 0000.0001)  cg2d: iter=    76 ; resid.=  6.90727162871695E-08
(PID.TID 0000.0001)  cg2d: iter=    77 ; resid.=  5.64555858884032E-08
(PID.TID 0000.0001)  cg2d: iter=    78 ; resid.=  4.44530443756186E-08
(PID.TID 0000.0001)  cg2d: iter=    79 ; resid.=  3.66044088593252E-08
(PID.TID 0000.0001)  cg2d: iter=    80 ; resid.=  3.01359141878529E-08
(PID.TID 0000.0001)  cg2d: iter=    81 ; resid.=  2.36950896024035E-08
(PID.TID 0000.0001)  cg2d: iter=    82 ; resid.=  1.87822649344631E-08
(PID.TID 0000.0001)  cg2d: iter=    83 ; resid.=  1.47739982157922E-08
(PID.TID 0000.0001)  cg2d: iter=    84 ; resid.=  1.19808766727367E-08
(PID.TID 0000.0001)  cg2d: iter=    85 ; resid.=  9.52888715034964E-09
(PID.TID 0000.0001)  cg2d: iter=    86 ; resid.=  7.85744419749559E-09
(PID.TID 0000.0001)  cg2d: iter=    87 ; resid.=  6.62207178908527E-09
(PID.TID 0000.0001)  cg2d: iter=    88 ; resid.=  5.21859718984588E-09
(PID.TID 0000.0001)  cg2d: iter=    89 ; resid.=  4.33474834231076E-09
(PID.TID 0000.0001)  cg2d: iter=    90 ; resid.=  3.76537818561185E-09
(PID.TID 0000.0001)  cg2d: iter=    91 ; resid.=  3.07903336866141E-09
(PID.TID 0000.0001)  cg2d: iter=    92 ; resid.=  2.31687491652690E-09
(PID.TID 0000.0001)  cg2d: iter=    93 ; resid.=  1.69013885805738E-09
(PID.TID 0000.0001)  cg2d: iter=    94 ; resid.=  1.19580164039256E-09
(PID.TID 0000.0001)  cg2d: iter=    95 ; resid.=  8.99560935119565E-10
(PID.TID 0000.0001)  cg2d: iter=    96 ; resid.=  6.94392238704706E-10
(PID.TID 0000.0001)  cg2d: iter=    97 ; resid.=  5.59127094284481E-10
(PID.TID 0000.0001)  cg2d: iter=    98 ; resid.=  4.23957083903874E-10
(PID.TID 0000.0001)  cg2d: iter=    99 ; resid.=  3.24782953788356E-10
(PID.TID 0000.0001)  cg2d: iter=   100 ; resid.=  2.81835809965282E-10
(PID.TID 0000.0001)  cg2d: iter=   101 ; resid.=  2.59729663406086E-10
(PID.TID 0000.0001)  cg2d: iter=   102 ; resid.=  2.31701487306598E-10
(PID.TID 0000.0001)  cg2d: iter=   103 ; resid.=  1.83047759400046E-10
(PID.TID 0000.0001)  cg2d: iter=   104 ; resid.=  1.53594454081694E-10
(PID.TID 0000.0001)  cg2d: iter=   105 ; resid.=  1.27695473069296E-10
(PID.TID 0000.0001)  cg2d: iter=   106 ; resid.=  1.02235979511743E-10
(PID.TID 0000.0001)  cg2d: iter=   107 ; resid.=  7.82925964137234E-11
(PID.TID 0000.0001)  cg2d: iter=   108 ; resid.=  5.77673199431741E-11
(PID.TID 0000.0001)  cg2d: iter=   109 ; resid.=  4.38716116223401E-11
(PID.TID 0000.0001)  cg2d: iter=   110 ; resid.=  3.33840686952066E-11
(PID.TID 0000.0001)  cg2d: iter=   111 ; resid.=  2.43310859926312E-11
(PID.TID 0000.0001)  cg2d: iter=   112 ; resid.=  1.90562455912495E-11
(PID.TID 0000.0001)  cg2d: iter=   113 ; resid.=  1.48102869938522E-11
(PID.TID 0000.0001)  cg2d: iter=   114 ; resid.=  1.10454157587396E-11
(PID.TID 0000.0001)  cg2d: iter=   115 ; resid.=  8.69221410972096E-12
(PID.TID 0000.0001)  cg2d: iter=   116 ; resid.=  6.47504432533310E-12
(PID.TID 0000.0001)  cg2d: iter=   117 ; resid.=  4.95621215119130E-12
(PID.TID 0000.0001)  cg2d: iter=   118 ; resid.=  3.57901780354742E-12
(PID.TID 0000.0001)  cg2d: iter=   119 ; resid.=  2.81412893751148E-12
(PID.TID 0000.0001)  cg2d: iter=   120 ; resid.=  2.28515615522068E-12
(PID.TID 0000.0001)  cg2d: iter=   121 ; resid.=  1.84490016036523E-12
(PID.TID 0000.0001)  cg2d: iter=   122 ; resid.=  1.45349524600982E-12
(PID.TID 0000.0001)  cg2d: iter=   123 ; resid.=  1.08650182872859E-12
(PID.TID 0000.0001)  cg2d: iter=   124 ; resid.=  8.19432739645386E-13
(PID.TID 0000.0001)  cg2d: iter=   125 ; resid.=  6.42281611354050E-13
(PID.TID 0000.0001)  cg2d: iter=   126 ; resid.=  4.96603855877569E-13
(PID.TID 0000.0001)  cg2d: iter=   127 ; resid.=  3.42166015959779E-13
(PID.TID 0000.0001)  cg2d: iter=   128 ; resid.=  2.17892641753602E-13
(PID.TID 0000.0001)  cg2d: iter=   129 ; resid.=  1.37379216646887E-13
(PID.TID 0000.0001)  cg2d: iter=   130 ; resid.=  9.79113484838579E-14
DEBUG_STATS_RL:    cg2d_x (SOLVE_FOR_PRESSURE)  min= -1.64102802375308E+01
DEBUG_STATS_RL:    cg2d_x (SOLVE_FOR_PRESSURE)  max=  8.91287859768650E+00
DEBUG_STATS_RL:    cg2d_x (SOLVE_FOR_PRESSURE) mean= -1.63952535994599E+00
DEBUG_STATS_RL:    cg2d_x (SOLVE_FOR_PRESSURE) S.D.=  6.33054381252296E+00
(PID.TID 0000.0001)      cg2d_init_res =   4.13734067507617E-01
(PID.TID 0000.0001)      cg2d_iters(min,last) =      -1     130
(PID.TID 0000.0001)      cg2d_last_res =   9.79113484838579E-14
(PID.TID 0000.0001) // =======================================================
(PID.TID 0000.0001) // Begin MONITOR dynamic field statistics
(PID.TID 0000.0001) // =======================================================
(PID.TID 0000.0001) %MON time_tsnumber                =                    33
(PID.TID 0000.0001) %MON time_secondsf                =   2.8512000000000E+06
(PID.TID 0000.0001) %MON dynstat_eta_max              =   9.0855031576825E-01
(PID.TID 0000.0001) %MON dynstat_eta_min              =  -1.6728114411347E+00
(PID.TID 0000.0001) %MON dynstat_eta_mean             =  -2.4612528869389E-03
(PID.TID 0000.0001) %MON dynstat_eta_sd               =   5.6314679175470E-01
(PID.TID 0000.0001) %MON dynstat_eta_del2             =   2.1678098692882E-03
(PID.TID 0000.0001) %MON dynstat_uvel_max             =   9.4171748220892E-02
(PID.TID 0000.0001) %MON dynstat_uvel_min             =  -1.6419617332837E-01
(PID.TID 0000.0001) %MON dynstat_uvel_mean            =   1.3964028897317E-03
(PID.TID 0000.0001) %MON dynstat_uvel_sd              =   1.0808186902767E-02
(PID.TID 0000.0001) %MON dynstat_uvel_del2            =   7.3655715011524E-05
(PID.TID 0000.0001) %MON dynstat_vvel_max             =   1.0777550578881E-01
(PID.TID 0000.0001) %MON dynstat_vvel_min             =  -1.1452522482774E-01
(PID.TID 0000.0001) %MON dynstat_vvel_mean            =   8.3107033695627E-06
(PID.TID 0000.0001) %MON dynstat_vvel_sd              =   8.1255682557668E-03
(PID.TID 0000.0001) %MON dynstat_vvel_del2            =   7.3158249814584E-05
(PID.TID 0000.0001) %MON dynstat_wvel_max             =   9.6512625392703E-05
(PID.TID 0000.0001) %MON dynstat_wvel_min             =  -1.1007780060671E-04
(PID.TID 0000.0001) %MON dynstat_wvel_mean            =  -4.3320679538104E-23
(PID.TID 0000.0001) %MON dynstat_wvel_sd              =   1.3307608845649E-05
(PID.TID 0000.0001) %MON dynstat_wvel_del2            =   1.6144320760378E-07
(PID.TID 0000.0001) %MON dynstat_theta_max            =   2.9816997396464E+01
(PID.TID 0000.0001) %MON dynstat_theta_min            =  -1.9763414525631E+00
(PID.TID 0000.0001) %MON dynstat_theta_mean           =   3.6199126719595E+00
(PID.TID 0000.0001) %MON dynstat_theta_sd             =   4.4156924308530E+00
(PID.TID 0000.0001) %MON dynstat_theta_del2           =   4.7517114701588E-03
(PID.TID 0000.0001) %MON dynstat_salt_max             =   3.7453984301315E+01
(PID.TID 0000.0001) %MON dynstat_salt_min             =   2.9805441026616E+01
(PID.TID 0000.0001) %MON dynstat_salt_mean            =   3.4717287308320E+01
(PID.TID 0000.0001) %MON dynstat_salt_sd              =   2.9620107203943E-01
(PID.TID 0000.0001) %MON dynstat_salt_del2            =   9.8636748647056E-04
(PID.TID 0000.0001) %MON dynstat_sst_max              =   2.9816997396464E+01
(PID.TID 0000.0001) %MON dynstat_sst_min              =  -1.9763414525631E+00
(PID.TID 0000.0001) %MON dynstat_sst_mean             =   1.8659845009800E+01
(PID.TID 0000.0001) %MON dynstat_sst_sd               =   9.0917307402351E+00
(PID.TID 0000.0001) %MON dynstat_sst_del2             =   2.5332330680165E-02
(PID.TID 0000.0001) %MON dynstat_sss_max              =   3.7422408625985E+01
(PID.TID 0000.0001) %MON dynstat_sss_min              =   2.9805441026616E+01
(PID.TID 0000.0001) %MON dynstat_sss_mean             =   3.4843786720283E+01
(PID.TID 0000.0001) %MON dynstat_sss_sd               =   9.7513286221296E-01
(PID.TID 0000.0001) %MON dynstat_sss_del2             =   7.7956101026840E-03
(PID.TID 0000.0001) %MON forcing_qnet_max             =   3.8518914286296E+02
(PID.TID 0000.0001) %MON forcing_qnet_min             =  -1.7594771931966E+02
(PID.TID 0000.0001) %MON forcing_qnet_mean            =  -1.5069070155187E+01
(PID.TID 0000.0001) %MON forcing_qnet_sd              =   9.2094283864091E+01
(PID.TID 0000.0001) %MON forcing_qnet_del2            =   9.6837633456498E-01
(PID.TID 0000.0001) %MON forcing_qsw_max              =   0.0000000000000E+00
(PID.TID 0000.0001) %MON forcing_qsw_min              =   0.0000000000000E+00
(PID.TID 0000.0001) %MON forcing_qsw_mean             =   0.0000000000000E+00
(PID.TID 0000.0001) %MON forcing_qsw_sd               =   0.0000000000000E+00
(PID.TID 0000.0001) %MON forcing_qsw_del2             =   0.0000000000000E+00
(PID.TID 0000.0001) %MON forcing_empmr_max            =   7.6834713524931E-05
(PID.TID 0000.0001) %MON forcing_empmr_min            =  -7.7509908654368E-05
(PID.TID 0000.0001) %MON forcing_empmr_mean           =   9.3453781552993E-07
(PID.TID 0000.0001) %MON forcing_empmr_sd             =   2.8134918761187E-05
(PID.TID 0000.0001) %MON forcing_empmr_del2           =   3.5437715861302E-07
(PID.TID 0000.0001) %MON forcing_fu_max               =   2.8660247027874E-01
(PID.TID 0000.0001) %MON forcing_fu_min               =  -1.9415334165096E-01
(PID.TID 0000.0001) %MON forcing_fu_mean              =   1.6924838815539E-02
(PID.TID 0000.0001) %MON forcing_fu_sd                =   9.0257397064876E-02
(PID.TID 0000.0001) %MON forcing_fu_del2              =   6.7159620997325E-04
(PID.TID 0000.0001) %MON forcing_fv_max               =   1.8701238036156E-01
(PID.TID 0000.0001) %MON forcing_fv_min               =  -1.6128480434418E-01
(PID.TID 0000.0001) %MON forcing_fv_mean              =  -6.3683331536630E-03
(PID.TID 0000.0001) %MON forcing_fv_sd                =   4.4725198845894E-02
(PID.TID 0000.0001) %MON forcing_fv_del2              =   4.7006525107410E-04
(PID.TID 0000.0001) %MON trAdv_CFL_u_max              =   3.3173113089237E-02
(PID.TID 0000.0001) %MON trAdv_CFL_v_max              =   2.3887717319198E-02
(PID.TID 0000.0001) %MON trAdv_CFL_w_max              =   4.2528964321020E-02
(PID.TID 0000.0001) %MON advcfl_uvel_max              =   3.4325704645408E-02
(PID.TID 0000.0001) %MON advcfl_vvel_max              =   2.2250414420251E-02
(PID.TID 0000.0001) %MON advcfl_wvel_max              =   3.3963107812166E-02
(PID.TID 0000.0001) %MON advcfl_W_hf_max              =   4.1240916629059E-02
(PID.TID 0000.0001) %MON pe_b_mean                    =   4.0581932518438E-04
(PID.TID 0000.0001) %MON ke_max                       =   1.3842804624312E-02
(PID.TID 0000.0001) %MON ke_mean                      =   8.3599059935864E-05
(PID.TID 0000.0001) %MON ke_vol                       =   1.3226782436723E+18
(PID.TID 0000.0001) %MON vort_r_min                   =  -3.4771226483467E-07
(PID.TID 0000.0001) %MON vort_r_max                   =   4.0935687584975E-07
(PID.TID 0000.0001) %MON vort_a_mean                  =  -2.5274807029377E-05
(PID.TID 0000.0001) %MON vort_a_sd                    =   7.3604558027808E-05
(PID.TID 0000.0001) %MON vort_p_mean                  =  -3.1845655335707E-05
(PID.TID 0000.0001) %MON vort_p_sd                    =   1.3162524405487E-04
(PID.TID 0000.0001) %MON surfExpan_theta_mean         =   2.3471364384455E-07
(PID.TID 0000.0001) %MON surfExpan_salt_mean          =   1.7680301117889E-08
(PID.TID 0000.0001) // =======================================================
(PID.TID 0000.0001) // End MONITOR dynamic field statistics
(PID.TID 0000.0001) // =======================================================
 EXTERNAL_FIELDS_LOAD,        33 : iP,iLd,i0,i1=    1    2    1    2 ; Wght=  0.4000000000  0.6000000000
 EXTERNAL_FIELDS_LOAD: (fu0,1),fu,fv= -3.5633E-02 -1.4435E-02 -2.2914E-02 -3.3484E-02
 EXTERNAL_FIELDS_LOAD: SST,SSS,Q,E-P=  6.4256E-02  3.4538E+01  2.5060E+02  9.6810E-06
DEBUG_STATS_RL:          Uvel (THERMODYNAMICS)  min= -1.64196173328369E-01
DEBUG_STATS_RL:          Uvel (THERMODYNAMICS)  max=  9.41717482208919E-02
DEBUG_STATS_RL:          Uvel (THERMODYNAMICS) mean=  1.87935395539521E-03
DEBUG_STATS_RL:          Uvel (THERMODYNAMICS) S.D.=  1.75818563142065E-02
DEBUG_STATS_RL:          Vvel (THERMODYNAMICS)  min= -1.14525224827743E-01
DEBUG_STATS_RL:          Vvel (THERMODYNAMICS)  max=  1.07775505788807E-01
DEBUG_STATS_RL:          Vvel (THERMODYNAMICS) mean= -7.41004808355102E-05
DEBUG_STATS_RL:          Vvel (THERMODYNAMICS) S.D.=  1.26830499806914E-02
DEBUG_STATS_RL:          Wvel (THERMODYNAMICS)  min= -1.10077800606712E-04
DEBUG_STATS_RL:          Wvel (THERMODYNAMICS)  max=  9.65126253927034E-05
DEBUG_STATS_RL:          Wvel (THERMODYNAMICS) mean= -2.41461147050800E-07
DEBUG_STATS_RL:          Wvel (THERMODYNAMICS) S.D.=  1.20633499690554E-05
DEBUG_STATS_RL:         Theta (THERMODYNAMICS)  min= -1.97527866610821E+00
DEBUG_STATS_RL:         Theta (THERMODYNAMICS)  max=  2.98295788555643E+01
DEBUG_STATS_RL:         Theta (THERMODYNAMICS) mean=  3.20567908614629E+00
DEBUG_STATS_RL:         Theta (THERMODYNAMICS) S.D.=  5.85396912644445E+00
DEBUG_STATS_RL:          Salt (THERMODYNAMICS)  min= -6.85624969102121E-04
DEBUG_STATS_RL:          Salt (THERMODYNAMICS)  max=  3.74541516179042E+01
DEBUG_STATS_RL:          Salt (THERMODYNAMICS) mean=  1.88441441275614E+01
DEBUG_STATS_RL:          Salt (THERMODYNAMICS) S.D.=  1.73003445764930E+01
DEBUG_STATS_RL:         GtNm1 (THERMODYNAMICS)  min= -2.17875497699649E-06
DEBUG_STATS_RL:         GtNm1 (THERMODYNAMICS)  max=  2.37336471280469E-06
DEBUG_STATS_RL:         GtNm1 (THERMODYNAMICS) mean=  7.31787525978541E-09
DEBUG_STATS_RL:         GtNm1 (THERMODYNAMICS) S.D.=  1.80086107485426E-07
DEBUG_STATS_RL:         GsNm1 (THERMODYNAMICS)  min= -3.72381411945816E-07
DEBUG_STATS_RL:         GsNm1 (THERMODYNAMICS)  max=  4.38342149150013E-07
DEBUG_STATS_RL:         GsNm1 (THERMODYNAMICS) mean= -4.51974323734973E-10
DEBUG_STATS_RL:         GsNm1 (THERMODYNAMICS) S.D.=  1.66119381846733E-08
DEBUG_STATS_RL:                EtaN (DYNAMICS)  min= -1.67281144113470E+00
DEBUG_STATS_RL:                EtaN (DYNAMICS)  max=  9.08550315768250E-01
DEBUG_STATS_RL:                EtaN (DYNAMICS) mean= -1.67127967374718E-01
DEBUG_STATS_RL:                EtaN (DYNAMICS) S.D.=  6.45315373345868E-01
DEBUG_STATS_RL:                Uvel (DYNAMICS)  min= -1.64196173328369E-01
DEBUG_STATS_RL:                Uvel (DYNAMICS)  max=  9.41717482208919E-02
DEBUG_STATS_RL:                Uvel (DYNAMICS) mean=  1.87935395539521E-03
DEBUG_STATS_RL:                Uvel (DYNAMICS) S.D.=  1.75818563142065E-02
DEBUG_STATS_RL:                Vvel (DYNAMICS)  min= -1.14525224827743E-01
DEBUG_STATS_RL:                Vvel (DYNAMICS)  max=  1.07775505788807E-01
DEBUG_STATS_RL:                Vvel (DYNAMICS) mean= -7.41004808355102E-05
DEBUG_STATS_RL:                Vvel (DYNAMICS) S.D.=  1.26830499806914E-02
DEBUG_STATS_RL:                Wvel (DYNAMICS)  min= -1.10077800606712E-04
DEBUG_STATS_RL:                Wvel (DYNAMICS)  max=  9.65126253927034E-05
DEBUG_STATS_RL:                Wvel (DYNAMICS) mean= -2.41461147050800E-07
DEBUG_STATS_RL:                Wvel (DYNAMICS) S.D.=  1.20633499690554E-05
DEBUG_STATS_RL:               Theta (DYNAMICS)  min= -1.97527866610821E+00
DEBUG_STATS_RL:               Theta (DYNAMICS)  max=  2.98295788555643E+01
DEBUG_STATS_RL:               Theta (DYNAMICS) mean=  3.20567908614629E+00
DEBUG_STATS_RL:               Theta (DYNAMICS) S.D.=  5.85396912644445E+00
DEBUG_STATS_RL:                Salt (DYNAMICS)  min= -6.85624969102121E-04
DEBUG_STATS_RL:                Salt (DYNAMICS)  max=  3.74541516179042E+01
DEBUG_STATS_RL:                Salt (DYNAMICS) mean=  1.88441441275614E+01
DEBUG_STATS_RL:                Salt (DYNAMICS) S.D.=  1.73003445764930E+01
DEBUG_STATS_RL:                  Gu (DYNAMICS)  min= -1.64090784357961E-01
DEBUG_STATS_RL:                  Gu (DYNAMICS)  max=  1.00356238116744E-01
DEBUG_STATS_RL:                  Gu (DYNAMICS) mean=  1.91195298040511E-03
DEBUG_STATS_RL:                  Gu (DYNAMICS) S.D.=  1.84312861844757E-02
DEBUG_STATS_RL:                  Gv (DYNAMICS)  min= -1.15126493130667E-01
DEBUG_STATS_RL:                  Gv (DYNAMICS)  max=  9.97944097302030E-02
DEBUG_STATS_RL:                  Gv (DYNAMICS) mean=  2.01422088077897E-03
DEBUG_STATS_RL:                  Gv (DYNAMICS) S.D.=  1.32605892639508E-02
DEBUG_STATS_RL:               GuNm1 (DYNAMICS)  min= -7.85098936706712E-06
DEBUG_STATS_RL:               GuNm1 (DYNAMICS)  max=  7.76534929518191E-06
DEBUG_STATS_RL:               GuNm1 (DYNAMICS) mean= -1.99589701356229E-08
DEBUG_STATS_RL:               GuNm1 (DYNAMICS) S.D.=  1.18922944205298E-06
DEBUG_STATS_RL:               GvNm1 (DYNAMICS)  min= -1.06884922864122E-05
DEBUG_STATS_RL:               GvNm1 (DYNAMICS)  max=  1.64566745518897E-05
DEBUG_STATS_RL:               GvNm1 (DYNAMICS) mean=  7.57496012375186E-07
DEBUG_STATS_RL:               GvNm1 (DYNAMICS) S.D.=  2.63632732157028E-06
DEBUG_STATS_RL:               GtNm1 (DYNAMICS)  min= -2.17875497699649E-06
DEBUG_STATS_RL:               GtNm1 (DYNAMICS)  max=  2.37336471280469E-06
DEBUG_STATS_RL:               GtNm1 (DYNAMICS) mean=  7.31787525978541E-09
DEBUG_STATS_RL:               GtNm1 (DYNAMICS) S.D.=  1.80086107485426E-07
DEBUG_STATS_RL:               GsNm1 (DYNAMICS)  min= -3.72381411945816E-07
DEBUG_STATS_RL:               GsNm1 (DYNAMICS)  max=  4.38342149150013E-07
DEBUG_STATS_RL:               GsNm1 (DYNAMICS) mean= -4.51974323734973E-10
DEBUG_STATS_RL:               GsNm1 (DYNAMICS) S.D.=  1.66119381846733E-08
DEBUG_STATS_RL:    cg2d_b (SOLVE_FOR_PRESSURE)  min= -1.99495391849659E+04
DEBUG_STATS_RL:    cg2d_b (SOLVE_FOR_PRESSURE)  max=  1.89859719107716E+04
DEBUG_STATS_RL:    cg2d_b (SOLVE_FOR_PRESSURE) mean=  2.43375679895957E+00
DEBUG_STATS_RL:    cg2d_b (SOLVE_FOR_PRESSURE) S.D.=  3.75501990338787E+03
 cg2d: Sum(rhs),rhsMax =   2.82419906412351E-01  1.31033914707771E+00
(PID.TID 0000.0001)  cg2d: iter=     1 ; resid.=  9.99668960590698E-02
(PID.TID 0000.0001)  cg2d: iter=     2 ; resid.=  5.31680479892786E-02
(PID.TID 0000.0001)  cg2d: iter=     3 ; resid.=  3.81316515184151E-02
(PID.TID 0000.0001)  cg2d: iter=     4 ; resid.=  3.45997155441920E-02
(PID.TID 0000.0001)  cg2d: iter=     5 ; resid.=  3.33965598780664E-02
(PID.TID 0000.0001)  cg2d: iter=     6 ; resid.=  2.89648769930728E-02
(PID.TID 0000.0001)  cg2d: iter=     7 ; resid.=  2.44109739308736E-02
(PID.TID 0000.0001)  cg2d: iter=     8 ; resid.=  1.97994681338922E-02
(PID.TID 0000.0001)  cg2d: iter=     9 ; resid.=  1.59156389360879E-02
(PID.TID 0000.0001)  cg2d: iter=    10 ; resid.=  1.30468130163559E-02
(PID.TID 0000.0001)  cg2d: iter=    11 ; resid.=  1.10774712942557E-02
(PID.TID 0000.0001)  cg2d: iter=    12 ; resid.=  9.69925879241645E-03
(PID.TID 0000.0001)  cg2d: iter=    13 ; resid.=  8.81590183727817E-03
(PID.TID 0000.0001)  cg2d: iter=    14 ; resid.=  7.51767463901488E-03
(PID.TID 0000.0001)  cg2d: iter=    15 ; resid.=  6.13524465277761E-03
(PID.TID 0000.0001)  cg2d: iter=    16 ; resid.=  5.00824506396272E-03
(PID.TID 0000.0001)  cg2d: iter=    17 ; resid.=  4.57021143651100E-03
(PID.TID 0000.0001)  cg2d: iter=    18 ; resid.=  3.94685186885581E-03
(PID.TID 0000.0001)  cg2d: iter=    19 ; resid.=  3.16643968727094E-03
(PID.TID 0000.0001)  cg2d: iter=    20 ; resid.=  2.58999793482382E-03
(PID.TID 0000.0001)  cg2d: iter=    21 ; resid.=  1.99652654849986E-03
(PID.TID 0000.0001)  cg2d: iter=    22 ; resid.=  1.53033158129412E-03
(PID.TID 0000.0001)  cg2d: iter=    23 ; resid.=  1.22394953410747E-03
(PID.TID 0000.0001)  cg2d: iter=    24 ; resid.=  9.73168460653187E-04
(PID.TID 0000.0001)  cg2d: iter=    25 ; resid.=  7.73830359463065E-04
(PID.TID 0000.0001)  cg2d: iter=    26 ; resid.=  6.41321694212978E-04
(PID.TID 0000.0001)  cg2d: iter=    27 ; resid.=  5.80438377234525E-04
(PID.TID 0000.0001)  cg2d: iter=    28 ; resid.=  5.57460328260827E-04
(PID.TID 0000.0001)  cg2d: iter=    29 ; resid.=  5.06314047582524E-04
(PID.TID 0000.0001)  cg2d: iter=    30 ; resid.=  4.21835420815246E-04
(PID.TID 0000.0001)  cg2d: iter=    31 ; resid.=  3.69395302763476E-04
(PID.TID 0000.0001)  cg2d: iter=    32 ; resid.=  3.04106765092054E-04
(PID.TID 0000.0001)  cg2d: iter=    33 ; resid.=  2.42509961375733E-04
(PID.TID 0000.0001)  cg2d: iter=    34 ; resid.=  1.77978730690622E-04
(PID.TID 0000.0001)  cg2d: iter=    35 ; resid.=  1.36047117620971E-04
(PID.TID 0000.0001)  cg2d: iter=    36 ; resid.=  1.13268400574065E-04
(PID.TID 0000.0001)  cg2d: iter=    37 ; resid.=  9.61437295011280E-05
(PID.TID 0000.0001)  cg2d: iter=    38 ; resid.=  8.32248330994739E-05
(PID.TID 0000.0001)  cg2d: iter=    39 ; resid.=  6.76511544262185E-05
(PID.TID 0000.0001)  cg2d: iter=    40 ; resid.=  5.78063660423045E-05
(PID.TID 0000.0001)  cg2d: iter=    41 ; resid.=  5.09214208509844E-05
(PID.TID 0000.0001)  cg2d: iter=    42 ; resid.=  4.29128578320220E-05
(PID.TID 0000.0001)  cg2d: iter=    43 ; resid.=  3.66131710305296E-05
(PID.TID 0000.0001)  cg2d: iter=    44 ; resid.=  3.21442182455356E-05
(PID.TID 0000.0001)  cg2d: iter=    45 ; resid.=  2.87973768955658E-05
(PID.TID 0000.0001)  cg2d: iter=    46 ; resid.=  2.52636516838830E-05
(PID.TID 0000.0001)  cg2d: iter=    47 ; resid.=  2.10121899128874E-05
(PID.TID 0000.0001)  cg2d: iter=    48 ; resid.=  1.72463800810238E-05
(PID.TID 0000.0001)  cg2d: iter=    49 ; resid.=  1.34567220083239E-05
(PID.TID 0000.0001)  cg2d: iter=    50 ; resid.=  1.06704937970845E-05
(PID.TID 0000.0001)  cg2d: iter=    51 ; resid.=  8.50279219208993E-06
(PID.TID 0000.0001)  cg2d: iter=    52 ; resid.=  7.32222223127312E-06
(PID.TID 0000.0001)  cg2d: iter=    53 ; resid.=  6.31520093117188E-06
(PID.TID 0000.0001)  cg2d: iter=    54 ; resid.=  4.92941022628153E-06
(PID.TID 0000.0001)  cg2d: iter=    55 ; resid.=  3.82252232877469E-06
(PID.TID 0000.0001)  cg2d: iter=    56 ; resid.=  3.10216506913176E-06
(PID.TID 0000.0001)  cg2d: iter=    57 ; resid.=  2.44532436545084E-06
(PID.TID 0000.0001)  cg2d: iter=    58 ; resid.=  1.87723354148477E-06
(PID.TID 0000.0001)  cg2d: iter=    59 ; resid.=  1.46063100178616E-06
(PID.TID 0000.0001)  cg2d: iter=    60 ; resid.=  1.14757096794447E-06
(PID.TID 0000.0001)  cg2d: iter=    61 ; resid.=  1.01798496421497E-06
(PID.TID 0000.0001)  cg2d: iter=    62 ; resid.=  9.49543290247661E-07
(PID.TID 0000.0001)  cg2d: iter=    63 ; resid.=  7.68765615242793E-07
(PID.TID 0000.0001)  cg2d: iter=    64 ; resid.=  6.06404514728718E-07
(PID.TID 0000.0001)  cg2d: iter=    65 ; resid.=  4.97832392085940E-07
(PID.TID 0000.0001)  cg2d: iter=    66 ; resid.=  4.48628307399228E-07
(PID.TID 0000.0001)  cg2d: iter=    67 ; resid.=  3.80568355072395E-07
(PID.TID 0000.0001)  cg2d: iter=    68 ; resid.=  3.25223114661486E-07
(PID.TID 0000.0001)  cg2d: iter=    69 ; resid.=  2.57657968613929E-07
(PID.TID 0000.0001)  cg2d: iter=    70 ; resid.=  2.09989045819943E-07
(PID.TID 0000.0001)  cg2d: iter=    71 ; resid.=  1.84064402919440E-07
(PID.TID 0000.0001)  cg2d: iter=    72 ; resid.=  1.59663572455049E-07
(PID.TID 0000.0001)  cg2d: iter=    73 ; resid.=  1.30203704041388E-07
(PID.TID 0000.0001)  cg2d: iter=    74 ; resid.=  1.02489216479286E-07
(PID.TID 0000.0001)  cg2d: iter=    75 ; resid.=  8.24859701888439E-08
(PID.TID 0000.0001)  cg2d: iter=    76 ; resid.=  6.70073851013752E-08
(PID.TID 0000.0001)  cg2d: iter=    77 ; resid.=  5.31168968136563E-08
(PID.TID 0000.0001)  cg2d: iter=    78 ; resid.=  4.05027878881284E-08
(PID.TID 0000.0001)  cg2d: iter=    79 ; resid.=  3.24978237871238E-08
(PID.TID 0000.0001)  cg2d: iter=    80 ; resid.=  2.71225717504168E-08
(PID.TID 0000.0001)  cg2d: iter=    81 ; resid.=  2.14395578862678E-08
(PID.TID 0000.0001)  cg2d: iter=    82 ; resid.=  1.67136847254511E-08
(PID.TID 0000.0001)  cg2d: iter=    83 ; resid.=  1.28715468823750E-08
(PID.TID 0000.0001)  cg2d: iter=    84 ; resid.=  1.04917659503549E-08
(PID.TID 0000.0001)  cg2d: iter=    85 ; resid.=  8.21778315482495E-09
(PID.TID 0000.0001)  cg2d: iter=    86 ; resid.=  6.39495131769579E-09
(PID.TID 0000.0001)  cg2d: iter=    87 ; resid.=  5.23547764283041E-09
(PID.TID 0000.0001)  cg2d: iter=    88 ; resid.=  4.16087242284051E-09
(PID.TID 0000.0001)  cg2d: iter=    89 ; resid.=  3.55190183830297E-09
(PID.TID 0000.0001)  cg2d: iter=    90 ; resid.=  3.32645588480617E-09
(PID.TID 0000.0001)  cg2d: iter=    91 ; resid.=  2.90336185023486E-09
(PID.TID 0000.0001)  cg2d: iter=    92 ; resid.=  2.20209721751881E-09
(PID.TID 0000.0001)  cg2d: iter=    93 ; resid.=  1.59249656782320E-09
(PID.TID 0000.0001)  cg2d: iter=    94 ; resid.=  1.13461740277949E-09
(PID.TID 0000.0001)  cg2d: iter=    95 ; resid.=  8.63668016752343E-10
(PID.TID 0000.0001)  cg2d: iter=    96 ; resid.=  6.67937980816764E-10
(PID.TID 0000.0001)  cg2d: iter=    97 ; resid.=  5.23930743387639E-10
(PID.TID 0000.0001)  cg2d: iter=    98 ; resid.=  3.84146345635927E-10
(PID.TID 0000.0001)  cg2d: iter=    99 ; resid.=  2.78064211184379E-10
(PID.TID 0000.0001)  cg2d: iter=   100 ; resid.=  2.25778083831321E-10
(PID.TID 0000.0001)  cg2d: iter=   101 ; resid.=  1.96199856722957E-10
(PID.TID 0000.0001)  cg2d: iter=   102 ; resid.=  1.73550261308823E-10
(PID.TID 0000.0001)  cg2d: iter=   103 ; resid.=  1.39355819908813E-10
(PID.TID 0000.0001)  cg2d: iter=   104 ; resid.=  1.19611506205248E-10
(PID.TID 0000.0001)  cg2d: iter=   105 ; resid.=  1.05896494032789E-10
(PID.TID 0000.0001)  cg2d: iter=   106 ; resid.=  8.90792944173272E-11
(PID.TID 0000.0001)  cg2d: iter=   107 ; resid.=  7.00433804974746E-11
(PID.TID 0000.0001)  cg2d: iter=   108 ; resid.=  5.27465414101708E-11
(PID.TID 0000.0001)  cg2d: iter=   109 ; resid.=  4.02863178544666E-11
(PID.TID 0000.0001)  cg2d: iter=   110 ; resid.=  3.09895201560049E-11
(PID.TID 0000.0001)  cg2d: iter=   111 ; resid.=  2.26621838405474E-11
(PID.TID 0000.0001)  cg2d: iter=   112 ; resid.=  1.73450953532351E-11
(PID.TID 0000.0001)  cg2d: iter=   113 ; resid.=  1.32547449776685E-11
(PID.TID 0000.0001)  cg2d: iter=   114 ; resid.=  9.87281818583399E-12
(PID.TID 0000.0001)  cg2d: iter=   115 ; resid.=  7.69822846539112E-12
(PID.TID 0000.0001)  cg2d: iter=   116 ; resid.=  5.49924183100222E-12
(PID.TID 0000.0001)  cg2d: iter=   117 ; resid.=  3.96863398868456E-12
(PID.TID 0000.0001)  cg2d: iter=   118 ; resid.=  2.68539970283358E-12
(PID.TID 0000.0001)  cg2d: iter=   119 ; resid.=  1.99918093453292E-12
(PID.TID 0000.0001)  cg2d: iter=   120 ; resid.=  1.61406455408911E-12
(PID.TID 0000.0001)  cg2d: iter=   121 ; resid.=  1.30282172702496E-12
(PID.TID 0000.0001)  cg2d: iter=   122 ; resid.=  1.02338152163097E-12
(PID.TID 0000.0001)  cg2d: iter=   123 ; resid.=  7.66686707758018E-13
(PID.TID 0000.0001)  cg2d: iter=   124 ; resid.=  5.92759981823715E-13
(PID.TID 0000.0001)  cg2d: iter=   125 ; resid.=  4.86507304414531E-13
(PID.TID 0000.0001)  cg2d: iter=   126 ; resid.=  4.04215472344289E-13
(PID.TID 0000.0001)  cg2d: iter=   127 ; resid.=  2.95294155946942E-13
(PID.TID 0000.0001)  cg2d: iter=   128 ; resid.=  1.93903167852150E-13
(PID.TID 0000.0001)  cg2d: iter=   129 ; resid.=  1.23011875522056E-13
(PID.TID 0000.0001)  cg2d: iter=   130 ; resid.=  8.90212135602211E-14
DEBUG_STATS_RL:    cg2d_x (SOLVE_FOR_PRESSURE)  min= -1.63120997743886E+01
DEBUG_STATS_RL:    cg2d_x (SOLVE_FOR_PRESSURE)  max=  8.93353777537190E+00
DEBUG_STATS_RL:    cg2d_x (SOLVE_FOR_PRESSURE) mean= -1.64795731529914E+00
DEBUG_STATS_RL:    cg2d_x (SOLVE_FOR_PRESSURE) S.D.=  6.34986421428077E+00
(PID.TID 0000.0001)      cg2d_init_res =   4.13360510334263E-01
(PID.TID 0000.0001)      cg2d_iters(min,last) =      -1     130
(PID.TID 0000.0001)      cg2d_last_res =   8.90212135602211E-14
(PID.TID 0000.0001) // =======================================================
(PID.TID 0000.0001) // Begin MONITOR dynamic field statistics
(PID.TID 0000.0001) // =======================================================
(PID.TID 0000.0001) %MON time_tsnumber                =                    34
(PID.TID 0000.0001) %MON time_secondsf                =   2.9376000000000E+06
(PID.TID 0000.0001) %MON dynstat_eta_max              =   9.1065624621532E-01
(PID.TID 0000.0001) %MON dynstat_eta_min              =  -1.6628032389796E+00
(PID.TID 0000.0001) %MON dynstat_eta_mean             =  -2.5393234438327E-03
(PID.TID 0000.0001) %MON dynstat_eta_sd               =   5.6468579016579E-01
(PID.TID 0000.0001) %MON dynstat_eta_del2             =   2.1687960614861E-03
(PID.TID 0000.0001) %MON dynstat_uvel_max             =   1.0441544994060E-01
(PID.TID 0000.0001) %MON dynstat_uvel_min             =  -1.6219639003145E-01
(PID.TID 0000.0001) %MON dynstat_uvel_mean            =   1.4206358766228E-03
(PID.TID 0000.0001) %MON dynstat_uvel_sd              =   1.1052191510283E-02
(PID.TID 0000.0001) %MON dynstat_uvel_del2            =   7.4607591210674E-05
(PID.TID 0000.0001) %MON dynstat_vvel_max             =   1.0587960084667E-01
(PID.TID 0000.0001) %MON dynstat_vvel_min             =  -1.0802095639433E-01
(PID.TID 0000.0001) %MON dynstat_vvel_mean            =   1.7743642407785E-06
(PID.TID 0000.0001) %MON dynstat_vvel_sd              =   8.2279949408176E-03
(PID.TID 0000.0001) %MON dynstat_vvel_del2            =   7.3892658180547E-05
(PID.TID 0000.0001) %MON dynstat_wvel_max             =   9.3390791879797E-05
(PID.TID 0000.0001) %MON dynstat_wvel_min             =  -1.1258762789050E-04
(PID.TID 0000.0001) %MON dynstat_wvel_mean            =   4.4722698949344E-23
(PID.TID 0000.0001) %MON dynstat_wvel_sd              =   1.3521393428042E-05
(PID.TID 0000.0001) %MON dynstat_wvel_del2            =   1.6117005154419E-07
(PID.TID 0000.0001) %MON dynstat_theta_max            =   2.9829578855564E+01
(PID.TID 0000.0001) %MON dynstat_theta_min            =  -1.9752786661082E+00
(PID.TID 0000.0001) %MON dynstat_theta_mean           =   3.6199727957962E+00
(PID.TID 0000.0001) %MON dynstat_theta_sd             =   4.4158241579300E+00
(PID.TID 0000.0001) %MON dynstat_theta_del2           =   4.7389199748982E-03
(PID.TID 0000.0001) %MON dynstat_salt_max             =   3.7454151617904E+01
(PID.TID 0000.0001) %MON dynstat_salt_min             =   2.9805990417584E+01
(PID.TID 0000.0001) %MON dynstat_salt_mean            =   3.4717288304612E+01
(PID.TID 0000.0001) %MON dynstat_salt_sd              =   2.9620156282313E-01
(PID.TID 0000.0001) %MON dynstat_salt_del2            =   9.8483084414224E-04
(PID.TID 0000.0001) %MON dynstat_sst_max              =   2.9829578855564E+01
(PID.TID 0000.0001) %MON dynstat_sst_min              =  -1.9752786661082E+00
(PID.TID 0000.0001) %MON dynstat_sst_mean             =   1.8666355614919E+01
(PID.TID 0000.0001) %MON dynstat_sst_sd               =   9.0890351033672E+00
(PID.TID 0000.0001) %MON dynstat_sst_del2             =   2.5294822107769E-02
(PID.TID 0000.0001) %MON dynstat_sss_max              =   3.7420918149587E+01
(PID.TID 0000.0001) %MON dynstat_sss_min              =   2.9805990417584E+01
(PID.TID 0000.0001) %MON dynstat_sss_mean             =   3.4843450038928E+01
(PID.TID 0000.0001) %MON dynstat_sss_sd               =   9.7508103583498E-01
(PID.TID 0000.0001) %MON dynstat_sss_del2             =   7.7843135006811E-03
(PID.TID 0000.0001) %MON forcing_qnet_max             =   3.8187005615234E+02
(PID.TID 0000.0001) %MON forcing_qnet_min             =  -1.7570820007324E+02
(PID.TID 0000.0001) %MON forcing_qnet_mean            =  -1.4984160987784E+01
(PID.TID 0000.0001) %MON forcing_qnet_sd              =   9.1092630456928E+01
(PID.TID 0000.0001) %MON forcing_qnet_del2            =   9.6613871099960E-01
(PID.TID 0000.0001) %MON forcing_qsw_max              =   0.0000000000000E+00
(PID.TID 0000.0001) %MON forcing_qsw_min              =   0.0000000000000E+00
(PID.TID 0000.0001) %MON forcing_qsw_mean             =   0.0000000000000E+00
(PID.TID 0000.0001) %MON forcing_qsw_sd               =   0.0000000000000E+00
(PID.TID 0000.0001) %MON forcing_qsw_del2             =   0.0000000000000E+00
(PID.TID 0000.0001) %MON forcing_empmr_max            =   7.6520623792931E-05
(PID.TID 0000.0001) %MON forcing_empmr_min            =  -7.7589552915924E-05
(PID.TID 0000.0001) %MON forcing_empmr_mean           =   9.3522021278988E-07
(PID.TID 0000.0001) %MON forcing_empmr_sd             =   2.8112018032576E-05
(PID.TID 0000.0001) %MON forcing_empmr_del2           =   3.5413910341625E-07
(PID.TID 0000.0001) %MON forcing_fu_max               =   2.8798962831497E-01
(PID.TID 0000.0001) %MON forcing_fu_min               =  -1.9581326544285E-01
(PID.TID 0000.0001) %MON forcing_fu_mean              =   1.6979139031008E-02
(PID.TID 0000.0001) %MON forcing_fu_sd                =   9.0367493904055E-02
(PID.TID 0000.0001) %MON forcing_fu_del2              =   6.7397847691000E-04
(PID.TID 0000.0001) %MON forcing_fv_max               =   1.8591085970402E-01
(PID.TID 0000.0001) %MON forcing_fv_min               =  -1.6161646842957E-01
(PID.TID 0000.0001) %MON forcing_fv_mean              =  -6.4335940603783E-03
(PID.TID 0000.0001) %MON forcing_fv_sd                =   4.4654100071951E-02
(PID.TID 0000.0001) %MON forcing_fv_del2              =   4.7289247100782E-04
(PID.TID 0000.0001) %MON trAdv_CFL_u_max              =   3.4332676441523E-02
(PID.TID 0000.0001) %MON trAdv_CFL_v_max              =   2.2765257844828E-02
(PID.TID 0000.0001) %MON trAdv_CFL_w_max              =   4.1240916629059E-02
(PID.TID 0000.0001) %MON advcfl_uvel_max              =   3.6786345477036E-02
(PID.TID 0000.0001) %MON advcfl_vvel_max              =   2.0986739379562E-02
(PID.TID 0000.0001) %MON advcfl_wvel_max              =   3.2747498026535E-02
(PID.TID 0000.0001) %MON advcfl_W_hf_max              =   3.9764819032221E-02
(PID.TID 0000.0001) %MON pe_b_mean                    =   4.0804090375785E-04
(PID.TID 0000.0001) %MON ke_max                       =   1.3882780317161E-02
(PID.TID 0000.0001) %MON ke_mean                      =   8.6805375673147E-05
(PID.TID 0000.0001) %MON ke_vol                       =   1.3226782436723E+18
(PID.TID 0000.0001) %MON vort_r_min                   =  -3.6477286033163E-07
(PID.TID 0000.0001) %MON vort_r_max                   =   4.1227444935954E-07
(PID.TID 0000.0001) %MON vort_a_mean                  =  -2.5274807006592E-05
(PID.TID 0000.0001) %MON vort_a_sd                    =   7.3604561294585E-05
(PID.TID 0000.0001) %MON vort_p_mean                  =  -3.1845655306999E-05
(PID.TID 0000.0001) %MON vort_p_sd                    =   1.3162512828152E-04
(PID.TID 0000.0001) %MON surfExpan_theta_mean         =   2.4271087911838E-07
(PID.TID 0000.0001) %MON surfExpan_salt_mean          =   2.2097277814606E-08
(PID.TID 0000.0001) // =======================================================
(PID.TID 0000.0001) // End MONITOR dynamic field statistics
(PID.TID 0000.0001) // =======================================================
 EXTERNAL_FIELDS_LOAD,        34 : iP,iLd,i0,i1=    1    2    1    2 ; Wght=  0.3666666667  0.6333333333
 EXTERNAL_FIELDS_LOAD: (fu0,1),fu,fv= -3.5633E-02 -1.4435E-02 -2.2207E-02 -3.2163E-02
 EXTERNAL_FIELDS_LOAD: SST,SSS,Q,E-P=  1.4580E-02  3.4529E+01  2.4975E+02  9.5723E-06
DEBUG_STATS_RL:          Uvel (THERMODYNAMICS)  min= -1.62196390031449E-01
DEBUG_STATS_RL:          Uvel (THERMODYNAMICS)  max=  1.04415449940601E-01
DEBUG_STATS_RL:          Uvel (THERMODYNAMICS) mean=  2.05656495770138E-03
DEBUG_STATS_RL:          Uvel (THERMODYNAMICS) S.D.=  1.81429933904272E-02
DEBUG_STATS_RL:          Vvel (THERMODYNAMICS)  min= -1.08020956394327E-01
DEBUG_STATS_RL:          Vvel (THERMODYNAMICS)  max=  1.05879600846670E-01
DEBUG_STATS_RL:          Vvel (THERMODYNAMICS) mean= -2.18443875567235E-04
DEBUG_STATS_RL:          Vvel (THERMODYNAMICS) S.D.=  1.27628515251284E-02
DEBUG_STATS_RL:          Wvel (THERMODYNAMICS)  min= -1.12587627890504E-04
DEBUG_STATS_RL:          Wvel (THERMODYNAMICS)  max=  9.33907918797971E-05
DEBUG_STATS_RL:          Wvel (THERMODYNAMICS) mean= -3.00149763714810E-07
DEBUG_STATS_RL:          Wvel (THERMODYNAMICS) S.D.=  1.22476747648399E-05
DEBUG_STATS_RL:         Theta (THERMODYNAMICS)  min= -1.97418514991813E+00
DEBUG_STATS_RL:         Theta (THERMODYNAMICS)  max=  2.98420605541872E+01
DEBUG_STATS_RL:         Theta (THERMODYNAMICS) mean=  3.20606403916667E+00
DEBUG_STATS_RL:         Theta (THERMODYNAMICS) S.D.=  5.85429175207674E+00
DEBUG_STATS_RL:          Salt (THERMODYNAMICS)  min= -6.85624969102121E-04
DEBUG_STATS_RL:          Salt (THERMODYNAMICS)  max=  3.74542007655309E+01
DEBUG_STATS_RL:          Salt (THERMODYNAMICS) mean=  1.88441297667615E+01
DEBUG_STATS_RL:          Salt (THERMODYNAMICS) S.D.=  1.73003319046188E+01
DEBUG_STATS_RL:         GtNm1 (THERMODYNAMICS)  min= -2.15350387004326E-06
DEBUG_STATS_RL:         GtNm1 (THERMODYNAMICS)  max=  2.39968171917090E-06
DEBUG_STATS_RL:         GtNm1 (THERMODYNAMICS) mean=  8.54361692434349E-09
DEBUG_STATS_RL:         GtNm1 (THERMODYNAMICS) S.D.=  1.79058388029153E-07
DEBUG_STATS_RL:         GsNm1 (THERMODYNAMICS)  min= -3.59510714606455E-07
DEBUG_STATS_RL:         GsNm1 (THERMODYNAMICS)  max=  3.21425283181613E-07
DEBUG_STATS_RL:         GsNm1 (THERMODYNAMICS) mean= -3.77348169182354E-10
DEBUG_STATS_RL:         GsNm1 (THERMODYNAMICS) S.D.=  1.64208921946404E-08
DEBUG_STATS_RL:                EtaN (DYNAMICS)  min= -1.66280323897957E+00
DEBUG_STATS_RL:                EtaN (DYNAMICS)  max=  9.10656246215324E-01
DEBUG_STATS_RL:                EtaN (DYNAMICS) mean= -1.67987493914286E-01
DEBUG_STATS_RL:                EtaN (DYNAMICS) S.D.=  6.47284833260020E-01
DEBUG_STATS_RL:                Uvel (DYNAMICS)  min= -1.62196390031449E-01
DEBUG_STATS_RL:                Uvel (DYNAMICS)  max=  1.04415449940601E-01
DEBUG_STATS_RL:                Uvel (DYNAMICS) mean=  2.05656495770138E-03
DEBUG_STATS_RL:                Uvel (DYNAMICS) S.D.=  1.81429933904272E-02
DEBUG_STATS_RL:                Vvel (DYNAMICS)  min= -1.08020956394327E-01
DEBUG_STATS_RL:                Vvel (DYNAMICS)  max=  1.05879600846670E-01
DEBUG_STATS_RL:                Vvel (DYNAMICS) mean= -2.18443875567235E-04
DEBUG_STATS_RL:                Vvel (DYNAMICS) S.D.=  1.27628515251284E-02
DEBUG_STATS_RL:                Wvel (DYNAMICS)  min= -1.12587627890504E-04
DEBUG_STATS_RL:                Wvel (DYNAMICS)  max=  9.33907918797971E-05
DEBUG_STATS_RL:                Wvel (DYNAMICS) mean= -3.00149763714810E-07
DEBUG_STATS_RL:                Wvel (DYNAMICS) S.D.=  1.22476747648399E-05
DEBUG_STATS_RL:               Theta (DYNAMICS)  min= -1.97418514991813E+00
DEBUG_STATS_RL:               Theta (DYNAMICS)  max=  2.98420605541872E+01
DEBUG_STATS_RL:               Theta (DYNAMICS) mean=  3.20606403916667E+00
DEBUG_STATS_RL:               Theta (DYNAMICS) S.D.=  5.85429175207674E+00
DEBUG_STATS_RL:                Salt (DYNAMICS)  min= -6.85624969102121E-04
DEBUG_STATS_RL:                Salt (DYNAMICS)  max=  3.74542007655309E+01
DEBUG_STATS_RL:                Salt (DYNAMICS) mean=  1.88441297667615E+01
DEBUG_STATS_RL:                Salt (DYNAMICS) S.D.=  1.73003319046188E+01
DEBUG_STATS_RL:                  Gu (DYNAMICS)  min= -1.61583590775654E-01
DEBUG_STATS_RL:                  Gu (DYNAMICS)  max=  1.10226103588724E-01
DEBUG_STATS_RL:                  Gu (DYNAMICS) mean=  2.12688820775043E-03
DEBUG_STATS_RL:                  Gu (DYNAMICS) S.D.=  1.90798812050706E-02
DEBUG_STATS_RL:                  Gv (DYNAMICS)  min= -1.07963738279276E-01
DEBUG_STATS_RL:                  Gv (DYNAMICS)  max=  9.77586099408825E-02
DEBUG_STATS_RL:                  Gv (DYNAMICS) mean=  1.92731390976040E-03
DEBUG_STATS_RL:                  Gv (DYNAMICS) S.D.=  1.32266566646137E-02
DEBUG_STATS_RL:               GuNm1 (DYNAMICS)  min= -7.88518578540694E-06
DEBUG_STATS_RL:               GuNm1 (DYNAMICS)  max=  7.83779267790178E-06
DEBUG_STATS_RL:               GuNm1 (DYNAMICS) mean= -2.04516477301151E-08
DEBUG_STATS_RL:               GuNm1 (DYNAMICS) S.D.=  1.18541052950732E-06
DEBUG_STATS_RL:               GvNm1 (DYNAMICS)  min= -1.06142969564770E-05
DEBUG_STATS_RL:               GvNm1 (DYNAMICS)  max=  1.64248886224547E-05
DEBUG_STATS_RL:               GvNm1 (DYNAMICS) mean=  7.56404651240071E-07
DEBUG_STATS_RL:               GvNm1 (DYNAMICS) S.D.=  2.63020963249787E-06
DEBUG_STATS_RL:               GtNm1 (DYNAMICS)  min= -2.15350387004326E-06
DEBUG_STATS_RL:               GtNm1 (DYNAMICS)  max=  2.39968171917090E-06
DEBUG_STATS_RL:               GtNm1 (DYNAMICS) mean=  8.54361692434349E-09
DEBUG_STATS_RL:               GtNm1 (DYNAMICS) S.D.=  1.79058388029153E-07
DEBUG_STATS_RL:               GsNm1 (DYNAMICS)  min= -3.59510714606455E-07
DEBUG_STATS_RL:               GsNm1 (DYNAMICS)  max=  3.21425283181613E-07
DEBUG_STATS_RL:               GsNm1 (DYNAMICS) mean= -3.77348169182354E-10
DEBUG_STATS_RL:               GsNm1 (DYNAMICS) S.D.=  1.64208921946404E-08
DEBUG_STATS_RL:    cg2d_b (SOLVE_FOR_PRESSURE)  min= -1.96696226561530E+04
DEBUG_STATS_RL:    cg2d_b (SOLVE_FOR_PRESSURE)  max=  1.90909316411307E+04
DEBUG_STATS_RL:    cg2d_b (SOLVE_FOR_PRESSURE) mean=  2.50863634566392E+00
DEBUG_STATS_RL:    cg2d_b (SOLVE_FOR_PRESSURE) S.D.=  3.73383108872943E+03
 cg2d: Sum(rhs),rhsMax =   2.95251883665259E-01  1.29195348000957E+00
(PID.TID 0000.0001)  cg2d: iter=     1 ; resid.=  9.94263729635908E-02
(PID.TID 0000.0001)  cg2d: iter=     2 ; resid.=  5.23131107034051E-02
(PID.TID 0000.0001)  cg2d: iter=     3 ; resid.=  3.69311817797754E-02
(PID.TID 0000.0001)  cg2d: iter=     4 ; resid.=  3.37661271088283E-02
(PID.TID 0000.0001)  cg2d: iter=     5 ; resid.=  3.27249192815398E-02
(PID.TID 0000.0001)  cg2d: iter=     6 ; resid.=  2.86749592060220E-02
(PID.TID 0000.0001)  cg2d: iter=     7 ; resid.=  2.36230196059843E-02
(PID.TID 0000.0001)  cg2d: iter=     8 ; resid.=  1.89987605616383E-02
(PID.TID 0000.0001)  cg2d: iter=     9 ; resid.=  1.51315918780124E-02
(PID.TID 0000.0001)  cg2d: iter=    10 ; resid.=  1.23008588250525E-02
(PID.TID 0000.0001)  cg2d: iter=    11 ; resid.=  1.04648972162699E-02
(PID.TID 0000.0001)  cg2d: iter=    12 ; resid.=  9.15529242466898E-03
(PID.TID 0000.0001)  cg2d: iter=    13 ; resid.=  8.25937501724863E-03
(PID.TID 0000.0001)  cg2d: iter=    14 ; resid.=  7.18983910932468E-03
(PID.TID 0000.0001)  cg2d: iter=    15 ; resid.=  5.91656913546381E-03
(PID.TID 0000.0001)  cg2d: iter=    16 ; resid.=  4.86474027021940E-03
(PID.TID 0000.0001)  cg2d: iter=    17 ; resid.=  4.45623317157659E-03
(PID.TID 0000.0001)  cg2d: iter=    18 ; resid.=  3.88352744607095E-03
(PID.TID 0000.0001)  cg2d: iter=    19 ; resid.=  3.12773535661905E-03
(PID.TID 0000.0001)  cg2d: iter=    20 ; resid.=  2.51983971356814E-03
(PID.TID 0000.0001)  cg2d: iter=    21 ; resid.=  1.89458386325090E-03
(PID.TID 0000.0001)  cg2d: iter=    22 ; resid.=  1.43975454908782E-03
(PID.TID 0000.0001)  cg2d: iter=    23 ; resid.=  1.14343858138832E-03
(PID.TID 0000.0001)  cg2d: iter=    24 ; resid.=  9.06531662237243E-04
(PID.TID 0000.0001)  cg2d: iter=    25 ; resid.=  7.22793972780810E-04
(PID.TID 0000.0001)  cg2d: iter=    26 ; resid.=  5.88671339160043E-04
(PID.TID 0000.0001)  cg2d: iter=    27 ; resid.=  5.23615244855613E-04
(PID.TID 0000.0001)  cg2d: iter=    28 ; resid.=  5.07747585482950E-04
(PID.TID 0000.0001)  cg2d: iter=    29 ; resid.=  4.64649697450889E-04
(PID.TID 0000.0001)  cg2d: iter=    30 ; resid.=  3.88851809345995E-04
(PID.TID 0000.0001)  cg2d: iter=    31 ; resid.=  3.45286251818476E-04
(PID.TID 0000.0001)  cg2d: iter=    32 ; resid.=  2.91862659446627E-04
(PID.TID 0000.0001)  cg2d: iter=    33 ; resid.=  2.37704476582787E-04
(PID.TID 0000.0001)  cg2d: iter=    34 ; resid.=  1.73796127263651E-04
(PID.TID 0000.0001)  cg2d: iter=    35 ; resid.=  1.29177793185000E-04
(PID.TID 0000.0001)  cg2d: iter=    36 ; resid.=  1.04593096075012E-04
(PID.TID 0000.0001)  cg2d: iter=    37 ; resid.=  8.83802049111271E-05
(PID.TID 0000.0001)  cg2d: iter=    38 ; resid.=  7.66454480998377E-05
(PID.TID 0000.0001)  cg2d: iter=    39 ; resid.=  6.18669703029790E-05
(PID.TID 0000.0001)  cg2d: iter=    40 ; resid.=  5.16730641898022E-05
(PID.TID 0000.0001)  cg2d: iter=    41 ; resid.=  4.48383153284825E-05
(PID.TID 0000.0001)  cg2d: iter=    42 ; resid.=  3.85096239416885E-05
(PID.TID 0000.0001)  cg2d: iter=    43 ; resid.=  3.36573243770378E-05
(PID.TID 0000.0001)  cg2d: iter=    44 ; resid.=  3.02188992377137E-05
(PID.TID 0000.0001)  cg2d: iter=    45 ; resid.=  2.73513063806126E-05
(PID.TID 0000.0001)  cg2d: iter=    46 ; resid.=  2.43580972897694E-05
(PID.TID 0000.0001)  cg2d: iter=    47 ; resid.=  2.03384344572722E-05
(PID.TID 0000.0001)  cg2d: iter=    48 ; resid.=  1.66224483315776E-05
(PID.TID 0000.0001)  cg2d: iter=    49 ; resid.=  1.27687899225277E-05
(PID.TID 0000.0001)  cg2d: iter=    50 ; resid.=  9.87647159704064E-06
(PID.TID 0000.0001)  cg2d: iter=    51 ; resid.=  7.67193575550935E-06
(PID.TID 0000.0001)  cg2d: iter=    52 ; resid.=  6.57848564818160E-06
(PID.TID 0000.0001)  cg2d: iter=    53 ; resid.=  5.66656902602890E-06
(PID.TID 0000.0001)  cg2d: iter=    54 ; resid.=  4.33118925039244E-06
(PID.TID 0000.0001)  cg2d: iter=    55 ; resid.=  3.26977505059909E-06
(PID.TID 0000.0001)  cg2d: iter=    56 ; resid.=  2.59902387286401E-06
(PID.TID 0000.0001)  cg2d: iter=    57 ; resid.=  2.06858524688426E-06
(PID.TID 0000.0001)  cg2d: iter=    58 ; resid.=  1.62906907785133E-06
(PID.TID 0000.0001)  cg2d: iter=    59 ; resid.=  1.29198437143655E-06
(PID.TID 0000.0001)  cg2d: iter=    60 ; resid.=  1.01213396333247E-06
(PID.TID 0000.0001)  cg2d: iter=    61 ; resid.=  8.79362358053562E-07
(PID.TID 0000.0001)  cg2d: iter=    62 ; resid.=  8.19822445205985E-07
(PID.TID 0000.0001)  cg2d: iter=    63 ; resid.=  6.81553798467953E-07
(PID.TID 0000.0001)  cg2d: iter=    64 ; resid.=  5.46623175728786E-07
(PID.TID 0000.0001)  cg2d: iter=    65 ; resid.=  4.40466305529359E-07
(PID.TID 0000.0001)  cg2d: iter=    66 ; resid.=  3.94178652681900E-07
(PID.TID 0000.0001)  cg2d: iter=    67 ; resid.=  3.47166683150424E-07
(PID.TID 0000.0001)  cg2d: iter=    68 ; resid.=  3.04704945969973E-07
(PID.TID 0000.0001)  cg2d: iter=    69 ; resid.=  2.42919577637391E-07
(PID.TID 0000.0001)  cg2d: iter=    70 ; resid.=  1.92398490906814E-07
(PID.TID 0000.0001)  cg2d: iter=    71 ; resid.=  1.62582896429087E-07
(PID.TID 0000.0001)  cg2d: iter=    72 ; resid.=  1.38424962919406E-07
(PID.TID 0000.0001)  cg2d: iter=    73 ; resid.=  1.12439669087369E-07
(PID.TID 0000.0001)  cg2d: iter=    74 ; resid.=  8.75494877104580E-08
(PID.TID 0000.0001)  cg2d: iter=    75 ; resid.=  7.06651064824269E-08
(PID.TID 0000.0001)  cg2d: iter=    76 ; resid.=  5.73632806635925E-08
(PID.TID 0000.0001)  cg2d: iter=    77 ; resid.=  4.51865667695954E-08
(PID.TID 0000.0001)  cg2d: iter=    78 ; resid.=  3.39011488213302E-08
(PID.TID 0000.0001)  cg2d: iter=    79 ; resid.=  2.64559038965323E-08
(PID.TID 0000.0001)  cg2d: iter=    80 ; resid.=  2.22984580857726E-08
(PID.TID 0000.0001)  cg2d: iter=    81 ; resid.=  1.79909362755700E-08
(PID.TID 0000.0001)  cg2d: iter=    82 ; resid.=  1.39275309462085E-08
(PID.TID 0000.0001)  cg2d: iter=    83 ; resid.=  1.04645449944670E-08
(PID.TID 0000.0001)  cg2d: iter=    84 ; resid.=  8.45340090688541E-09
(PID.TID 0000.0001)  cg2d: iter=    85 ; resid.=  6.48954594530891E-09
(PID.TID 0000.0001)  cg2d: iter=    86 ; resid.=  4.72373421248811E-09
(PID.TID 0000.0001)  cg2d: iter=    87 ; resid.=  3.52884691901310E-09
(PID.TID 0000.0001)  cg2d: iter=    88 ; resid.=  2.54998945546129E-09
(PID.TID 0000.0001)  cg2d: iter=    89 ; resid.=  1.98762670066291E-09
(PID.TID 0000.0001)  cg2d: iter=    90 ; resid.=  1.84238156973917E-09
(PID.TID 0000.0001)  cg2d: iter=    91 ; resid.=  1.79885819081694E-09
(PID.TID 0000.0001)  cg2d: iter=    92 ; resid.=  1.52927446459390E-09
(PID.TID 0000.0001)  cg2d: iter=    93 ; resid.=  1.18144390355757E-09
(PID.TID 0000.0001)  cg2d: iter=    94 ; resid.=  8.88554121339886E-10
(PID.TID 0000.0001)  cg2d: iter=    95 ; resid.=  7.13492216675434E-10
(PID.TID 0000.0001)  cg2d: iter=    96 ; resid.=  5.80978910492777E-10
(PID.TID 0000.0001)  cg2d: iter=    97 ; resid.=  4.58426820875917E-10
(PID.TID 0000.0001)  cg2d: iter=    98 ; resid.=  3.33979629560859E-10
(PID.TID 0000.0001)  cg2d: iter=    99 ; resid.=  2.30193029163435E-10
(PID.TID 0000.0001)  cg2d: iter=   100 ; resid.=  1.69364585224631E-10
(PID.TID 0000.0001)  cg2d: iter=   101 ; resid.=  1.31048606002770E-10
(PID.TID 0000.0001)  cg2d: iter=   102 ; resid.=  1.07548584802751E-10
(PID.TID 0000.0001)  cg2d: iter=   103 ; resid.=  8.31887104897668E-11
(PID.TID 0000.0001)  cg2d: iter=   104 ; resid.=  6.72166415186617E-11
(PID.TID 0000.0001)  cg2d: iter=   105 ; resid.=  5.87145007879465E-11
(PID.TID 0000.0001)  cg2d: iter=   106 ; resid.=  5.07245844755460E-11
(PID.TID 0000.0001)  cg2d: iter=   107 ; resid.=  4.26262274793381E-11
(PID.TID 0000.0001)  cg2d: iter=   108 ; resid.=  3.41731869871532E-11
(PID.TID 0000.0001)  cg2d: iter=   109 ; resid.=  2.76333560607801E-11
(PID.TID 0000.0001)  cg2d: iter=   110 ; resid.=  2.23805658696226E-11
(PID.TID 0000.0001)  cg2d: iter=   111 ; resid.=  1.74376970499068E-11
(PID.TID 0000.0001)  cg2d: iter=   112 ; resid.=  1.41261000125679E-11
(PID.TID 0000.0001)  cg2d: iter=   113 ; resid.=  1.14366721458719E-11
(PID.TID 0000.0001)  cg2d: iter=   114 ; resid.=  8.89192824390023E-12
(PID.TID 0000.0001)  cg2d: iter=   115 ; resid.=  7.12646227600944E-12
(PID.TID 0000.0001)  cg2d: iter=   116 ; resid.=  5.22835000076318E-12
(PID.TID 0000.0001)  cg2d: iter=   117 ; resid.=  3.79452031439217E-12
(PID.TID 0000.0001)  cg2d: iter=   118 ; resid.=  2.56135153768817E-12
(PID.TID 0000.0001)  cg2d: iter=   119 ; resid.=  1.94289567614349E-12
(PID.TID 0000.0001)  cg2d: iter=   120 ; resid.=  1.64235951472707E-12
(PID.TID 0000.0001)  cg2d: iter=   121 ; resid.=  1.34032297354215E-12
(PID.TID 0000.0001)  cg2d: iter=   122 ; resid.=  1.02849648952690E-12
(PID.TID 0000.0001)  cg2d: iter=   123 ; resid.=  7.41925482409645E-13
(PID.TID 0000.0001)  cg2d: iter=   124 ; resid.=  5.50923444817106E-13
(PID.TID 0000.0001)  cg2d: iter=   125 ; resid.=  4.36168948704522E-13
(PID.TID 0000.0001)  cg2d: iter=   126 ; resid.=  3.63369280762736E-13
(PID.TID 0000.0001)  cg2d: iter=   127 ; resid.=  2.72100762225746E-13
(PID.TID 0000.0001)  cg2d: iter=   128 ; resid.=  1.83208139011875E-13
(PID.TID 0000.0001)  cg2d: iter=   129 ; resid.=  1.15622004266346E-13
(PID.TID 0000.0001)  cg2d: iter=   130 ; resid.=  8.23544408165174E-14
DEBUG_STATS_RL:    cg2d_x (SOLVE_FOR_PRESSURE)  min= -1.62102399632184E+01
DEBUG_STATS_RL:    cg2d_x (SOLVE_FOR_PRESSURE)  max=  8.91838359238005E+00
DEBUG_STATS_RL:    cg2d_x (SOLVE_FOR_PRESSURE) mean= -1.65604161285859E+00
DEBUG_STATS_RL:    cg2d_x (SOLVE_FOR_PRESSURE) S.D.=  6.36683125228074E+00
(PID.TID 0000.0001)      cg2d_init_res =   4.13660489204917E-01
(PID.TID 0000.0001)      cg2d_iters(min,last) =      -1     130
(PID.TID 0000.0001)      cg2d_last_res =   8.23544408165174E-14
(PID.TID 0000.0001) // =======================================================
(PID.TID 0000.0001) // Begin MONITOR dynamic field statistics
(PID.TID 0000.0001) // =======================================================
(PID.TID 0000.0001) %MON time_tsnumber                =                    35
(PID.TID 0000.0001) %MON time_secondsf                =   3.0240000000000E+06
(PID.TID 0000.0001) %MON dynstat_eta_max              =   9.0911147730680E-01
(PID.TID 0000.0001) %MON dynstat_eta_min              =  -1.6524199758633E+00
(PID.TID 0000.0001) %MON dynstat_eta_mean             =  -2.6174509660627E-03
(PID.TID 0000.0001) %MON dynstat_eta_sd               =   5.6590678890419E-01
(PID.TID 0000.0001) %MON dynstat_eta_del2             =   2.1676903120555E-03
(PID.TID 0000.0001) %MON dynstat_uvel_max             =   1.1412249555692E-01
(PID.TID 0000.0001) %MON dynstat_uvel_min             =  -1.5996238094512E-01
(PID.TID 0000.0001) %MON dynstat_uvel_mean            =   1.4430179103944E-03
(PID.TID 0000.0001) %MON dynstat_uvel_sd              =   1.1347512089124E-02
(PID.TID 0000.0001) %MON dynstat_uvel_del2            =   7.5742713825478E-05
(PID.TID 0000.0001) %MON dynstat_vvel_max             =   1.0378669530820E-01
(PID.TID 0000.0001) %MON dynstat_vvel_min             =  -1.0784094354965E-01
(PID.TID 0000.0001) %MON dynstat_vvel_mean            =  -1.7415289081317E-06
(PID.TID 0000.0001) %MON dynstat_vvel_sd              =   8.3583485369814E-03
(PID.TID 0000.0001) %MON dynstat_vvel_del2            =   7.4578735321803E-05
(PID.TID 0000.0001) %MON dynstat_wvel_max             =   9.0222221314325E-05
(PID.TID 0000.0001) %MON dynstat_wvel_min             =  -1.1141154539781E-04
(PID.TID 0000.0001) %MON dynstat_wvel_mean            =   5.3631256441440E-22
(PID.TID 0000.0001) %MON dynstat_wvel_sd              =   1.3684201045366E-05
(PID.TID 0000.0001) %MON dynstat_wvel_del2            =   1.5958244142367E-07
(PID.TID 0000.0001) %MON dynstat_theta_max            =   2.9842060554187E+01
(PID.TID 0000.0001) %MON dynstat_theta_min            =  -1.9741851499181E+00
(PID.TID 0000.0001) %MON dynstat_theta_mean           =   3.6200321871836E+00
(PID.TID 0000.0001) %MON dynstat_theta_sd             =   4.4159610331681E+00
(PID.TID 0000.0001) %MON dynstat_theta_del2           =   4.7242139429626E-03
(PID.TID 0000.0001) %MON dynstat_salt_max             =   3.7454200765531E+01
(PID.TID 0000.0001) %MON dynstat_salt_min             =   2.9806371841314E+01
(PID.TID 0000.0001) %MON dynstat_salt_mean            =   3.4717289208726E+01
(PID.TID 0000.0001) %MON dynstat_salt_sd              =   2.9620260320427E-01
(PID.TID 0000.0001) %MON dynstat_salt_del2            =   9.8289133606788E-04
(PID.TID 0000.0001) %MON dynstat_sst_max              =   2.9842060554187E+01
(PID.TID 0000.0001) %MON dynstat_sst_min              =  -1.9741851499181E+00
(PID.TID 0000.0001) %MON dynstat_sst_mean             =   1.8673608755629E+01
(PID.TID 0000.0001) %MON dynstat_sst_sd               =   9.0861949813912E+00
(PID.TID 0000.0001) %MON dynstat_sst_del2             =   2.5240210311194E-02
(PID.TID 0000.0001) %MON dynstat_sss_max              =   3.7419267901853E+01
(PID.TID 0000.0001) %MON dynstat_sss_min              =   2.9806371841314E+01
(PID.TID 0000.0001) %MON dynstat_sss_mean             =   3.4843261642833E+01
(PID.TID 0000.0001) %MON dynstat_sss_sd               =   9.7513425762094E-01
(PID.TID 0000.0001) %MON dynstat_sss_del2             =   7.7694317752916E-03
(PID.TID 0000.0001) %MON forcing_qnet_max             =   3.7855096944173E+02
(PID.TID 0000.0001) %MON forcing_qnet_min             =  -1.7546868082682E+02
(PID.TID 0000.0001) %MON forcing_qnet_mean            =  -1.4899251820380E+01
(PID.TID 0000.0001) %MON forcing_qnet_sd              =   9.0096938655160E+01
(PID.TID 0000.0001) %MON forcing_qnet_del2            =   9.6402608526261E-01
(PID.TID 0000.0001) %MON forcing_qsw_max              =   0.0000000000000E+00
(PID.TID 0000.0001) %MON forcing_qsw_min              =   0.0000000000000E+00
(PID.TID 0000.0001) %MON forcing_qsw_mean             =   0.0000000000000E+00
(PID.TID 0000.0001) %MON forcing_qsw_sd               =   0.0000000000000E+00
(PID.TID 0000.0001) %MON forcing_qsw_del2             =   0.0000000000000E+00
(PID.TID 0000.0001) %MON forcing_empmr_max            =   7.6206534060930E-05
(PID.TID 0000.0001) %MON forcing_empmr_min            =  -7.7669197177480E-05
(PID.TID 0000.0001) %MON forcing_empmr_mean           =   9.3590261004984E-07
(PID.TID 0000.0001) %MON forcing_empmr_sd             =   2.8090956758980E-05
(PID.TID 0000.0001) %MON forcing_empmr_del2           =   3.5396239938418E-07
(PID.TID 0000.0001) %MON forcing_fu_max               =   2.8937678635120E-01
(PID.TID 0000.0001) %MON forcing_fu_min               =  -1.9747318923473E-01
(PID.TID 0000.0001) %MON forcing_fu_mean              =   1.7033439246477E-02
(PID.TID 0000.0001) %MON forcing_fu_sd                =   9.0494937497899E-02
(PID.TID 0000.0001) %MON forcing_fu_del2              =   6.7697458152225E-04
(PID.TID 0000.0001) %MON forcing_fv_max               =   1.8480933904648E-01
(PID.TID 0000.0001) %MON forcing_fv_min               =  -1.6478836735090E-01
(PID.TID 0000.0001) %MON forcing_fv_mean              =  -6.4988549670934E-03
(PID.TID 0000.0001) %MON forcing_fv_sd                =   4.4598978531363E-02
(PID.TID 0000.0001) %MON forcing_fv_del2              =   4.7620990539496E-04
(PID.TID 0000.0001) %MON trAdv_CFL_u_max              =   3.6793817046903E-02
(PID.TID 0000.0001) %MON trAdv_CFL_v_max              =   2.1472343133668E-02
(PID.TID 0000.0001) %MON trAdv_CFL_w_max              =   3.9764819032221E-02
(PID.TID 0000.0001) %MON advcfl_uvel_max              =   3.9022794749183E-02
(PID.TID 0000.0001) %MON advcfl_vvel_max              =   2.0951765770901E-02
(PID.TID 0000.0001) %MON advcfl_wvel_max              =   3.1379953751657E-02
(PID.TID 0000.0001) %MON advcfl_W_hf_max              =   3.8104229555583E-02
(PID.TID 0000.0001) %MON pe_b_mean                    =   4.0980787416705E-04
(PID.TID 0000.0001) %MON ke_max                       =   1.3893371208591E-02
(PID.TID 0000.0001) %MON ke_mean                      =   9.0810488491910E-05
(PID.TID 0000.0001) %MON ke_vol                       =   1.3226782436723E+18
(PID.TID 0000.0001) %MON vort_r_min                   =  -3.8121152119109E-07
(PID.TID 0000.0001) %MON vort_r_max                   =   4.1401592883268E-07
(PID.TID 0000.0001) %MON vort_a_mean                  =  -2.5274806991943E-05
(PID.TID 0000.0001) %MON vort_a_sd                    =   7.3604563775254E-05
(PID.TID 0000.0001) %MON vort_p_mean                  =  -3.1845655288542E-05
(PID.TID 0000.0001) %MON vort_p_sd                    =   1.3162500184545E-04
(PID.TID 0000.0001) %MON surfExpan_theta_mean         =   2.3930228374280E-07
(PID.TID 0000.0001) %MON surfExpan_salt_mean          =   2.7221108411398E-08
(PID.TID 0000.0001) // =======================================================
(PID.TID 0000.0001) // End MONITOR dynamic field statistics
(PID.TID 0000.0001) // =======================================================
 EXTERNAL_FIELDS_LOAD,        35 : iP,iLd,i0,i1=    1    2    1    2 ; Wght=  0.3333333333  0.6666666667
 EXTERNAL_FIELDS_LOAD: (fu0,1),fu,fv= -3.5633E-02 -1.4435E-02 -2.1501E-02 -3.0843E-02
 EXTERNAL_FIELDS_LOAD: SST,SSS,Q,E-P= -3.5096E-02  3.4519E+01  2.4891E+02  9.4637E-06
DEBUG_STATS_RL:          Uvel (THERMODYNAMICS)  min= -1.59962380945122E-01
DEBUG_STATS_RL:          Uvel (THERMODYNAMICS)  max=  1.14122495556921E-01
DEBUG_STATS_RL:          Uvel (THERMODYNAMICS) mean=  2.28089200471329E-03
DEBUG_STATS_RL:          Uvel (THERMODYNAMICS) S.D.=  1.87950564953257E-02
DEBUG_STATS_RL:          Vvel (THERMODYNAMICS)  min= -1.07840943549654E-01
DEBUG_STATS_RL:          Vvel (THERMODYNAMICS)  max=  1.03786695308201E-01
DEBUG_STATS_RL:          Vvel (THERMODYNAMICS) mean= -3.13762708603655E-04
DEBUG_STATS_RL:          Vvel (THERMODYNAMICS) S.D.=  1.28977649071997E-02
DEBUG_STATS_RL:          Wvel (THERMODYNAMICS)  min= -1.11411545397808E-04
DEBUG_STATS_RL:          Wvel (THERMODYNAMICS)  max=  9.02222213143246E-05
DEBUG_STATS_RL:          Wvel (THERMODYNAMICS) mean= -3.45231759060866E-07
DEBUG_STATS_RL:          Wvel (THERMODYNAMICS) S.D.=  1.23529991826591E-05
DEBUG_STATS_RL:         Theta (THERMODYNAMICS)  min= -1.97304741211891E+00
DEBUG_STATS_RL:         Theta (THERMODYNAMICS)  max=  2.98542916644971E+01
DEBUG_STATS_RL:         Theta (THERMODYNAMICS) mean=  3.20649248698161E+00
DEBUG_STATS_RL:         Theta (THERMODYNAMICS) S.D.=  5.85467436832940E+00
DEBUG_STATS_RL:          Salt (THERMODYNAMICS)  min= -6.85624969102121E-04
DEBUG_STATS_RL:          Salt (THERMODYNAMICS)  max=  3.74541448661057E+01
DEBUG_STATS_RL:          Salt (THERMODYNAMICS) mean=  1.88441195768713E+01
DEBUG_STATS_RL:          Salt (THERMODYNAMICS) S.D.=  1.73003230430921E+01
DEBUG_STATS_RL:         GtNm1 (THERMODYNAMICS)  min= -2.04450305237097E-06
DEBUG_STATS_RL:         GtNm1 (THERMODYNAMICS)  max=  2.44395149931113E-06
DEBUG_STATS_RL:         GtNm1 (THERMODYNAMICS) mean=  9.54348947333686E-09
DEBUG_STATS_RL:         GtNm1 (THERMODYNAMICS) S.D.=  1.77713910735970E-07
DEBUG_STATS_RL:         GsNm1 (THERMODYNAMICS)  min= -3.56282883666467E-07
DEBUG_STATS_RL:         GsNm1 (THERMODYNAMICS)  max=  3.33084591593576E-07
DEBUG_STATS_RL:         GsNm1 (THERMODYNAMICS) mean= -2.98734691663860E-10
DEBUG_STATS_RL:         GsNm1 (THERMODYNAMICS) S.D.=  1.62756482961599E-08
DEBUG_STATS_RL:                EtaN (DYNAMICS)  min= -1.65241997586328E+00
DEBUG_STATS_RL:                EtaN (DYNAMICS)  max=  9.09111477306796E-01
DEBUG_STATS_RL:                EtaN (DYNAMICS) mean= -1.68811581331151E-01
DEBUG_STATS_RL:                EtaN (DYNAMICS) S.D.=  6.49014398805376E-01
DEBUG_STATS_RL:                Uvel (DYNAMICS)  min= -1.59962380945122E-01
DEBUG_STATS_RL:                Uvel (DYNAMICS)  max=  1.14122495556921E-01
DEBUG_STATS_RL:                Uvel (DYNAMICS) mean=  2.28089200471329E-03
DEBUG_STATS_RL:                Uvel (DYNAMICS) S.D.=  1.87950564953257E-02
DEBUG_STATS_RL:                Vvel (DYNAMICS)  min= -1.07840943549654E-01
DEBUG_STATS_RL:                Vvel (DYNAMICS)  max=  1.03786695308201E-01
DEBUG_STATS_RL:                Vvel (DYNAMICS) mean= -3.13762708603655E-04
DEBUG_STATS_RL:                Vvel (DYNAMICS) S.D.=  1.28977649071997E-02
DEBUG_STATS_RL:                Wvel (DYNAMICS)  min= -1.11411545397808E-04
DEBUG_STATS_RL:                Wvel (DYNAMICS)  max=  9.02222213143246E-05
DEBUG_STATS_RL:                Wvel (DYNAMICS) mean= -3.45231759060866E-07
DEBUG_STATS_RL:                Wvel (DYNAMICS) S.D.=  1.23529991826591E-05
DEBUG_STATS_RL:               Theta (DYNAMICS)  min= -1.97304741211891E+00
DEBUG_STATS_RL:               Theta (DYNAMICS)  max=  2.98542916644971E+01
DEBUG_STATS_RL:               Theta (DYNAMICS) mean=  3.20649248698161E+00
DEBUG_STATS_RL:               Theta (DYNAMICS) S.D.=  5.85467436832940E+00
DEBUG_STATS_RL:                Salt (DYNAMICS)  min= -6.85624969102121E-04
DEBUG_STATS_RL:                Salt (DYNAMICS)  max=  3.74541448661057E+01
DEBUG_STATS_RL:                Salt (DYNAMICS) mean=  1.88441195768713E+01
DEBUG_STATS_RL:                Salt (DYNAMICS) S.D.=  1.73003230430921E+01
DEBUG_STATS_RL:                  Gu (DYNAMICS)  min= -1.58914012732339E-01
DEBUG_STATS_RL:                  Gu (DYNAMICS)  max=  1.19190571813113E-01
DEBUG_STATS_RL:                  Gu (DYNAMICS) mean=  2.37997540189596E-03
DEBUG_STATS_RL:                  Gu (DYNAMICS) S.D.=  1.97940741808069E-02
DEBUG_STATS_RL:                  Gv (DYNAMICS)  min= -1.04494464765160E-01
DEBUG_STATS_RL:                  Gv (DYNAMICS)  max=  9.96758237057783E-02
DEBUG_STATS_RL:                  Gv (DYNAMICS) mean=  1.89307347883237E-03
DEBUG_STATS_RL:                  Gv (DYNAMICS) S.D.=  1.32577284378369E-02
DEBUG_STATS_RL:               GuNm1 (DYNAMICS)  min= -7.93072719216410E-06
DEBUG_STATS_RL:               GuNm1 (DYNAMICS)  max=  7.91210782509070E-06
DEBUG_STATS_RL:               GuNm1 (DYNAMICS) mean= -2.07856852131949E-08
DEBUG_STATS_RL:               GuNm1 (DYNAMICS) S.D.=  1.18146697970044E-06
DEBUG_STATS_RL:               GvNm1 (DYNAMICS)  min= -1.05279279153960E-05
DEBUG_STATS_RL:               GvNm1 (DYNAMICS)  max=  1.63970220159095E-05
DEBUG_STATS_RL:               GvNm1 (DYNAMICS) mean=  7.55382332827152E-07
DEBUG_STATS_RL:               GvNm1 (DYNAMICS) S.D.=  2.62342824293072E-06
DEBUG_STATS_RL:               GtNm1 (DYNAMICS)  min= -2.04450305237097E-06
DEBUG_STATS_RL:               GtNm1 (DYNAMICS)  max=  2.44395149931113E-06
DEBUG_STATS_RL:               GtNm1 (DYNAMICS) mean=  9.54348947333686E-09
DEBUG_STATS_RL:               GtNm1 (DYNAMICS) S.D.=  1.77713910735970E-07
DEBUG_STATS_RL:               GsNm1 (DYNAMICS)  min= -3.56282883666467E-07
DEBUG_STATS_RL:               GsNm1 (DYNAMICS)  max=  3.33084591593576E-07
DEBUG_STATS_RL:               GsNm1 (DYNAMICS) mean= -2.98734691663860E-10
DEBUG_STATS_RL:               GsNm1 (DYNAMICS) S.D.=  1.62756482961599E-08
DEBUG_STATS_RL:    cg2d_b (SOLVE_FOR_PRESSURE)  min= -1.94382801645306E+04
DEBUG_STATS_RL:    cg2d_b (SOLVE_FOR_PRESSURE)  max=  1.92554948296344E+04
DEBUG_STATS_RL:    cg2d_b (SOLVE_FOR_PRESSURE) mean=  2.58357048950116E+00
DEBUG_STATS_RL:    cg2d_b (SOLVE_FOR_PRESSURE) S.D.=  3.71055412780486E+03
 cg2d: Sum(rhs),rhsMax =   3.07690064788181E-01  1.27675828575747E+00
(PID.TID 0000.0001)  cg2d: iter=     1 ; resid.=  9.99317033483512E-02
(PID.TID 0000.0001)  cg2d: iter=     2 ; resid.=  5.18779543740254E-02
(PID.TID 0000.0001)  cg2d: iter=     3 ; resid.=  3.64815593484660E-02
(PID.TID 0000.0001)  cg2d: iter=     4 ; resid.=  3.36928442872322E-02
(PID.TID 0000.0001)  cg2d: iter=     5 ; resid.=  3.28447029496277E-02
(PID.TID 0000.0001)  cg2d: iter=     6 ; resid.=  2.90889808279370E-02
(PID.TID 0000.0001)  cg2d: iter=     7 ; resid.=  2.35826244661820E-02
(PID.TID 0000.0001)  cg2d: iter=     8 ; resid.=  1.87499622705146E-02
(PID.TID 0000.0001)  cg2d: iter=     9 ; resid.=  1.47353965148897E-02
(PID.TID 0000.0001)  cg2d: iter=    10 ; resid.=  1.18871566521139E-02
(PID.TID 0000.0001)  cg2d: iter=    11 ; resid.=  1.00963966406064E-02
(PID.TID 0000.0001)  cg2d: iter=    12 ; resid.=  8.78386511227921E-03
(PID.TID 0000.0001)  cg2d: iter=    13 ; resid.=  7.82889744103718E-03
(PID.TID 0000.0001)  cg2d: iter=    14 ; resid.=  6.93745133892833E-03
(PID.TID 0000.0001)  cg2d: iter=    15 ; resid.=  5.76614453194031E-03
(PID.TID 0000.0001)  cg2d: iter=    16 ; resid.=  4.78361694086403E-03
(PID.TID 0000.0001)  cg2d: iter=    17 ; resid.=  4.39528568716240E-03
(PID.TID 0000.0001)  cg2d: iter=    18 ; resid.=  3.87395128260125E-03
(PID.TID 0000.0001)  cg2d: iter=    19 ; resid.=  3.15753739736323E-03
(PID.TID 0000.0001)  cg2d: iter=    20 ; resid.=  2.53579957799946E-03
(PID.TID 0000.0001)  cg2d: iter=    21 ; resid.=  1.87589237946498E-03
(PID.TID 0000.0001)  cg2d: iter=    22 ; resid.=  1.42795658436682E-03
(PID.TID 0000.0001)  cg2d: iter=    23 ; resid.=  1.14052534524619E-03
(PID.TID 0000.0001)  cg2d: iter=    24 ; resid.=  9.14715962131959E-04
(PID.TID 0000.0001)  cg2d: iter=    25 ; resid.=  7.42916498587765E-04
(PID.TID 0000.0001)  cg2d: iter=    26 ; resid.=  6.08132869760435E-04
(PID.TID 0000.0001)  cg2d: iter=    27 ; resid.=  5.38127388143113E-04
(PID.TID 0000.0001)  cg2d: iter=    28 ; resid.=  5.24561763055747E-04
(PID.TID 0000.0001)  cg2d: iter=    29 ; resid.=  4.72990035533299E-04
(PID.TID 0000.0001)  cg2d: iter=    30 ; resid.=  3.90785174477697E-04
(PID.TID 0000.0001)  cg2d: iter=    31 ; resid.=  3.41039259523247E-04
(PID.TID 0000.0001)  cg2d: iter=    32 ; resid.=  2.87352660263240E-04
(PID.TID 0000.0001)  cg2d: iter=    33 ; resid.=  2.32132835747167E-04
(PID.TID 0000.0001)  cg2d: iter=    34 ; resid.=  1.69960983746109E-04
(PID.TID 0000.0001)  cg2d: iter=    35 ; resid.=  1.24093290845921E-04
(PID.TID 0000.0001)  cg2d: iter=    36 ; resid.=  9.96909173564962E-05
(PID.TID 0000.0001)  cg2d: iter=    37 ; resid.=  8.63170667095641E-05
(PID.TID 0000.0001)  cg2d: iter=    38 ; resid.=  7.74131797361516E-05
(PID.TID 0000.0001)  cg2d: iter=    39 ; resid.=  6.41541952840475E-05
(PID.TID 0000.0001)  cg2d: iter=    40 ; resid.=  5.30900907048362E-05
(PID.TID 0000.0001)  cg2d: iter=    41 ; resid.=  4.50252867947929E-05
(PID.TID 0000.0001)  cg2d: iter=    42 ; resid.=  3.93417766357959E-05
(PID.TID 0000.0001)  cg2d: iter=    43 ; resid.=  3.51356901007290E-05
(PID.TID 0000.0001)  cg2d: iter=    44 ; resid.=  3.17085756836969E-05
(PID.TID 0000.0001)  cg2d: iter=    45 ; resid.=  2.81297161372386E-05
(PID.TID 0000.0001)  cg2d: iter=    46 ; resid.=  2.46269555364785E-05
(PID.TID 0000.0001)  cg2d: iter=    47 ; resid.=  2.01482824943735E-05
(PID.TID 0000.0001)  cg2d: iter=    48 ; resid.=  1.61512322025008E-05
(PID.TID 0000.0001)  cg2d: iter=    49 ; resid.=  1.21265383458851E-05
(PID.TID 0000.0001)  cg2d: iter=    50 ; resid.=  9.26553729634748E-06
(PID.TID 0000.0001)  cg2d: iter=    51 ; resid.=  7.24773564156633E-06
(PID.TID 0000.0001)  cg2d: iter=    52 ; resid.=  6.41057892471922E-06
(PID.TID 0000.0001)  cg2d: iter=    53 ; resid.=  5.69532202496358E-06
(PID.TID 0000.0001)  cg2d: iter=    54 ; resid.=  4.41599921460741E-06
(PID.TID 0000.0001)  cg2d: iter=    55 ; resid.=  3.38639577533923E-06
(PID.TID 0000.0001)  cg2d: iter=    56 ; resid.=  2.75214068881742E-06
(PID.TID 0000.0001)  cg2d: iter=    57 ; resid.=  2.27874194246397E-06
(PID.TID 0000.0001)  cg2d: iter=    58 ; resid.=  1.89655156184386E-06
(PID.TID 0000.0001)  cg2d: iter=    59 ; resid.=  1.58184973660703E-06
(PID.TID 0000.0001)  cg2d: iter=    60 ; resid.=  1.26756167849246E-06
(PID.TID 0000.0001)  cg2d: iter=    61 ; resid.=  1.07493891141783E-06
(PID.TID 0000.0001)  cg2d: iter=    62 ; resid.=  9.37563339599853E-07
(PID.TID 0000.0001)  cg2d: iter=    63 ; resid.=  7.42975441295218E-07
(PID.TID 0000.0001)  cg2d: iter=    64 ; resid.=  5.69105694009179E-07
(PID.TID 0000.0001)  cg2d: iter=    65 ; resid.=  4.20025220584660E-07
(PID.TID 0000.0001)  cg2d: iter=    66 ; resid.=  3.41628784033450E-07
(PID.TID 0000.0001)  cg2d: iter=    67 ; resid.=  2.91240774760873E-07
(PID.TID 0000.0001)  cg2d: iter=    68 ; resid.=  2.52208463962028E-07
(PID.TID 0000.0001)  cg2d: iter=    69 ; resid.=  2.01602061784488E-07
(PID.TID 0000.0001)  cg2d: iter=    70 ; resid.=  1.55398657983587E-07
(PID.TID 0000.0001)  cg2d: iter=    71 ; resid.=  1.27661438052287E-07
(PID.TID 0000.0001)  cg2d: iter=    72 ; resid.=  1.10453506461782E-07
(PID.TID 0000.0001)  cg2d: iter=    73 ; resid.=  9.56686720129275E-08
(PID.TID 0000.0001)  cg2d: iter=    74 ; resid.=  7.87650678282917E-08
(PID.TID 0000.0001)  cg2d: iter=    75 ; resid.=  6.98517891135517E-08
(PID.TID 0000.0001)  cg2d: iter=    76 ; resid.=  6.10284964549517E-08
(PID.TID 0000.0001)  cg2d: iter=    77 ; resid.=  5.16515543909627E-08
(PID.TID 0000.0001)  cg2d: iter=    78 ; resid.=  4.08257927916909E-08
(PID.TID 0000.0001)  cg2d: iter=    79 ; resid.=  3.34716210280430E-08
(PID.TID 0000.0001)  cg2d: iter=    80 ; resid.=  2.93736891480229E-08
(PID.TID 0000.0001)  cg2d: iter=    81 ; resid.=  2.45116242316795E-08
(PID.TID 0000.0001)  cg2d: iter=    82 ; resid.=  1.91790376647993E-08
(PID.TID 0000.0001)  cg2d: iter=    83 ; resid.=  1.44746094918523E-08
(PID.TID 0000.0001)  cg2d: iter=    84 ; resid.=  1.16108476480489E-08
(PID.TID 0000.0001)  cg2d: iter=    85 ; resid.=  8.68960169109331E-09
(PID.TID 0000.0001)  cg2d: iter=    86 ; resid.=  6.08055098074379E-09
(PID.TID 0000.0001)  cg2d: iter=    87 ; resid.=  4.33865233239700E-09
(PID.TID 0000.0001)  cg2d: iter=    88 ; resid.=  2.99795287385495E-09
(PID.TID 0000.0001)  cg2d: iter=    89 ; resid.=  2.24055628252742E-09
(PID.TID 0000.0001)  cg2d: iter=    90 ; resid.=  1.99577392688856E-09
(PID.TID 0000.0001)  cg2d: iter=    91 ; resid.=  1.90046318235193E-09
(PID.TID 0000.0001)  cg2d: iter=    92 ; resid.=  1.58411862392364E-09
(PID.TID 0000.0001)  cg2d: iter=    93 ; resid.=  1.17149572460746E-09
(PID.TID 0000.0001)  cg2d: iter=    94 ; resid.=  8.18949407243321E-10
(PID.TID 0000.0001)  cg2d: iter=    95 ; resid.=  6.12876805749596E-10
(PID.TID 0000.0001)  cg2d: iter=    96 ; resid.=  4.87793927046977E-10
(PID.TID 0000.0001)  cg2d: iter=    97 ; resid.=  3.81787223193261E-10
(PID.TID 0000.0001)  cg2d: iter=    98 ; resid.=  2.83336940201236E-10
(PID.TID 0000.0001)  cg2d: iter=    99 ; resid.=  1.97443049884694E-10
(PID.TID 0000.0001)  cg2d: iter=   100 ; resid.=  1.41125250443466E-10
(PID.TID 0000.0001)  cg2d: iter=   101 ; resid.=  1.04758801935603E-10
(PID.TID 0000.0001)  cg2d: iter=   102 ; resid.=  8.53652050345095E-11
(PID.TID 0000.0001)  cg2d: iter=   103 ; resid.=  6.81439612832654E-11
(PID.TID 0000.0001)  cg2d: iter=   104 ; resid.=  5.57857056415800E-11
(PID.TID 0000.0001)  cg2d: iter=   105 ; resid.=  4.79579985457971E-11
(PID.TID 0000.0001)  cg2d: iter=   106 ; resid.=  4.09734832178889E-11
(PID.TID 0000.0001)  cg2d: iter=   107 ; resid.=  3.49344033570719E-11
(PID.TID 0000.0001)  cg2d: iter=   108 ; resid.=  2.82411102030820E-11
(PID.TID 0000.0001)  cg2d: iter=   109 ; resid.=  2.28000307657557E-11
(PID.TID 0000.0001)  cg2d: iter=   110 ; resid.=  1.78818898469501E-11
(PID.TID 0000.0001)  cg2d: iter=   111 ; resid.=  1.38888089966327E-11
(PID.TID 0000.0001)  cg2d: iter=   112 ; resid.=  1.15182178536602E-11
(PID.TID 0000.0001)  cg2d: iter=   113 ; resid.=  9.72157376667004E-12
(PID.TID 0000.0001)  cg2d: iter=   114 ; resid.=  7.75446529070358E-12
(PID.TID 0000.0001)  cg2d: iter=   115 ; resid.=  6.39687673398582E-12
(PID.TID 0000.0001)  cg2d: iter=   116 ; resid.=  5.02663064582568E-12
(PID.TID 0000.0001)  cg2d: iter=   117 ; resid.=  3.91531992800795E-12
(PID.TID 0000.0001)  cg2d: iter=   118 ; resid.=  2.77824598351697E-12
(PID.TID 0000.0001)  cg2d: iter=   119 ; resid.=  2.18515796049507E-12
(PID.TID 0000.0001)  cg2d: iter=   120 ; resid.=  1.89695294579406E-12
(PID.TID 0000.0001)  cg2d: iter=   121 ; resid.=  1.53672321313960E-12
(PID.TID 0000.0001)  cg2d: iter=   122 ; resid.=  1.14113020979768E-12
(PID.TID 0000.0001)  cg2d: iter=   123 ; resid.=  7.91934295453098E-13
(PID.TID 0000.0001)  cg2d: iter=   124 ; resid.=  5.65864511471488E-13
(PID.TID 0000.0001)  cg2d: iter=   125 ; resid.=  4.36428983108272E-13
(PID.TID 0000.0001)  cg2d: iter=   126 ; resid.=  3.66774678430377E-13
(PID.TID 0000.0001)  cg2d: iter=   127 ; resid.=  2.86007791288413E-13
(PID.TID 0000.0001)  cg2d: iter=   128 ; resid.=  2.01445067109622E-13
(PID.TID 0000.0001)  cg2d: iter=   129 ; resid.=  1.29101833249930E-13
(PID.TID 0000.0001)  cg2d: iter=   130 ; resid.=  9.20715797121663E-14
DEBUG_STATS_RL:    cg2d_x (SOLVE_FOR_PRESSURE)  min= -1.61122501997724E+01
DEBUG_STATS_RL:    cg2d_x (SOLVE_FOR_PRESSURE)  max=  8.87141061874327E+00
DEBUG_STATS_RL:    cg2d_x (SOLVE_FOR_PRESSURE) mean= -1.66336082445986E+00
DEBUG_STATS_RL:    cg2d_x (SOLVE_FOR_PRESSURE) S.D.=  6.38099690046280E+00
(PID.TID 0000.0001)      cg2d_init_res =   4.14793995889235E-01
(PID.TID 0000.0001)      cg2d_iters(min,last) =      -1     130
(PID.TID 0000.0001)      cg2d_last_res =   9.20715797121663E-14
(PID.TID 0000.0001) // =======================================================
(PID.TID 0000.0001) // Begin MONITOR dynamic field statistics
(PID.TID 0000.0001) // =======================================================
(PID.TID 0000.0001) %MON time_tsnumber                =                    36
(PID.TID 0000.0001) %MON time_secondsf                =   3.1104000000000E+06
(PID.TID 0000.0001) %MON dynstat_eta_max              =   9.0432320272610E-01
(PID.TID 0000.0001) %MON dynstat_eta_min              =  -1.6424312130248E+00
(PID.TID 0000.0001) %MON dynstat_eta_mean             =  -2.6956354536300E-03
(PID.TID 0000.0001) %MON dynstat_eta_sd               =   5.6677223718263E-01
(PID.TID 0000.0001) %MON dynstat_eta_del2             =   2.1652753414793E-03
(PID.TID 0000.0001) %MON dynstat_uvel_max             =   1.2293238496833E-01
(PID.TID 0000.0001) %MON dynstat_uvel_min             =  -1.5819562628049E-01
(PID.TID 0000.0001) %MON dynstat_uvel_mean            =   1.4633358316446E-03
(PID.TID 0000.0001) %MON dynstat_uvel_sd              =   1.1684624100083E-02
(PID.TID 0000.0001) %MON dynstat_uvel_del2            =   7.7013454421648E-05
(PID.TID 0000.0001) %MON dynstat_vvel_max             =   1.0326344244372E-01
(PID.TID 0000.0001) %MON dynstat_vvel_min             =  -1.0979341207322E-01
(PID.TID 0000.0001) %MON dynstat_vvel_mean            =  -1.5324550146083E-06
(PID.TID 0000.0001) %MON dynstat_vvel_sd              =   8.4940890809485E-03
(PID.TID 0000.0001) %MON dynstat_vvel_del2            =   7.5136367889590E-05
(PID.TID 0000.0001) %MON dynstat_wvel_max             =   8.7022237446870E-05
(PID.TID 0000.0001) %MON dynstat_wvel_min             =  -1.0827027487159E-04
(PID.TID 0000.0001) %MON dynstat_wvel_mean            =  -1.0834828946987E-22
(PID.TID 0000.0001) %MON dynstat_wvel_sd              =   1.3783674174660E-05
(PID.TID 0000.0001) %MON dynstat_wvel_del2            =   1.5692310502966E-07
(PID.TID 0000.0001) %MON dynstat_theta_max            =   2.9854291664497E+01
(PID.TID 0000.0001) %MON dynstat_theta_min            =  -1.9730474121189E+00
(PID.TID 0000.0001) %MON dynstat_theta_mean           =   3.6200908581482E+00
(PID.TID 0000.0001) %MON dynstat_theta_sd             =   4.4161022070350E+00
(PID.TID 0000.0001) %MON dynstat_theta_del2           =   4.7088919204606E-03
(PID.TID 0000.0001) %MON dynstat_salt_max             =   3.7454144866106E+01
(PID.TID 0000.0001) %MON dynstat_salt_min             =   2.9806684018815E+01
(PID.TID 0000.0001) %MON dynstat_salt_mean            =   3.4717289995205E+01
(PID.TID 0000.0001) %MON dynstat_salt_sd              =   2.9620306732492E-01
(PID.TID 0000.0001) %MON dynstat_salt_del2            =   9.8090058455065E-04
(PID.TID 0000.0001) %MON dynstat_sst_max              =   2.9854291664497E+01
(PID.TID 0000.0001) %MON dynstat_sst_min              =  -1.9730474121189E+00
(PID.TID 0000.0001) %MON dynstat_sst_mean             =   1.8681340150559E+01
(PID.TID 0000.0001) %MON dynstat_sst_sd               =   9.0833582874612E+00
(PID.TID 0000.0001) %MON dynstat_sst_del2             =   2.5176983859996E-02
(PID.TID 0000.0001) %MON dynstat_sss_max              =   3.7417465159032E+01
(PID.TID 0000.0001) %MON dynstat_sss_min              =   2.9806684018815E+01
(PID.TID 0000.0001) %MON dynstat_sss_mean             =   3.4843162178975E+01
(PID.TID 0000.0001) %MON dynstat_sss_sd               =   9.7517322308906E-01
(PID.TID 0000.0001) %MON dynstat_sss_del2             =   7.7514421521426E-03
(PID.TID 0000.0001) %MON forcing_qnet_max             =   3.7523188273112E+02
(PID.TID 0000.0001) %MON forcing_qnet_min             =  -1.7522916158040E+02
(PID.TID 0000.0001) %MON forcing_qnet_mean            =  -1.4814342652977E+01
(PID.TID 0000.0001) %MON forcing_qnet_sd              =   8.9107408305075E+01
(PID.TID 0000.0001) %MON forcing_qnet_del2            =   9.6203928083516E-01
(PID.TID 0000.0001) %MON forcing_qsw_max              =   0.0000000000000E+00
(PID.TID 0000.0001) %MON forcing_qsw_min              =   0.0000000000000E+00
(PID.TID 0000.0001) %MON forcing_qsw_mean             =   0.0000000000000E+00
(PID.TID 0000.0001) %MON forcing_qsw_sd               =   0.0000000000000E+00
(PID.TID 0000.0001) %MON forcing_qsw_del2             =   0.0000000000000E+00
(PID.TID 0000.0001) %MON forcing_empmr_max            =   7.5892444328929E-05
(PID.TID 0000.0001) %MON forcing_empmr_min            =  -7.7748841439037E-05
(PID.TID 0000.0001) %MON forcing_empmr_mean           =   9.3658500730980E-07
(PID.TID 0000.0001) %MON forcing_empmr_sd             =   2.8071739080641E-05
(PID.TID 0000.0001) %MON forcing_empmr_del2           =   3.5384713842938E-07
(PID.TID 0000.0001) %MON forcing_fu_max               =   2.9076394438744E-01
(PID.TID 0000.0001) %MON forcing_fu_min               =  -1.9913311302662E-01
(PID.TID 0000.0001) %MON forcing_fu_mean              =   1.7087739461946E-02
(PID.TID 0000.0001) %MON forcing_fu_sd                =   9.0639654675392E-02
(PID.TID 0000.0001) %MON forcing_fu_del2              =   6.8057641695719E-04
(PID.TID 0000.0001) %MON forcing_fv_max               =   1.8370781838894E-01
(PID.TID 0000.0001) %MON forcing_fv_min               =  -1.6796026627223E-01
(PID.TID 0000.0001) %MON forcing_fv_mean              =  -6.5641158738086E-03
(PID.TID 0000.0001) %MON forcing_fv_sd                =   4.4559893516707E-02
(PID.TID 0000.0001) %MON forcing_fv_del2              =   4.8000739041033E-04
(PID.TID 0000.0001) %MON trAdv_CFL_u_max              =   3.9030720557892E-02
(PID.TID 0000.0001) %MON trAdv_CFL_v_max              =   2.1072212929782E-02
(PID.TID 0000.0001) %MON trAdv_CFL_w_max              =   3.8104229555583E-02
(PID.TID 0000.0001) %MON advcfl_uvel_max              =   4.0767302883775E-02
(PID.TID 0000.0001) %MON advcfl_vvel_max              =   2.1331099091200E-02
(PID.TID 0000.0001) %MON advcfl_wvel_max              =   2.9865074860200E-02
(PID.TID 0000.0001) %MON advcfl_W_hf_max              =   3.6264733758814E-02
(PID.TID 0000.0001) %MON pe_b_mean                    =   4.1106278588523E-04
(PID.TID 0000.0001) %MON ke_max                       =   1.3875132905749E-02
(PID.TID 0000.0001) %MON ke_mean                      =   9.5391790359452E-05
(PID.TID 0000.0001) %MON ke_vol                       =   1.3226782436723E+18
(PID.TID 0000.0001) %MON vort_r_min                   =  -3.9688968855012E-07
(PID.TID 0000.0001) %MON vort_r_max                   =   4.1460999567176E-07
(PID.TID 0000.0001) %MON vort_a_mean                  =  -2.5274806985476E-05
(PID.TID 0000.0001) %MON vort_a_sd                    =   7.3604565405454E-05
(PID.TID 0000.0001) %MON vort_p_mean                  =  -3.1845655280394E-05
(PID.TID 0000.0001) %MON vort_p_sd                    =   1.3162487043780E-04
(PID.TID 0000.0001) %MON surfExpan_theta_mean         =   2.2854076679210E-07
(PID.TID 0000.0001) %MON surfExpan_salt_mean          =   3.2628901566538E-08
(PID.TID 0000.0001) // =======================================================
(PID.TID 0000.0001) // End MONITOR dynamic field statistics
(PID.TID 0000.0001) // =======================================================
 EXTERNAL_FIELDS_LOAD,        36 : iP,iLd,i0,i1=    1    2    1    2 ; Wght=  0.3000000000  0.7000000000
 EXTERNAL_FIELDS_LOAD: (fu0,1),fu,fv= -3.5633E-02 -1.4435E-02 -2.0794E-02 -2.9522E-02
 EXTERNAL_FIELDS_LOAD: SST,SSS,Q,E-P= -8.4772E-02  3.4509E+01  2.4807E+02  9.3550E-06
DEBUG_STATS_RL:          Uvel (THERMODYNAMICS)  min= -1.58195626280494E-01
DEBUG_STATS_RL:          Uvel (THERMODYNAMICS)  max=  1.22932384968327E-01
DEBUG_STATS_RL:          Uvel (THERMODYNAMICS) mean=  2.54108358025110E-03
DEBUG_STATS_RL:          Uvel (THERMODYNAMICS) S.D.=  1.95103580402213E-02
DEBUG_STATS_RL:          Vvel (THERMODYNAMICS)  min= -1.09793412073222E-01
DEBUG_STATS_RL:          Vvel (THERMODYNAMICS)  max=  1.03263442443725E-01
DEBUG_STATS_RL:          Vvel (THERMODYNAMICS) mean= -3.57001208568650E-04
DEBUG_STATS_RL:          Vvel (THERMODYNAMICS) S.D.=  1.30562761398453E-02
DEBUG_STATS_RL:          Wvel (THERMODYNAMICS)  min= -1.08270274871593E-04
DEBUG_STATS_RL:          Wvel (THERMODYNAMICS)  max=  8.70222374468698E-05
DEBUG_STATS_RL:          Wvel (THERMODYNAMICS) mean= -3.75821721617851E-07
DEBUG_STATS_RL:          Wvel (THERMODYNAMICS) S.D.=  1.23746802080321E-05
DEBUG_STATS_RL:         Theta (THERMODYNAMICS)  min= -1.97183326202912E+00
DEBUG_STATS_RL:         Theta (THERMODYNAMICS)  max=  2.98661198574789E+01
DEBUG_STATS_RL:         Theta (THERMODYNAMICS) mean=  3.20695367747771E+00
DEBUG_STATS_RL:         Theta (THERMODYNAMICS) S.D.=  5.85511276759968E+00
DEBUG_STATS_RL:          Salt (THERMODYNAMICS)  min= -6.85624969102121E-04
DEBUG_STATS_RL:          Salt (THERMODYNAMICS)  max=  3.74540017148078E+01
DEBUG_STATS_RL:          Salt (THERMODYNAMICS) mean=  1.88441136648013E+01
DEBUG_STATS_RL:          Salt (THERMODYNAMICS) S.D.=  1.73003181226363E+01
DEBUG_STATS_RL:         GtNm1 (THERMODYNAMICS)  min= -2.06351966462627E-06
DEBUG_STATS_RL:         GtNm1 (THERMODYNAMICS)  max=  2.61055545395584E-06
DEBUG_STATS_RL:         GtNm1 (THERMODYNAMICS) mean=  1.03614154119372E-08
DEBUG_STATS_RL:         GtNm1 (THERMODYNAMICS) S.D.=  1.78286405552810E-07
DEBUG_STATS_RL:         GsNm1 (THERMODYNAMICS)  min= -3.51037598316565E-07
DEBUG_STATS_RL:         GsNm1 (THERMODYNAMICS)  max=  3.46228299332947E-07
DEBUG_STATS_RL:         GsNm1 (THERMODYNAMICS) mean= -2.12198195197790E-10
DEBUG_STATS_RL:         GsNm1 (THERMODYNAMICS) S.D.=  1.65129748657963E-08
DEBUG_STATS_RL:                EtaN (DYNAMICS)  min= -1.64243121302482E+00
DEBUG_STATS_RL:                EtaN (DYNAMICS)  max=  9.04323202726099E-01
DEBUG_STATS_RL:                EtaN (DYNAMICS) mean= -1.69557678334340E-01
DEBUG_STATS_RL:                EtaN (DYNAMICS) S.D.=  6.50458399639428E-01
DEBUG_STATS_RL:                Uvel (DYNAMICS)  min= -1.58195626280494E-01
DEBUG_STATS_RL:                Uvel (DYNAMICS)  max=  1.22932384968327E-01
DEBUG_STATS_RL:                Uvel (DYNAMICS) mean=  2.54108358025110E-03
DEBUG_STATS_RL:                Uvel (DYNAMICS) S.D.=  1.95103580402213E-02
DEBUG_STATS_RL:                Vvel (DYNAMICS)  min= -1.09793412073222E-01
DEBUG_STATS_RL:                Vvel (DYNAMICS)  max=  1.03263442443725E-01
DEBUG_STATS_RL:                Vvel (DYNAMICS) mean= -3.57001208568650E-04
DEBUG_STATS_RL:                Vvel (DYNAMICS) S.D.=  1.30562761398453E-02
DEBUG_STATS_RL:                Wvel (DYNAMICS)  min= -1.08270274871593E-04
DEBUG_STATS_RL:                Wvel (DYNAMICS)  max=  8.70222374468698E-05
DEBUG_STATS_RL:                Wvel (DYNAMICS) mean= -3.75821721617851E-07
DEBUG_STATS_RL:                Wvel (DYNAMICS) S.D.=  1.23746802080321E-05
DEBUG_STATS_RL:               Theta (DYNAMICS)  min= -1.97183326202912E+00
DEBUG_STATS_RL:               Theta (DYNAMICS)  max=  2.98661198574789E+01
DEBUG_STATS_RL:               Theta (DYNAMICS) mean=  3.20695367747771E+00
DEBUG_STATS_RL:               Theta (DYNAMICS) S.D.=  5.85511276759968E+00
DEBUG_STATS_RL:                Salt (DYNAMICS)  min= -6.85624969102121E-04
DEBUG_STATS_RL:                Salt (DYNAMICS)  max=  3.74540017148078E+01
DEBUG_STATS_RL:                Salt (DYNAMICS) mean=  1.88441136648013E+01
DEBUG_STATS_RL:                Salt (DYNAMICS) S.D.=  1.73003181226363E+01
DEBUG_STATS_RL:                  Gu (DYNAMICS)  min= -1.56666921063641E-01
DEBUG_STATS_RL:                  Gu (DYNAMICS)  max=  1.26938488818797E-01
DEBUG_STATS_RL:                  Gu (DYNAMICS) mean=  2.65954664760194E-03
DEBUG_STATS_RL:                  Gu (DYNAMICS) S.D.=  2.05434906422958E-02
DEBUG_STATS_RL:                  Gv (DYNAMICS)  min= -1.06242096572163E-01
DEBUG_STATS_RL:                  Gv (DYNAMICS)  max=  1.01255230099158E-01
DEBUG_STATS_RL:                  Gv (DYNAMICS) mean=  1.91227037845922E-03
DEBUG_STATS_RL:                  Gv (DYNAMICS) S.D.=  1.33330735850740E-02
DEBUG_STATS_RL:               GuNm1 (DYNAMICS)  min= -7.98845564804318E-06
DEBUG_STATS_RL:               GuNm1 (DYNAMICS)  max=  7.98715177675359E-06
DEBUG_STATS_RL:               GuNm1 (DYNAMICS) mean= -2.09455476278278E-08
DEBUG_STATS_RL:               GuNm1 (DYNAMICS) S.D.=  1.17760984049152E-06
DEBUG_STATS_RL:               GvNm1 (DYNAMICS)  min= -1.04333270129554E-05
DEBUG_STATS_RL:               GvNm1 (DYNAMICS)  max=  1.63734287171534E-05
DEBUG_STATS_RL:               GvNm1 (DYNAMICS) mean=  7.54440147792243E-07
DEBUG_STATS_RL:               GvNm1 (DYNAMICS) S.D.=  2.61632160037935E-06
DEBUG_STATS_RL:               GtNm1 (DYNAMICS)  min= -2.06351966462627E-06
DEBUG_STATS_RL:               GtNm1 (DYNAMICS)  max=  2.61055545395584E-06
DEBUG_STATS_RL:               GtNm1 (DYNAMICS) mean=  1.03614154119372E-08
DEBUG_STATS_RL:               GtNm1 (DYNAMICS) S.D.=  1.78286405552810E-07
DEBUG_STATS_RL:               GsNm1 (DYNAMICS)  min= -3.51037598316565E-07
DEBUG_STATS_RL:               GsNm1 (DYNAMICS)  max=  3.46228299332947E-07
DEBUG_STATS_RL:               GsNm1 (DYNAMICS) mean= -2.12198195197790E-10
DEBUG_STATS_RL:               GsNm1 (DYNAMICS) S.D.=  1.65129748657963E-08
DEBUG_STATS_RL:    cg2d_b (SOLVE_FOR_PRESSURE)  min= -1.92547039618288E+04
DEBUG_STATS_RL:    cg2d_b (SOLVE_FOR_PRESSURE)  max=  1.94876545673962E+04
DEBUG_STATS_RL:    cg2d_b (SOLVE_FOR_PRESSURE) mean=  2.65855923046928E+00
DEBUG_STATS_RL:    cg2d_b (SOLVE_FOR_PRESSURE) S.D.=  3.68659755195764E+03
 cg2d: Sum(rhs),rhsMax =   3.15818642887496E-01  1.28000132873398E+00
(PID.TID 0000.0001)  cg2d: iter=     1 ; resid.=  1.00116703202718E-01
(PID.TID 0000.0001)  cg2d: iter=     2 ; resid.=  5.11834721972734E-02
(PID.TID 0000.0001)  cg2d: iter=     3 ; resid.=  3.64359915268740E-02
(PID.TID 0000.0001)  cg2d: iter=     4 ; resid.=  3.43271583617063E-02
(PID.TID 0000.0001)  cg2d: iter=     5 ; resid.=  3.37484735304486E-02
(PID.TID 0000.0001)  cg2d: iter=     6 ; resid.=  3.01393458099373E-02
(PID.TID 0000.0001)  cg2d: iter=     7 ; resid.=  2.41763219542853E-02
(PID.TID 0000.0001)  cg2d: iter=     8 ; resid.=  1.90644876282587E-02
(PID.TID 0000.0001)  cg2d: iter=     9 ; resid.=  1.48466389384597E-02
(PID.TID 0000.0001)  cg2d: iter=    10 ; resid.=  1.19955473839206E-02
(PID.TID 0000.0001)  cg2d: iter=    11 ; resid.=  1.01940124461966E-02
(PID.TID 0000.0001)  cg2d: iter=    12 ; resid.=  8.79671701138989E-03
(PID.TID 0000.0001)  cg2d: iter=    13 ; resid.=  7.69893389032808E-03
(PID.TID 0000.0001)  cg2d: iter=    14 ; resid.=  6.86228186269478E-03
(PID.TID 0000.0001)  cg2d: iter=    15 ; resid.=  5.71851787202464E-03
(PID.TID 0000.0001)  cg2d: iter=    16 ; resid.=  4.77581023303248E-03
(PID.TID 0000.0001)  cg2d: iter=    17 ; resid.=  4.40461823962411E-03
(PID.TID 0000.0001)  cg2d: iter=    18 ; resid.=  3.91959981681851E-03
(PID.TID 0000.0001)  cg2d: iter=    19 ; resid.=  3.22939679244727E-03
(PID.TID 0000.0001)  cg2d: iter=    20 ; resid.=  2.59998594714292E-03
(PID.TID 0000.0001)  cg2d: iter=    21 ; resid.=  1.91758385469668E-03
(PID.TID 0000.0001)  cg2d: iter=    22 ; resid.=  1.48718141721399E-03
(PID.TID 0000.0001)  cg2d: iter=    23 ; resid.=  1.21876514587727E-03
(PID.TID 0000.0001)  cg2d: iter=    24 ; resid.=  1.00544460900022E-03
(PID.TID 0000.0001)  cg2d: iter=    25 ; resid.=  8.42260590651540E-04
(PID.TID 0000.0001)  cg2d: iter=    26 ; resid.=  7.03493547209960E-04
(PID.TID 0000.0001)  cg2d: iter=    27 ; resid.=  6.25259935822298E-04
(PID.TID 0000.0001)  cg2d: iter=    28 ; resid.=  6.03288058398027E-04
(PID.TID 0000.0001)  cg2d: iter=    29 ; resid.=  5.24365194045371E-04
(PID.TID 0000.0001)  cg2d: iter=    30 ; resid.=  4.18538211839426E-04
(PID.TID 0000.0001)  cg2d: iter=    31 ; resid.=  3.50696030063513E-04
(PID.TID 0000.0001)  cg2d: iter=    32 ; resid.=  2.88650490579713E-04
(PID.TID 0000.0001)  cg2d: iter=    33 ; resid.=  2.32692918148442E-04
(PID.TID 0000.0001)  cg2d: iter=    34 ; resid.=  1.71177554424881E-04
(PID.TID 0000.0001)  cg2d: iter=    35 ; resid.=  1.24834660169983E-04
(PID.TID 0000.0001)  cg2d: iter=    36 ; resid.=  1.01725252170982E-04
(PID.TID 0000.0001)  cg2d: iter=    37 ; resid.=  9.19513768732549E-05
(PID.TID 0000.0001)  cg2d: iter=    38 ; resid.=  8.63570604195075E-05
(PID.TID 0000.0001)  cg2d: iter=    39 ; resid.=  7.36489340743278E-05
(PID.TID 0000.0001)  cg2d: iter=    40 ; resid.=  6.03616983943337E-05
(PID.TID 0000.0001)  cg2d: iter=    41 ; resid.=  5.00548651973011E-05
(PID.TID 0000.0001)  cg2d: iter=    42 ; resid.=  4.41941665725291E-05
(PID.TID 0000.0001)  cg2d: iter=    43 ; resid.=  3.97265788845902E-05
(PID.TID 0000.0001)  cg2d: iter=    44 ; resid.=  3.53486366645264E-05
(PID.TID 0000.0001)  cg2d: iter=    45 ; resid.=  3.00804726406709E-05
(PID.TID 0000.0001)  cg2d: iter=    46 ; resid.=  2.53690393887995E-05
(PID.TID 0000.0001)  cg2d: iter=    47 ; resid.=  2.01886983063733E-05
(PID.TID 0000.0001)  cg2d: iter=    48 ; resid.=  1.60377516298090E-05
(PID.TID 0000.0001)  cg2d: iter=    49 ; resid.=  1.18676476754994E-05
(PID.TID 0000.0001)  cg2d: iter=    50 ; resid.=  9.13280736377918E-06
(PID.TID 0000.0001)  cg2d: iter=    51 ; resid.=  7.40148146666261E-06
(PID.TID 0000.0001)  cg2d: iter=    52 ; resid.=  6.83698469732703E-06
(PID.TID 0000.0001)  cg2d: iter=    53 ; resid.=  6.29431129460972E-06
(PID.TID 0000.0001)  cg2d: iter=    54 ; resid.=  4.99538236406427E-06
(PID.TID 0000.0001)  cg2d: iter=    55 ; resid.=  3.91866133107869E-06
(PID.TID 0000.0001)  cg2d: iter=    56 ; resid.=  3.23283813061829E-06
(PID.TID 0000.0001)  cg2d: iter=    57 ; resid.=  2.72772075439592E-06
(PID.TID 0000.0001)  cg2d: iter=    58 ; resid.=  2.34328490646672E-06
(PID.TID 0000.0001)  cg2d: iter=    59 ; resid.=  1.97947961755463E-06
(PID.TID 0000.0001)  cg2d: iter=    60 ; resid.=  1.54136155062620E-06
(PID.TID 0000.0001)  cg2d: iter=    61 ; resid.=  1.20463745896274E-06
(PID.TID 0000.0001)  cg2d: iter=    62 ; resid.=  9.55337374072499E-07
(PID.TID 0000.0001)  cg2d: iter=    63 ; resid.=  7.23439087003398E-07
(PID.TID 0000.0001)  cg2d: iter=    64 ; resid.=  5.46319894084042E-07
(PID.TID 0000.0001)  cg2d: iter=    65 ; resid.=  3.87140593284910E-07
(PID.TID 0000.0001)  cg2d: iter=    66 ; resid.=  2.93471493413301E-07
(PID.TID 0000.0001)  cg2d: iter=    67 ; resid.=  2.41023380196058E-07
(PID.TID 0000.0001)  cg2d: iter=    68 ; resid.=  2.02287504476925E-07
(PID.TID 0000.0001)  cg2d: iter=    69 ; resid.=  1.60016629880170E-07
(PID.TID 0000.0001)  cg2d: iter=    70 ; resid.=  1.17248578118987E-07
(PID.TID 0000.0001)  cg2d: iter=    71 ; resid.=  8.83362894315997E-08
(PID.TID 0000.0001)  cg2d: iter=    72 ; resid.=  6.93036585991671E-08
(PID.TID 0000.0001)  cg2d: iter=    73 ; resid.=  5.70483904892613E-08
(PID.TID 0000.0001)  cg2d: iter=    74 ; resid.=  4.46153726344298E-08
(PID.TID 0000.0001)  cg2d: iter=    75 ; resid.=  3.76901075334642E-08
(PID.TID 0000.0001)  cg2d: iter=    76 ; resid.=  3.24778504897992E-08
(PID.TID 0000.0001)  cg2d: iter=    77 ; resid.=  2.80636472723851E-08
(PID.TID 0000.0001)  cg2d: iter=    78 ; resid.=  2.28306665350164E-08
(PID.TID 0000.0001)  cg2d: iter=    79 ; resid.=  1.92379434962609E-08
(PID.TID 0000.0001)  cg2d: iter=    80 ; resid.=  1.76782636988429E-08
(PID.TID 0000.0001)  cg2d: iter=    81 ; resid.=  1.62762896060341E-08
(PID.TID 0000.0001)  cg2d: iter=    82 ; resid.=  1.39655370104778E-08
(PID.TID 0000.0001)  cg2d: iter=    83 ; resid.=  1.14629652870446E-08
(PID.TID 0000.0001)  cg2d: iter=    84 ; resid.=  9.82418186924563E-09
(PID.TID 0000.0001)  cg2d: iter=    85 ; resid.=  7.62225253457059E-09
(PID.TID 0000.0001)  cg2d: iter=    86 ; resid.=  5.34020677144551E-09
(PID.TID 0000.0001)  cg2d: iter=    87 ; resid.=  3.74085670385176E-09
(PID.TID 0000.0001)  cg2d: iter=    88 ; resid.=  2.45810309434628E-09
(PID.TID 0000.0001)  cg2d: iter=    89 ; resid.=  1.69063931862359E-09
(PID.TID 0000.0001)  cg2d: iter=    90 ; resid.=  1.38004259418316E-09
(PID.TID 0000.0001)  cg2d: iter=    91 ; resid.=  1.35931078117845E-09
(PID.TID 0000.0001)  cg2d: iter=    92 ; resid.=  1.28369384385891E-09
(PID.TID 0000.0001)  cg2d: iter=    93 ; resid.=  1.05589103660149E-09
(PID.TID 0000.0001)  cg2d: iter=    94 ; resid.=  7.78437546489844E-10
(PID.TID 0000.0001)  cg2d: iter=    95 ; resid.=  5.90719629318871E-10
(PID.TID 0000.0001)  cg2d: iter=    96 ; resid.=  4.88605290500878E-10
(PID.TID 0000.0001)  cg2d: iter=    97 ; resid.=  4.08900788145408E-10
(PID.TID 0000.0001)  cg2d: iter=    98 ; resid.=  3.39279819732231E-10
(PID.TID 0000.0001)  cg2d: iter=    99 ; resid.=  2.65924768501943E-10
(PID.TID 0000.0001)  cg2d: iter=   100 ; resid.=  2.09195838042500E-10
(PID.TID 0000.0001)  cg2d: iter=   101 ; resid.=  1.69535943354520E-10
(PID.TID 0000.0001)  cg2d: iter=   102 ; resid.=  1.52622651284043E-10
(PID.TID 0000.0001)  cg2d: iter=   103 ; resid.=  1.29227189162107E-10
(PID.TID 0000.0001)  cg2d: iter=   104 ; resid.=  1.06068309677462E-10
(PID.TID 0000.0001)  cg2d: iter=   105 ; resid.=  8.47717102985242E-11
(PID.TID 0000.0001)  cg2d: iter=   106 ; resid.=  6.56298519621814E-11
(PID.TID 0000.0001)  cg2d: iter=   107 ; resid.=  5.06382527924852E-11
(PID.TID 0000.0001)  cg2d: iter=   108 ; resid.=  3.76930863068115E-11
(PID.TID 0000.0001)  cg2d: iter=   109 ; resid.=  2.79305695943776E-11
(PID.TID 0000.0001)  cg2d: iter=   110 ; resid.=  1.91178196038902E-11
(PID.TID 0000.0001)  cg2d: iter=   111 ; resid.=  1.28653334486968E-11
(PID.TID 0000.0001)  cg2d: iter=   112 ; resid.=  9.20375990803720E-12
(PID.TID 0000.0001)  cg2d: iter=   113 ; resid.=  6.98394851572986E-12
(PID.TID 0000.0001)  cg2d: iter=   114 ; resid.=  5.05259785811329E-12
(PID.TID 0000.0001)  cg2d: iter=   115 ; resid.=  3.87841174882102E-12
(PID.TID 0000.0001)  cg2d: iter=   116 ; resid.=  3.06579923626326E-12
(PID.TID 0000.0001)  cg2d: iter=   117 ; resid.=  2.55357769987975E-12
(PID.TID 0000.0001)  cg2d: iter=   118 ; resid.=  1.90553033662962E-12
(PID.TID 0000.0001)  cg2d: iter=   119 ; resid.=  1.44235305202738E-12
(PID.TID 0000.0001)  cg2d: iter=   120 ; resid.=  1.18480833096170E-12
(PID.TID 0000.0001)  cg2d: iter=   121 ; resid.=  9.25204417989334E-13
(PID.TID 0000.0001)  cg2d: iter=   122 ; resid.=  6.78299192944986E-13
(PID.TID 0000.0001)  cg2d: iter=   123 ; resid.=  4.60050349992921E-13
(PID.TID 0000.0001)  cg2d: iter=   124 ; resid.=  3.09795530970415E-13
(PID.TID 0000.0001)  cg2d: iter=   125 ; resid.=  2.15984291913466E-13
(PID.TID 0000.0001)  cg2d: iter=   126 ; resid.=  1.74545092742789E-13
(PID.TID 0000.0001)  cg2d: iter=   127 ; resid.=  1.47241773565683E-13
(PID.TID 0000.0001)  cg2d: iter=   128 ; resid.=  1.17122481208567E-13
(PID.TID 0000.0001)  cg2d: iter=   129 ; resid.=  7.90237507319118E-14
DEBUG_STATS_RL:    cg2d_x (SOLVE_FOR_PRESSURE)  min= -1.60255473462074E+01
DEBUG_STATS_RL:    cg2d_x (SOLVE_FOR_PRESSURE)  max=  8.79991480293565E+00
DEBUG_STATS_RL:    cg2d_x (SOLVE_FOR_PRESSURE) mean= -1.66969262574952E+00
DEBUG_STATS_RL:    cg2d_x (SOLVE_FOR_PRESSURE) S.D.=  6.39256089997356E+00
(PID.TID 0000.0001)      cg2d_init_res =   4.11687050976897E-01
(PID.TID 0000.0001)      cg2d_iters(min,last) =      -1     129
(PID.TID 0000.0001)      cg2d_last_res =   7.90237507319118E-14
(PID.TID 0000.0001) // =======================================================
(PID.TID 0000.0001) // Begin MONITOR dynamic field statistics
(PID.TID 0000.0001) // =======================================================
(PID.TID 0000.0001) %MON time_tsnumber                =                    37
(PID.TID 0000.0001) %MON time_secondsf                =   3.1968000000000E+06
(PID.TID 0000.0001) %MON dynstat_eta_max              =   8.9703514810758E-01
(PID.TID 0000.0001) %MON dynstat_eta_min              =  -1.6335930016521E+00
(PID.TID 0000.0001) %MON dynstat_eta_mean             =  -2.7738769065330E-03
(PID.TID 0000.0001) %MON dynstat_eta_sd               =   5.6731351872673E-01
(PID.TID 0000.0001) %MON dynstat_eta_del2             =   2.1622810223394E-03
(PID.TID 0000.0001) %MON dynstat_uvel_max             =   1.3053955612141E-01
(PID.TID 0000.0001) %MON dynstat_uvel_min             =  -1.5589677877300E-01
(PID.TID 0000.0001) %MON dynstat_uvel_mean            =   1.4818532975504E-03
(PID.TID 0000.0001) %MON dynstat_uvel_sd              =   1.2051666992649E-02
(PID.TID 0000.0001) %MON dynstat_uvel_del2            =   7.8368991987793E-05
(PID.TID 0000.0001) %MON dynstat_vvel_max             =   1.0461162349288E-01
(PID.TID 0000.0001) %MON dynstat_vvel_min             =  -1.1140007137572E-01
(PID.TID 0000.0001) %MON dynstat_vvel_mean            =   2.4734903203072E-06
(PID.TID 0000.0001) %MON dynstat_vvel_sd              =   8.6171499583884E-03
(PID.TID 0000.0001) %MON dynstat_vvel_del2            =   7.5531561132950E-05
(PID.TID 0000.0001) %MON dynstat_wvel_max             =   8.3803951380780E-05
(PID.TID 0000.0001) %MON dynstat_wvel_min             =  -1.1334010859799E-04
(PID.TID 0000.0001) %MON dynstat_wvel_mean            =  -3.5059086627085E-23
(PID.TID 0000.0001) %MON dynstat_wvel_sd              =   1.3820880667644E-05
(PID.TID 0000.0001) %MON dynstat_wvel_del2            =   1.5355062105026E-07
(PID.TID 0000.0001) %MON dynstat_theta_max            =   2.9866119857479E+01
(PID.TID 0000.0001) %MON dynstat_theta_min            =  -1.9718332620291E+00
(PID.TID 0000.0001) %MON dynstat_theta_mean           =   3.6201488881057E+00
(PID.TID 0000.0001) %MON dynstat_theta_sd             =   4.4162481404494E+00
(PID.TID 0000.0001) %MON dynstat_theta_del2           =   4.6939689433231E-03
(PID.TID 0000.0001) %MON dynstat_salt_max             =   3.7454001714808E+01
(PID.TID 0000.0001) %MON dynstat_salt_min             =   2.9807025383042E+01
(PID.TID 0000.0001) %MON dynstat_salt_mean            =   3.4717290659486E+01
(PID.TID 0000.0001) %MON dynstat_salt_sd              =   2.9620376830579E-01
(PID.TID 0000.0001) %MON dynstat_salt_del2            =   9.7907149154372E-04
(PID.TID 0000.0001) %MON dynstat_sst_max              =   2.9866119857479E+01
(PID.TID 0000.0001) %MON dynstat_sst_min              =  -1.9718332620291E+00
(PID.TID 0000.0001) %MON dynstat_sst_mean             =   1.8689440846507E+01
(PID.TID 0000.0001) %MON dynstat_sst_sd               =   9.0806223255316E+00
(PID.TID 0000.0001) %MON dynstat_sst_del2             =   2.5115324352128E-02
(PID.TID 0000.0001) %MON dynstat_sss_max              =   3.7415518164530E+01
(PID.TID 0000.0001) %MON dynstat_sss_min              =   2.9807025383042E+01
(PID.TID 0000.0001) %MON dynstat_sss_mean             =   3.4843134556014E+01
(PID.TID 0000.0001) %MON dynstat_sss_sd               =   9.7520806135720E-01
(PID.TID 0000.0001) %MON dynstat_sss_del2             =   7.7341595039287E-03
(PID.TID 0000.0001) %MON forcing_qnet_max             =   3.7191279602051E+02
(PID.TID 0000.0001) %MON forcing_qnet_min             =  -1.7498964233398E+02
(PID.TID 0000.0001) %MON forcing_qnet_mean            =  -1.4729433485573E+01
(PID.TID 0000.0001) %MON forcing_qnet_sd              =   8.8124246964212E+01
(PID.TID 0000.0001) %MON forcing_qnet_del2            =   9.6017907876668E-01
(PID.TID 0000.0001) %MON forcing_qsw_max              =   0.0000000000000E+00
(PID.TID 0000.0001) %MON forcing_qsw_min              =   0.0000000000000E+00
(PID.TID 0000.0001) %MON forcing_qsw_mean             =   0.0000000000000E+00
(PID.TID 0000.0001) %MON forcing_qsw_sd               =   0.0000000000000E+00
(PID.TID 0000.0001) %MON forcing_qsw_del2             =   0.0000000000000E+00
(PID.TID 0000.0001) %MON forcing_empmr_max            =   7.5578354596928E-05
(PID.TID 0000.0001) %MON forcing_empmr_min            =  -7.7828485700593E-05
(PID.TID 0000.0001) %MON forcing_empmr_mean           =   9.3726740456976E-07
(PID.TID 0000.0001) %MON forcing_empmr_sd             =   2.8054368786233E-05
(PID.TID 0000.0001) %MON forcing_empmr_del2           =   3.5379338060375E-07
(PID.TID 0000.0001) %MON forcing_fu_max               =   2.9215110242367E-01
(PID.TID 0000.0001) %MON forcing_fu_min               =  -2.0079303681850E-01
(PID.TID 0000.0001) %MON forcing_fu_mean              =   1.7142039677415E-02
(PID.TID 0000.0001) %MON forcing_fu_sd                =   9.0801562846002E-02
(PID.TID 0000.0001) %MON forcing_fu_del2              =   6.8477442505628E-04
(PID.TID 0000.0001) %MON forcing_fv_max               =   1.8260629773140E-01
(PID.TID 0000.0001) %MON forcing_fv_min               =  -1.7113216519356E-01
(PID.TID 0000.0001) %MON forcing_fv_mean              =  -6.6293767805238E-03
(PID.TID 0000.0001) %MON forcing_fv_sd                =   4.4536887248365E-02
(PID.TID 0000.0001) %MON forcing_fv_del2              =   4.8427363307602E-04
(PID.TID 0000.0001) %MON trAdv_CFL_u_max              =   4.0775583014564E-02
(PID.TID 0000.0001) %MON trAdv_CFL_v_max              =   2.1453726955096E-02
(PID.TID 0000.0001) %MON trAdv_CFL_w_max              =   3.6264733758814E-02
(PID.TID 0000.0001) %MON advcfl_uvel_max              =   4.3147972924974E-02
(PID.TID 0000.0001) %MON advcfl_vvel_max              =   2.1643247225958E-02
(PID.TID 0000.0001) %MON advcfl_wvel_max              =   2.8208877519278E-02
(PID.TID 0000.0001) %MON advcfl_W_hf_max              =   3.4253636987694E-02
(PID.TID 0000.0001) %MON pe_b_mean                    =   4.1184884095181E-04
(PID.TID 0000.0001) %MON ke_max                       =   1.3827712103834E-02
(PID.TID 0000.0001) %MON ke_mean                      =   1.0032002216842E-04
(PID.TID 0000.0001) %MON ke_vol                       =   1.3226782436723E+18
(PID.TID 0000.0001) %MON vort_r_min                   =  -4.1167318337740E-07
(PID.TID 0000.0001) %MON vort_r_max                   =   4.1409705245748E-07
(PID.TID 0000.0001) %MON vort_a_mean                  =  -2.5274806986417E-05
(PID.TID 0000.0001) %MON vort_a_sd                    =   7.3604566249055E-05
(PID.TID 0000.0001) %MON vort_p_mean                  =  -3.1845655281579E-05
(PID.TID 0000.0001) %MON vort_p_sd                    =   1.3162473999715E-04
(PID.TID 0000.0001) %MON surfExpan_theta_mean         =   2.1439628387229E-07
(PID.TID 0000.0001) %MON surfExpan_salt_mean          =   3.7972719964907E-08
(PID.TID 0000.0001) // =======================================================
(PID.TID 0000.0001) // End MONITOR dynamic field statistics
(PID.TID 0000.0001) // =======================================================
 EXTERNAL_FIELDS_LOAD,        37 : iP,iLd,i0,i1=    1    2    1    2 ; Wght=  0.2666666667  0.7333333333
 EXTERNAL_FIELDS_LOAD: (fu0,1),fu,fv= -3.5633E-02 -1.4435E-02 -2.0088E-02 -2.8201E-02
 EXTERNAL_FIELDS_LOAD: SST,SSS,Q,E-P= -1.3445E-01  3.4499E+01  2.4722E+02  9.2464E-06
DEBUG_STATS_RL:          Uvel (THERMODYNAMICS)  min= -1.55896778772996E-01
DEBUG_STATS_RL:          Uvel (THERMODYNAMICS)  max=  1.30539556121409E-01
DEBUG_STATS_RL:          Uvel (THERMODYNAMICS) mean=  2.82569515369359E-03
DEBUG_STATS_RL:          Uvel (THERMODYNAMICS) S.D.=  2.02588230396691E-02
DEBUG_STATS_RL:          Vvel (THERMODYNAMICS)  min= -1.11400071375719E-01
DEBUG_STATS_RL:          Vvel (THERMODYNAMICS)  max=  1.04611623492879E-01
DEBUG_STATS_RL:          Vvel (THERMODYNAMICS) mean= -3.48020262473345E-04
DEBUG_STATS_RL:          Vvel (THERMODYNAMICS) S.D.=  1.32140724786728E-02
DEBUG_STATS_RL:          Wvel (THERMODYNAMICS)  min= -1.13340108597986E-04
DEBUG_STATS_RL:          Wvel (THERMODYNAMICS)  max=  8.38039513807799E-05
DEBUG_STATS_RL:          Wvel (THERMODYNAMICS) mean= -3.91719916013752E-07
DEBUG_STATS_RL:          Wvel (THERMODYNAMICS) S.D.=  1.23237396710666E-05
DEBUG_STATS_RL:         Theta (THERMODYNAMICS)  min= -1.97051062932687E+00
DEBUG_STATS_RL:         Theta (THERMODYNAMICS)  max=  2.98773957179028E+01
DEBUG_STATS_RL:         Theta (THERMODYNAMICS) mean=  3.20743439654243E+00
DEBUG_STATS_RL:         Theta (THERMODYNAMICS) S.D.=  5.85559795664776E+00
DEBUG_STATS_RL:          Salt (THERMODYNAMICS)  min= -6.85624969102121E-04
DEBUG_STATS_RL:          Salt (THERMODYNAMICS)  max=  3.74537917495765E+01
DEBUG_STATS_RL:          Salt (THERMODYNAMICS) mean=  1.88441115465098E+01
DEBUG_STATS_RL:          Salt (THERMODYNAMICS) S.D.=  1.73003166758189E+01
DEBUG_STATS_RL:         GtNm1 (THERMODYNAMICS)  min= -2.02862056091878E-06
DEBUG_STATS_RL:         GtNm1 (THERMODYNAMICS)  max=  2.58807003361713E-06
DEBUG_STATS_RL:         GtNm1 (THERMODYNAMICS) mean=  1.09354067165394E-08
DEBUG_STATS_RL:         GtNm1 (THERMODYNAMICS) S.D.=  1.78236362522527E-07
DEBUG_STATS_RL:         GsNm1 (THERMODYNAMICS)  min= -3.43701781591207E-07
DEBUG_STATS_RL:         GsNm1 (THERMODYNAMICS)  max=  3.63781770893539E-07
DEBUG_STATS_RL:         GsNm1 (THERMODYNAMICS) mean= -1.25265089312044E-10
DEBUG_STATS_RL:         GsNm1 (THERMODYNAMICS) S.D.=  1.66509073108598E-08
DEBUG_STATS_RL:                EtaN (DYNAMICS)  min= -1.63359300165206E+00
DEBUG_STATS_RL:                EtaN (DYNAMICS)  max=  8.97035148107579E-01
DEBUG_STATS_RL:                EtaN (DYNAMICS) mean= -1.70203121890878E-01
DEBUG_STATS_RL:                EtaN (DYNAMICS) S.D.=  6.51637196735328E-01
DEBUG_STATS_RL:                Uvel (DYNAMICS)  min= -1.55896778772996E-01
DEBUG_STATS_RL:                Uvel (DYNAMICS)  max=  1.30539556121409E-01
DEBUG_STATS_RL:                Uvel (DYNAMICS) mean=  2.82569515369359E-03
DEBUG_STATS_RL:                Uvel (DYNAMICS) S.D.=  2.02588230396691E-02
DEBUG_STATS_RL:                Vvel (DYNAMICS)  min= -1.11400071375719E-01
DEBUG_STATS_RL:                Vvel (DYNAMICS)  max=  1.04611623492879E-01
DEBUG_STATS_RL:                Vvel (DYNAMICS) mean= -3.48020262473345E-04
DEBUG_STATS_RL:                Vvel (DYNAMICS) S.D.=  1.32140724786728E-02
DEBUG_STATS_RL:                Wvel (DYNAMICS)  min= -1.13340108597986E-04
DEBUG_STATS_RL:                Wvel (DYNAMICS)  max=  8.38039513807799E-05
DEBUG_STATS_RL:                Wvel (DYNAMICS) mean= -3.91719916013752E-07
DEBUG_STATS_RL:                Wvel (DYNAMICS) S.D.=  1.23237396710666E-05
DEBUG_STATS_RL:               Theta (DYNAMICS)  min= -1.97051062932687E+00
DEBUG_STATS_RL:               Theta (DYNAMICS)  max=  2.98773957179028E+01
DEBUG_STATS_RL:               Theta (DYNAMICS) mean=  3.20743439654243E+00
DEBUG_STATS_RL:               Theta (DYNAMICS) S.D.=  5.85559795664776E+00
DEBUG_STATS_RL:                Salt (DYNAMICS)  min= -6.85624969102121E-04
DEBUG_STATS_RL:                Salt (DYNAMICS)  max=  3.74537917495765E+01
DEBUG_STATS_RL:                Salt (DYNAMICS) mean=  1.88441115465098E+01
DEBUG_STATS_RL:                Salt (DYNAMICS) S.D.=  1.73003166758189E+01
DEBUG_STATS_RL:                  Gu (DYNAMICS)  min= -1.53909233201917E-01
DEBUG_STATS_RL:                  Gu (DYNAMICS)  max=  1.33225393837069E-01
DEBUG_STATS_RL:                  Gu (DYNAMICS) mean=  2.95419912034636E-03
DEBUG_STATS_RL:                  Gu (DYNAMICS) S.D.=  2.12970752712917E-02
DEBUG_STATS_RL:                  Gv (DYNAMICS)  min= -1.07650198243708E-01
DEBUG_STATS_RL:                  Gv (DYNAMICS)  max=  1.02211090704676E-01
DEBUG_STATS_RL:                  Gv (DYNAMICS) mean=  1.98280563604268E-03
DEBUG_STATS_RL:                  Gv (DYNAMICS) S.D.=  1.34376475001673E-02
DEBUG_STATS_RL:               GuNm1 (DYNAMICS)  min= -8.05840781947535E-06
DEBUG_STATS_RL:               GuNm1 (DYNAMICS)  max=  8.06191467292094E-06
DEBUG_STATS_RL:               GuNm1 (DYNAMICS) mean= -2.09199678343892E-08
DEBUG_STATS_RL:               GuNm1 (DYNAMICS) S.D.=  1.17403934930471E-06
DEBUG_STATS_RL:               GvNm1 (DYNAMICS)  min= -1.03341400665111E-05
DEBUG_STATS_RL:               GvNm1 (DYNAMICS)  max=  1.63544132667997E-05
DEBUG_STATS_RL:               GvNm1 (DYNAMICS) mean=  7.53584134622119E-07
DEBUG_STATS_RL:               GvNm1 (DYNAMICS) S.D.=  2.60923357038860E-06
DEBUG_STATS_RL:               GtNm1 (DYNAMICS)  min= -2.02862056091878E-06
DEBUG_STATS_RL:               GtNm1 (DYNAMICS)  max=  2.58807003361713E-06
DEBUG_STATS_RL:               GtNm1 (DYNAMICS) mean=  1.09354067165394E-08
DEBUG_STATS_RL:               GtNm1 (DYNAMICS) S.D.=  1.78236362522527E-07
DEBUG_STATS_RL:               GsNm1 (DYNAMICS)  min= -3.43701781591207E-07
DEBUG_STATS_RL:               GsNm1 (DYNAMICS)  max=  3.63781770893539E-07
DEBUG_STATS_RL:               GsNm1 (DYNAMICS) mean= -1.25265089312044E-10
DEBUG_STATS_RL:               GsNm1 (DYNAMICS) S.D.=  1.66509073108598E-08
DEBUG_STATS_RL:    cg2d_b (SOLVE_FOR_PRESSURE)  min= -1.91156392352444E+04
DEBUG_STATS_RL:    cg2d_b (SOLVE_FOR_PRESSURE)  max=  1.97908011279061E+04
DEBUG_STATS_RL:    cg2d_b (SOLVE_FOR_PRESSURE) mean=  2.73360256856841E+00
DEBUG_STATS_RL:    cg2d_b (SOLVE_FOR_PRESSURE) S.D.=  3.66348144851047E+03
 cg2d: Sum(rhs),rhsMax =   3.19759160093385E-01  1.29991280648067E+00
(PID.TID 0000.0001)  cg2d: iter=     1 ; resid.=  9.95989352585365E-02
(PID.TID 0000.0001)  cg2d: iter=     2 ; resid.=  5.01770019087582E-02
(PID.TID 0000.0001)  cg2d: iter=     3 ; resid.=  3.67715293778122E-02
(PID.TID 0000.0001)  cg2d: iter=     4 ; resid.=  3.57507968168398E-02
(PID.TID 0000.0001)  cg2d: iter=     5 ; resid.=  3.54454933068776E-02
(PID.TID 0000.0001)  cg2d: iter=     6 ; resid.=  3.17877736992107E-02
(PID.TID 0000.0001)  cg2d: iter=     7 ; resid.=  2.53000015106710E-02
(PID.TID 0000.0001)  cg2d: iter=     8 ; resid.=  1.99058460050046E-02
(PID.TID 0000.0001)  cg2d: iter=     9 ; resid.=  1.55472445594784E-02
(PID.TID 0000.0001)  cg2d: iter=    10 ; resid.=  1.27641622580911E-02
(PID.TID 0000.0001)  cg2d: iter=    11 ; resid.=  1.08953627323480E-02
(PID.TID 0000.0001)  cg2d: iter=    12 ; resid.=  9.27918006079917E-03
(PID.TID 0000.0001)  cg2d: iter=    13 ; resid.=  7.93218273583594E-03
(PID.TID 0000.0001)  cg2d: iter=    14 ; resid.=  7.01414095738315E-03
(PID.TID 0000.0001)  cg2d: iter=    15 ; resid.=  5.82412950664763E-03
(PID.TID 0000.0001)  cg2d: iter=    16 ; resid.=  4.90448452750724E-03
(PID.TID 0000.0001)  cg2d: iter=    17 ; resid.=  4.56466430725338E-03
(PID.TID 0000.0001)  cg2d: iter=    18 ; resid.=  4.08068658753540E-03
(PID.TID 0000.0001)  cg2d: iter=    19 ; resid.=  3.37757389914390E-03
(PID.TID 0000.0001)  cg2d: iter=    20 ; resid.=  2.72335349170659E-03
(PID.TID 0000.0001)  cg2d: iter=    21 ; resid.=  2.01660906543373E-03
(PID.TID 0000.0001)  cg2d: iter=    22 ; resid.=  1.60935397204478E-03
(PID.TID 0000.0001)  cg2d: iter=    23 ; resid.=  1.36552470599041E-03
(PID.TID 0000.0001)  cg2d: iter=    24 ; resid.=  1.15978451662250E-03
(PID.TID 0000.0001)  cg2d: iter=    25 ; resid.=  9.92475306814986E-04
(PID.TID 0000.0001)  cg2d: iter=    26 ; resid.=  8.39587805071425E-04
(PID.TID 0000.0001)  cg2d: iter=    27 ; resid.=  7.39439167720811E-04
(PID.TID 0000.0001)  cg2d: iter=    28 ; resid.=  6.93338678671992E-04
(PID.TID 0000.0001)  cg2d: iter=    29 ; resid.=  5.80136691014401E-04
(PID.TID 0000.0001)  cg2d: iter=    30 ; resid.=  4.48177076397191E-04
(PID.TID 0000.0001)  cg2d: iter=    31 ; resid.=  3.63077762712171E-04
(PID.TID 0000.0001)  cg2d: iter=    32 ; resid.=  2.93853331489950E-04
(PID.TID 0000.0001)  cg2d: iter=    33 ; resid.=  2.40383781644064E-04
(PID.TID 0000.0001)  cg2d: iter=    34 ; resid.=  1.78937329619606E-04
(PID.TID 0000.0001)  cg2d: iter=    35 ; resid.=  1.32584011349107E-04
(PID.TID 0000.0001)  cg2d: iter=    36 ; resid.=  1.10372895938850E-04
(PID.TID 0000.0001)  cg2d: iter=    37 ; resid.=  1.03776249935876E-04
(PID.TID 0000.0001)  cg2d: iter=    38 ; resid.=  9.97334318528103E-05
(PID.TID 0000.0001)  cg2d: iter=    39 ; resid.=  8.55651885155136E-05
(PID.TID 0000.0001)  cg2d: iter=    40 ; resid.=  6.82451081695815E-05
(PID.TID 0000.0001)  cg2d: iter=    41 ; resid.=  5.55875067395213E-05
(PID.TID 0000.0001)  cg2d: iter=    42 ; resid.=  4.96184791073051E-05
(PID.TID 0000.0001)  cg2d: iter=    43 ; resid.=  4.47012134996483E-05
(PID.TID 0000.0001)  cg2d: iter=    44 ; resid.=  3.90708221366854E-05
(PID.TID 0000.0001)  cg2d: iter=    45 ; resid.=  3.19287592248509E-05
(PID.TID 0000.0001)  cg2d: iter=    46 ; resid.=  2.60498958709338E-05
(PID.TID 0000.0001)  cg2d: iter=    47 ; resid.=  2.04036182664264E-05
(PID.TID 0000.0001)  cg2d: iter=    48 ; resid.=  1.61466231020880E-05
(PID.TID 0000.0001)  cg2d: iter=    49 ; resid.=  1.19095654072684E-05
(PID.TID 0000.0001)  cg2d: iter=    50 ; resid.=  9.30493395725581E-06
(PID.TID 0000.0001)  cg2d: iter=    51 ; resid.=  7.72713123192637E-06
(PID.TID 0000.0001)  cg2d: iter=    52 ; resid.=  7.18371697259067E-06
(PID.TID 0000.0001)  cg2d: iter=    53 ; resid.=  6.63084751143435E-06
(PID.TID 0000.0001)  cg2d: iter=    54 ; resid.=  5.32664877521243E-06
(PID.TID 0000.0001)  cg2d: iter=    55 ; resid.=  4.25864750160042E-06
(PID.TID 0000.0001)  cg2d: iter=    56 ; resid.=  3.54907769197873E-06
(PID.TID 0000.0001)  cg2d: iter=    57 ; resid.=  3.02032109122411E-06
(PID.TID 0000.0001)  cg2d: iter=    58 ; resid.=  2.62812118530852E-06
(PID.TID 0000.0001)  cg2d: iter=    59 ; resid.=  2.20228755539075E-06
(PID.TID 0000.0001)  cg2d: iter=    60 ; resid.=  1.65449608661483E-06
(PID.TID 0000.0001)  cg2d: iter=    61 ; resid.=  1.21051812325875E-06
(PID.TID 0000.0001)  cg2d: iter=    62 ; resid.=  9.06976040054885E-07
(PID.TID 0000.0001)  cg2d: iter=    63 ; resid.=  6.85885568603223E-07
(PID.TID 0000.0001)  cg2d: iter=    64 ; resid.=  5.44923012408876E-07
(PID.TID 0000.0001)  cg2d: iter=    65 ; resid.=  4.00886136678075E-07
(PID.TID 0000.0001)  cg2d: iter=    66 ; resid.=  3.06302777907061E-07
(PID.TID 0000.0001)  cg2d: iter=    67 ; resid.=  2.54521644061171E-07
(PID.TID 0000.0001)  cg2d: iter=    68 ; resid.=  2.12574389438625E-07
(PID.TID 0000.0001)  cg2d: iter=    69 ; resid.=  1.69917702694244E-07
(PID.TID 0000.0001)  cg2d: iter=    70 ; resid.=  1.25536977778460E-07
(PID.TID 0000.0001)  cg2d: iter=    71 ; resid.=  9.59447718801874E-08
(PID.TID 0000.0001)  cg2d: iter=    72 ; resid.=  7.86107433161249E-08
(PID.TID 0000.0001)  cg2d: iter=    73 ; resid.=  6.88106349537210E-08
(PID.TID 0000.0001)  cg2d: iter=    74 ; resid.=  5.62619734187708E-08
(PID.TID 0000.0001)  cg2d: iter=    75 ; resid.=  4.81566736605637E-08
(PID.TID 0000.0001)  cg2d: iter=    76 ; resid.=  4.06979833723651E-08
(PID.TID 0000.0001)  cg2d: iter=    77 ; resid.=  3.43748268328172E-08
(PID.TID 0000.0001)  cg2d: iter=    78 ; resid.=  2.82626867185445E-08
(PID.TID 0000.0001)  cg2d: iter=    79 ; resid.=  2.44210164002128E-08
(PID.TID 0000.0001)  cg2d: iter=    80 ; resid.=  2.22270936118359E-08
(PID.TID 0000.0001)  cg2d: iter=    81 ; resid.=  1.97124499990820E-08
(PID.TID 0000.0001)  cg2d: iter=    82 ; resid.=  1.62187088854041E-08
(PID.TID 0000.0001)  cg2d: iter=    83 ; resid.=  1.28718194047281E-08
(PID.TID 0000.0001)  cg2d: iter=    84 ; resid.=  1.04833045371612E-08
(PID.TID 0000.0001)  cg2d: iter=    85 ; resid.=  7.90958878444134E-09
(PID.TID 0000.0001)  cg2d: iter=    86 ; resid.=  5.57231923835806E-09
(PID.TID 0000.0001)  cg2d: iter=    87 ; resid.=  4.08297259441595E-09
(PID.TID 0000.0001)  cg2d: iter=    88 ; resid.=  2.85703554622388E-09
(PID.TID 0000.0001)  cg2d: iter=    89 ; resid.=  2.14127278904543E-09
(PID.TID 0000.0001)  cg2d: iter=    90 ; resid.=  1.88216659067955E-09
(PID.TID 0000.0001)  cg2d: iter=    91 ; resid.=  1.84705143407073E-09
(PID.TID 0000.0001)  cg2d: iter=    92 ; resid.=  1.65799053898120E-09
(PID.TID 0000.0001)  cg2d: iter=    93 ; resid.=  1.29442575816256E-09
(PID.TID 0000.0001)  cg2d: iter=    94 ; resid.=  9.35071750990505E-10
(PID.TID 0000.0001)  cg2d: iter=    95 ; resid.=  7.35296610743576E-10
(PID.TID 0000.0001)  cg2d: iter=    96 ; resid.=  6.36024438007441E-10
(PID.TID 0000.0001)  cg2d: iter=    97 ; resid.=  5.25988615473858E-10
(PID.TID 0000.0001)  cg2d: iter=    98 ; resid.=  4.09641970300816E-10
(PID.TID 0000.0001)  cg2d: iter=    99 ; resid.=  3.01097171441123E-10
(PID.TID 0000.0001)  cg2d: iter=   100 ; resid.=  2.30669330343230E-10
(PID.TID 0000.0001)  cg2d: iter=   101 ; resid.=  1.92180669114597E-10
(PID.TID 0000.0001)  cg2d: iter=   102 ; resid.=  1.81455462659421E-10
(PID.TID 0000.0001)  cg2d: iter=   103 ; resid.=  1.58199687505836E-10
(PID.TID 0000.0001)  cg2d: iter=   104 ; resid.=  1.31796422899817E-10
(PID.TID 0000.0001)  cg2d: iter=   105 ; resid.=  1.05141764607325E-10
(PID.TID 0000.0001)  cg2d: iter=   106 ; resid.=  8.09658019557582E-11
(PID.TID 0000.0001)  cg2d: iter=   107 ; resid.=  6.22099372707826E-11
(PID.TID 0000.0001)  cg2d: iter=   108 ; resid.=  4.68308672854921E-11
(PID.TID 0000.0001)  cg2d: iter=   109 ; resid.=  3.58361504053333E-11
(PID.TID 0000.0001)  cg2d: iter=   110 ; resid.=  2.46968990972747E-11
(PID.TID 0000.0001)  cg2d: iter=   111 ; resid.=  1.74582784118228E-11
(PID.TID 0000.0001)  cg2d: iter=   112 ; resid.=  1.36109352888932E-11
(PID.TID 0000.0001)  cg2d: iter=   113 ; resid.=  1.11685288292343E-11
(PID.TID 0000.0001)  cg2d: iter=   114 ; resid.=  8.51168921975706E-12
(PID.TID 0000.0001)  cg2d: iter=   115 ; resid.=  6.65702898878976E-12
(PID.TID 0000.0001)  cg2d: iter=   116 ; resid.=  5.20593460605088E-12
(PID.TID 0000.0001)  cg2d: iter=   117 ; resid.=  4.24619330929103E-12
(PID.TID 0000.0001)  cg2d: iter=   118 ; resid.=  3.13839972264086E-12
(PID.TID 0000.0001)  cg2d: iter=   119 ; resid.=  2.43349989896901E-12
(PID.TID 0000.0001)  cg2d: iter=   120 ; resid.=  1.94651355055337E-12
(PID.TID 0000.0001)  cg2d: iter=   121 ; resid.=  1.44312769414690E-12
(PID.TID 0000.0001)  cg2d: iter=   122 ; resid.=  1.03327531028957E-12
(PID.TID 0000.0001)  cg2d: iter=   123 ; resid.=  7.33612108086004E-13
(PID.TID 0000.0001)  cg2d: iter=   124 ; resid.=  5.33928539886763E-13
(PID.TID 0000.0001)  cg2d: iter=   125 ; resid.=  4.03955237539370E-13
(PID.TID 0000.0001)  cg2d: iter=   126 ; resid.=  3.19827968490328E-13
(PID.TID 0000.0001)  cg2d: iter=   127 ; resid.=  2.42074546586896E-13
(PID.TID 0000.0001)  cg2d: iter=   128 ; resid.=  1.75332028496024E-13
(PID.TID 0000.0001)  cg2d: iter=   129 ; resid.=  1.16712302386968E-13
(PID.TID 0000.0001)  cg2d: iter=   130 ; resid.=  8.64451861167218E-14
DEBUG_STATS_RL:    cg2d_x (SOLVE_FOR_PRESSURE)  min= -1.59569232773580E+01
DEBUG_STATS_RL:    cg2d_x (SOLVE_FOR_PRESSURE)  max=  8.71248422775942E+00
DEBUG_STATS_RL:    cg2d_x (SOLVE_FOR_PRESSURE) mean= -1.67498751845601E+00
DEBUG_STATS_RL:    cg2d_x (SOLVE_FOR_PRESSURE) S.D.=  6.40223369678561E+00
(PID.TID 0000.0001)      cg2d_init_res =   4.04433623001025E-01
(PID.TID 0000.0001)      cg2d_iters(min,last) =      -1     130
(PID.TID 0000.0001)      cg2d_last_res =   8.64451861167218E-14
(PID.TID 0000.0001) // =======================================================
(PID.TID 0000.0001) // Begin MONITOR dynamic field statistics
(PID.TID 0000.0001) // =======================================================
(PID.TID 0000.0001) %MON time_tsnumber                =                    38
(PID.TID 0000.0001) %MON time_secondsf                =   3.2832000000000E+06
(PID.TID 0000.0001) %MON dynstat_eta_max              =   8.8812275512330E-01
(PID.TID 0000.0001) %MON dynstat_eta_min              =  -1.6265976837266E+00
(PID.TID 0000.0001) %MON dynstat_eta_mean             =  -2.8521753247723E-03
(PID.TID 0000.0001) %MON dynstat_eta_sd               =   5.6761308402563E-01
(PID.TID 0000.0001) %MON dynstat_eta_del2             =   2.1594330666462E-03
(PID.TID 0000.0001) %MON dynstat_uvel_max             =   1.3670429882582E-01
(PID.TID 0000.0001) %MON dynstat_uvel_min             =  -1.5309151505757E-01
(PID.TID 0000.0001) %MON dynstat_uvel_mean            =   1.4993225114658E-03
(PID.TID 0000.0001) %MON dynstat_uvel_sd              =   1.2434846736955E-02
(PID.TID 0000.0001) %MON dynstat_uvel_del2            =   7.9755650938455E-05
(PID.TID 0000.0001) %MON dynstat_vvel_max             =   1.0535155225662E-01
(PID.TID 0000.0001) %MON dynstat_vvel_min             =  -1.1263629021050E-01
(PID.TID 0000.0001) %MON dynstat_vvel_mean            =   9.7730754188768E-06
(PID.TID 0000.0001) %MON dynstat_vvel_sd              =   8.7153287050729E-03
(PID.TID 0000.0001) %MON dynstat_vvel_del2            =   7.5766905427023E-05
(PID.TID 0000.0001) %MON dynstat_wvel_max             =   8.4902684234376E-05
(PID.TID 0000.0001) %MON dynstat_wvel_min             =  -1.1703123657381E-04
(PID.TID 0000.0001) %MON dynstat_wvel_mean            =  -3.6962277803324E-22
(PID.TID 0000.0001) %MON dynstat_wvel_sd              =   1.3805546392771E-05
(PID.TID 0000.0001) %MON dynstat_wvel_del2            =   1.4986061184488E-07
(PID.TID 0000.0001) %MON dynstat_theta_max            =   2.9877395717903E+01
(PID.TID 0000.0001) %MON dynstat_theta_min            =  -1.9705106293269E+00
(PID.TID 0000.0001) %MON dynstat_theta_mean           =   3.6202062928541E+00
(PID.TID 0000.0001) %MON dynstat_theta_sd             =   4.4163982443017E+00
(PID.TID 0000.0001) %MON dynstat_theta_del2           =   4.6797646130779E-03
(PID.TID 0000.0001) %MON dynstat_salt_max             =   3.7453791749577E+01
(PID.TID 0000.0001) %MON dynstat_salt_min             =   2.9807486969519E+01
(PID.TID 0000.0001) %MON dynstat_salt_mean            =   3.4717291203242E+01
(PID.TID 0000.0001) %MON dynstat_salt_sd              =   2.9620471758567E-01
(PID.TID 0000.0001) %MON dynstat_salt_del2            =   9.7741372053304E-04
(PID.TID 0000.0001) %MON dynstat_sst_max              =   2.9877395717903E+01
(PID.TID 0000.0001) %MON dynstat_sst_min              =  -1.9705106293269E+00
(PID.TID 0000.0001) %MON dynstat_sst_mean             =   1.8697632107008E+01
(PID.TID 0000.0001) %MON dynstat_sst_sd               =   9.0781914976519E+00
(PID.TID 0000.0001) %MON dynstat_sst_del2             =   2.5053468265750E-02
(PID.TID 0000.0001) %MON dynstat_sss_max              =   3.7413437686880E+01
(PID.TID 0000.0001) %MON dynstat_sss_min              =   2.9807486969519E+01
(PID.TID 0000.0001) %MON dynstat_sss_mean             =   3.4843134327457E+01
(PID.TID 0000.0001) %MON dynstat_sss_sd               =   9.7522847121182E-01
(PID.TID 0000.0001) %MON dynstat_sss_del2             =   7.7188986904611E-03
(PID.TID 0000.0001) %MON forcing_qnet_max             =   3.6928591512044E+02
(PID.TID 0000.0001) %MON forcing_qnet_min             =  -1.7475012308757E+02
(PID.TID 0000.0001) %MON forcing_qnet_mean            =  -1.4644524318170E+01
(PID.TID 0000.0001) %MON forcing_qnet_sd              =   8.7147670189845E+01
(PID.TID 0000.0001) %MON forcing_qnet_del2            =   9.5844621620671E-01
(PID.TID 0000.0001) %MON forcing_qsw_max              =   0.0000000000000E+00
(PID.TID 0000.0001) %MON forcing_qsw_min              =   0.0000000000000E+00
(PID.TID 0000.0001) %MON forcing_qsw_mean             =   0.0000000000000E+00
(PID.TID 0000.0001) %MON forcing_qsw_sd               =   0.0000000000000E+00
(PID.TID 0000.0001) %MON forcing_qsw_del2             =   0.0000000000000E+00
(PID.TID 0000.0001) %MON forcing_empmr_max            =   7.5264264864927E-05
(PID.TID 0000.0001) %MON forcing_empmr_min            =  -7.7908129962149E-05
(PID.TID 0000.0001) %MON forcing_empmr_mean           =   9.3794980182971E-07
(PID.TID 0000.0001) %MON forcing_empmr_sd             =   2.8038849309164E-05
(PID.TID 0000.0001) %MON forcing_empmr_del2           =   3.5380115394232E-07
(PID.TID 0000.0001) %MON forcing_fu_max               =   2.9353826045990E-01
(PID.TID 0000.0001) %MON forcing_fu_min               =  -2.0245296061039E-01
(PID.TID 0000.0001) %MON forcing_fu_mean              =   1.7196339892884E-02
(PID.TID 0000.0001) %MON forcing_fu_sd                =   9.0980570230984E-02
(PID.TID 0000.0001) %MON forcing_fu_del2              =   6.8955771745794E-04
(PID.TID 0000.0001) %MON forcing_fv_max               =   1.8468924562136E-01
(PID.TID 0000.0001) %MON forcing_fv_min               =  -1.7430406411489E-01
(PID.TID 0000.0001) %MON forcing_fv_mean              =  -6.6946376872389E-03
(PID.TID 0000.0001) %MON forcing_fv_sd                =   4.4529984647436E-02
(PID.TID 0000.0001) %MON forcing_fv_del2              =   4.8899636453518E-04
(PID.TID 0000.0001) %MON trAdv_CFL_u_max              =   4.3156736586875E-02
(PID.TID 0000.0001) %MON trAdv_CFL_v_max              =   2.1767669561804E-02
(PID.TID 0000.0001) %MON trAdv_CFL_w_max              =   3.4253636987694E-02
(PID.TID 0000.0001) %MON advcfl_uvel_max              =   4.5185639967842E-02
(PID.TID 0000.0001) %MON advcfl_vvel_max              =   2.1883424718989E-02
(PID.TID 0000.0001) %MON advcfl_wvel_max              =   2.6458177544159E-02
(PID.TID 0000.0001) %MON advcfl_W_hf_max              =   3.2079889724205E-02
(PID.TID 0000.0001) %MON pe_b_mean                    =   4.1228445594825E-04
(PID.TID 0000.0001) %MON ke_max                       =   1.3749885093065E-02
(PID.TID 0000.0001) %MON ke_mean                      =   1.0537040067688E-04
(PID.TID 0000.0001) %MON ke_vol                       =   1.3226782436723E+18
(PID.TID 0000.0001) %MON vort_r_min                   =  -4.2543390050205E-07
(PID.TID 0000.0001) %MON vort_r_max                   =   4.1252828579343E-07
(PID.TID 0000.0001) %MON vort_a_mean                  =  -2.5274806993732E-05
(PID.TID 0000.0001) %MON vort_a_sd                    =   7.3604566495103E-05
(PID.TID 0000.0001) %MON vort_p_mean                  =  -3.1845655290796E-05
(PID.TID 0000.0001) %MON vort_p_sd                    =   1.3162461639715E-04
(PID.TID 0000.0001) %MON surfExpan_theta_mean         =   2.0017202149277E-07
(PID.TID 0000.0001) %MON surfExpan_salt_mean          =   4.2957551349021E-08
(PID.TID 0000.0001) // =======================================================
(PID.TID 0000.0001) // End MONITOR dynamic field statistics
(PID.TID 0000.0001) // =======================================================
 EXTERNAL_FIELDS_LOAD,        38 : iP,iLd,i0,i1=    1    2    1    2 ; Wght=  0.2333333333  0.7666666667
 EXTERNAL_FIELDS_LOAD: (fu0,1),fu,fv= -3.5633E-02 -1.4435E-02 -1.9381E-02 -2.6880E-02
 EXTERNAL_FIELDS_LOAD: SST,SSS,Q,E-P= -1.8412E-01  3.4490E+01  2.4638E+02  9.1377E-06
DEBUG_STATS_RL:          Uvel (THERMODYNAMICS)  min= -1.53091515057565E-01
DEBUG_STATS_RL:          Uvel (THERMODYNAMICS)  max=  1.36704298825817E-01
DEBUG_STATS_RL:          Uvel (THERMODYNAMICS) mean=  3.12366094679929E-03
DEBUG_STATS_RL:          Uvel (THERMODYNAMICS) S.D.=  2.10097303345066E-02
DEBUG_STATS_RL:          Vvel (THERMODYNAMICS)  min= -1.12636290210497E-01
DEBUG_STATS_RL:          Vvel (THERMODYNAMICS)  max=  1.05351552256623E-01
DEBUG_STATS_RL:          Vvel (THERMODYNAMICS) mean= -2.89425630797347E-04
DEBUG_STATS_RL:          Vvel (THERMODYNAMICS) S.D.=  1.33556946621500E-02
DEBUG_STATS_RL:          Wvel (THERMODYNAMICS)  min= -1.17031236573814E-04
DEBUG_STATS_RL:          Wvel (THERMODYNAMICS)  max=  8.49026842343762E-05
DEBUG_STATS_RL:          Wvel (THERMODYNAMICS) mean= -3.93369002912243E-07
DEBUG_STATS_RL:          Wvel (THERMODYNAMICS) S.D.=  1.22209502685516E-05
DEBUG_STATS_RL:         Theta (THERMODYNAMICS)  min= -1.96917132368370E+00
DEBUG_STATS_RL:         Theta (THERMODYNAMICS)  max=  2.98879769432209E+01
DEBUG_STATS_RL:         Theta (THERMODYNAMICS) mean=  3.20792380979669E+00
DEBUG_STATS_RL:         Theta (THERMODYNAMICS) S.D.=  5.85612509888347E+00
DEBUG_STATS_RL:          Salt (THERMODYNAMICS)  min= -6.85624969102121E-04
DEBUG_STATS_RL:          Salt (THERMODYNAMICS)  max=  3.74535379610037E+01
DEBUG_STATS_RL:          Salt (THERMODYNAMICS) mean=  1.88441132928703E+01
DEBUG_STATS_RL:          Salt (THERMODYNAMICS) S.D.=  1.73003187213148E+01
DEBUG_STATS_RL:         GtNm1 (THERMODYNAMICS)  min= -2.04224565869659E-06
DEBUG_STATS_RL:         GtNm1 (THERMODYNAMICS)  max=  2.40294548649094E-06
DEBUG_STATS_RL:         GtNm1 (THERMODYNAMICS) mean=  1.12611805786135E-08
DEBUG_STATS_RL:         GtNm1 (THERMODYNAMICS) S.D.=  1.78316006090546E-07
DEBUG_STATS_RL:         GsNm1 (THERMODYNAMICS)  min= -3.34592747090392E-07
DEBUG_STATS_RL:         GsNm1 (THERMODYNAMICS)  max=  3.71228673802715E-07
DEBUG_STATS_RL:         GsNm1 (THERMODYNAMICS) mean= -4.28757668233958E-11
DEBUG_STATS_RL:         GsNm1 (THERMODYNAMICS) S.D.=  1.68702548313760E-08
DEBUG_STATS_RL:                EtaN (DYNAMICS)  min= -1.62659768372660E+00
DEBUG_STATS_RL:                EtaN (DYNAMICS)  max=  8.88122755123298E-01
DEBUG_STATS_RL:                EtaN (DYNAMICS) mean= -1.70742866305404E-01
DEBUG_STATS_RL:                EtaN (DYNAMICS) S.D.=  6.52623210681511E-01
DEBUG_STATS_RL:                Uvel (DYNAMICS)  min= -1.53091515057565E-01
DEBUG_STATS_RL:                Uvel (DYNAMICS)  max=  1.36704298825817E-01
DEBUG_STATS_RL:                Uvel (DYNAMICS) mean=  3.12366094679929E-03
DEBUG_STATS_RL:                Uvel (DYNAMICS) S.D.=  2.10097303345066E-02
DEBUG_STATS_RL:                Vvel (DYNAMICS)  min= -1.12636290210497E-01
DEBUG_STATS_RL:                Vvel (DYNAMICS)  max=  1.05351552256623E-01
DEBUG_STATS_RL:                Vvel (DYNAMICS) mean= -2.89425630797347E-04
DEBUG_STATS_RL:                Vvel (DYNAMICS) S.D.=  1.33556946621500E-02
DEBUG_STATS_RL:                Wvel (DYNAMICS)  min= -1.17031236573814E-04
DEBUG_STATS_RL:                Wvel (DYNAMICS)  max=  8.49026842343762E-05
DEBUG_STATS_RL:                Wvel (DYNAMICS) mean= -3.93369002912243E-07
DEBUG_STATS_RL:                Wvel (DYNAMICS) S.D.=  1.22209502685516E-05
DEBUG_STATS_RL:               Theta (DYNAMICS)  min= -1.96917132368370E+00
DEBUG_STATS_RL:               Theta (DYNAMICS)  max=  2.98879769432209E+01
DEBUG_STATS_RL:               Theta (DYNAMICS) mean=  3.20792380979669E+00
DEBUG_STATS_RL:               Theta (DYNAMICS) S.D.=  5.85612509888347E+00
DEBUG_STATS_RL:                Salt (DYNAMICS)  min= -6.85624969102121E-04
DEBUG_STATS_RL:                Salt (DYNAMICS)  max=  3.74535379610037E+01
DEBUG_STATS_RL:                Salt (DYNAMICS) mean=  1.88441132928703E+01
DEBUG_STATS_RL:                Salt (DYNAMICS) S.D.=  1.73003187213148E+01
DEBUG_STATS_RL:                  Gu (DYNAMICS)  min= -1.50669627921842E-01
DEBUG_STATS_RL:                  Gu (DYNAMICS)  max=  1.41017302721776E-01
DEBUG_STATS_RL:                  Gu (DYNAMICS) mean=  3.25332369371051E-03
DEBUG_STATS_RL:                  Gu (DYNAMICS) S.D.=  2.20249446142375E-02
DEBUG_STATS_RL:                  Gv (DYNAMICS)  min= -1.08695038424695E-01
DEBUG_STATS_RL:                  Gv (DYNAMICS)  max=  1.02572101001599E-01
DEBUG_STATS_RL:                  Gv (DYNAMICS) mean=  2.09999864999725E-03
DEBUG_STATS_RL:                  Gv (DYNAMICS) S.D.=  1.35625180873284E-02
DEBUG_STATS_RL:               GuNm1 (DYNAMICS)  min= -8.13988494886260E-06
DEBUG_STATS_RL:               GuNm1 (DYNAMICS)  max=  8.13559805095236E-06
DEBUG_STATS_RL:               GuNm1 (DYNAMICS) mean= -2.07057994133615E-08
DEBUG_STATS_RL:               GuNm1 (DYNAMICS) S.D.=  1.17091859516073E-06
DEBUG_STATS_RL:               GvNm1 (DYNAMICS)  min= -1.02335870864919E-05
DEBUG_STATS_RL:               GvNm1 (DYNAMICS)  max=  1.63401727266983E-05
DEBUG_STATS_RL:               GvNm1 (DYNAMICS) mean=  7.52818838917222E-07
DEBUG_STATS_RL:               GvNm1 (DYNAMICS) S.D.=  2.60248273092972E-06
DEBUG_STATS_RL:               GtNm1 (DYNAMICS)  min= -2.04224565869659E-06
DEBUG_STATS_RL:               GtNm1 (DYNAMICS)  max=  2.40294548649094E-06
DEBUG_STATS_RL:               GtNm1 (DYNAMICS) mean=  1.12611805786135E-08
DEBUG_STATS_RL:               GtNm1 (DYNAMICS) S.D.=  1.78316006090546E-07
DEBUG_STATS_RL:               GsNm1 (DYNAMICS)  min= -3.34592747090392E-07
DEBUG_STATS_RL:               GsNm1 (DYNAMICS)  max=  3.71228673802715E-07
DEBUG_STATS_RL:               GsNm1 (DYNAMICS) mean= -4.28757668233958E-11
DEBUG_STATS_RL:               GsNm1 (DYNAMICS) S.D.=  1.68702548313760E-08
DEBUG_STATS_RL:    cg2d_b (SOLVE_FOR_PRESSURE)  min= -1.90163207716204E+04
DEBUG_STATS_RL:    cg2d_b (SOLVE_FOR_PRESSURE)  max=  2.01636668605799E+04
DEBUG_STATS_RL:    cg2d_b (SOLVE_FOR_PRESSURE) mean=  2.80870050379884E+00
DEBUG_STATS_RL:    cg2d_b (SOLVE_FOR_PRESSURE) S.D.=  3.64245692483756E+03
 cg2d: Sum(rhs),rhsMax =   3.22468215292955E-01  1.32440362612299E+00
(PID.TID 0000.0001)  cg2d: iter=     1 ; resid.=  9.90112793569389E-02
(PID.TID 0000.0001)  cg2d: iter=     2 ; resid.=  4.92658959557593E-02
(PID.TID 0000.0001)  cg2d: iter=     3 ; resid.=  3.77129796761064E-02
(PID.TID 0000.0001)  cg2d: iter=     4 ; resid.=  3.81481880120633E-02
(PID.TID 0000.0001)  cg2d: iter=     5 ; resid.=  3.79106686286211E-02
(PID.TID 0000.0001)  cg2d: iter=     6 ; resid.=  3.39103765684031E-02
(PID.TID 0000.0001)  cg2d: iter=     7 ; resid.=  2.68043256035862E-02
(PID.TID 0000.0001)  cg2d: iter=     8 ; resid.=  2.12264249533785E-02
(PID.TID 0000.0001)  cg2d: iter=     9 ; resid.=  1.68230503824590E-02
(PID.TID 0000.0001)  cg2d: iter=    10 ; resid.=  1.41193646097646E-02
(PID.TID 0000.0001)  cg2d: iter=    11 ; resid.=  1.20656362086869E-02
(PID.TID 0000.0001)  cg2d: iter=    12 ; resid.=  1.00764521636850E-02
(PID.TID 0000.0001)  cg2d: iter=    13 ; resid.=  8.39411947609676E-03
(PID.TID 0000.0001)  cg2d: iter=    14 ; resid.=  7.29595086383150E-03
(PID.TID 0000.0001)  cg2d: iter=    15 ; resid.=  6.03606345344522E-03
(PID.TID 0000.0001)  cg2d: iter=    16 ; resid.=  5.15432441975965E-03
(PID.TID 0000.0001)  cg2d: iter=    17 ; resid.=  4.89133943434284E-03
(PID.TID 0000.0001)  cg2d: iter=    18 ; resid.=  4.38092000872334E-03
(PID.TID 0000.0001)  cg2d: iter=    19 ; resid.=  3.61582105205659E-03
(PID.TID 0000.0001)  cg2d: iter=    20 ; resid.=  2.91134745787239E-03
(PID.TID 0000.0001)  cg2d: iter=    21 ; resid.=  2.17576918123309E-03
(PID.TID 0000.0001)  cg2d: iter=    22 ; resid.=  1.78969777362996E-03
(PID.TID 0000.0001)  cg2d: iter=    23 ; resid.=  1.55871444710323E-03
(PID.TID 0000.0001)  cg2d: iter=    24 ; resid.=  1.34104189129710E-03
(PID.TID 0000.0001)  cg2d: iter=    25 ; resid.=  1.14942967000784E-03
(PID.TID 0000.0001)  cg2d: iter=    26 ; resid.=  9.70479770847993E-04
(PID.TID 0000.0001)  cg2d: iter=    27 ; resid.=  8.37954337098883E-04
(PID.TID 0000.0001)  cg2d: iter=    28 ; resid.=  7.60317600359230E-04
(PID.TID 0000.0001)  cg2d: iter=    29 ; resid.=  6.17748207657174E-04
(PID.TID 0000.0001)  cg2d: iter=    30 ; resid.=  4.69060583052719E-04
(PID.TID 0000.0001)  cg2d: iter=    31 ; resid.=  3.74225828409112E-04
(PID.TID 0000.0001)  cg2d: iter=    32 ; resid.=  3.02485980513135E-04
(PID.TID 0000.0001)  cg2d: iter=    33 ; resid.=  2.51699115553167E-04
(PID.TID 0000.0001)  cg2d: iter=    34 ; resid.=  1.91277570350418E-04
(PID.TID 0000.0001)  cg2d: iter=    35 ; resid.=  1.45170183718567E-04
(PID.TID 0000.0001)  cg2d: iter=    36 ; resid.=  1.25138409102883E-04
(PID.TID 0000.0001)  cg2d: iter=    37 ; resid.=  1.20588536071100E-04
(PID.TID 0000.0001)  cg2d: iter=    38 ; resid.=  1.15185762821140E-04
(PID.TID 0000.0001)  cg2d: iter=    39 ; resid.=  9.76530093518325E-05
(PID.TID 0000.0001)  cg2d: iter=    40 ; resid.=  7.60857686970460E-05
(PID.TID 0000.0001)  cg2d: iter=    41 ; resid.=  6.21318645478099E-05
(PID.TID 0000.0001)  cg2d: iter=    42 ; resid.=  5.59368404454447E-05
(PID.TID 0000.0001)  cg2d: iter=    43 ; resid.=  4.98817112404534E-05
(PID.TID 0000.0001)  cg2d: iter=    44 ; resid.=  4.23718304702445E-05
(PID.TID 0000.0001)  cg2d: iter=    45 ; resid.=  3.33829106579404E-05
(PID.TID 0000.0001)  cg2d: iter=    46 ; resid.=  2.64777594675302E-05
(PID.TID 0000.0001)  cg2d: iter=    47 ; resid.=  2.05528313712056E-05
(PID.TID 0000.0001)  cg2d: iter=    48 ; resid.=  1.62254961310720E-05
(PID.TID 0000.0001)  cg2d: iter=    49 ; resid.=  1.20517361816371E-05
(PID.TID 0000.0001)  cg2d: iter=    50 ; resid.=  9.54489518137663E-06
(PID.TID 0000.0001)  cg2d: iter=    51 ; resid.=  7.94945729441055E-06
(PID.TID 0000.0001)  cg2d: iter=    52 ; resid.=  7.21488599697071E-06
(PID.TID 0000.0001)  cg2d: iter=    53 ; resid.=  6.55986135232035E-06
(PID.TID 0000.0001)  cg2d: iter=    54 ; resid.=  5.36326879898358E-06
(PID.TID 0000.0001)  cg2d: iter=    55 ; resid.=  4.41888984507177E-06
(PID.TID 0000.0001)  cg2d: iter=    56 ; resid.=  3.75750597771256E-06
(PID.TID 0000.0001)  cg2d: iter=    57 ; resid.=  3.23147148496601E-06
(PID.TID 0000.0001)  cg2d: iter=    58 ; resid.=  2.81559319311621E-06
(PID.TID 0000.0001)  cg2d: iter=    59 ; resid.=  2.31532776261111E-06
(PID.TID 0000.0001)  cg2d: iter=    60 ; resid.=  1.69003165875866E-06
(PID.TID 0000.0001)  cg2d: iter=    61 ; resid.=  1.19848508010440E-06
(PID.TID 0000.0001)  cg2d: iter=    62 ; resid.=  8.91507781623866E-07
(PID.TID 0000.0001)  cg2d: iter=    63 ; resid.=  7.00453608704817E-07
(PID.TID 0000.0001)  cg2d: iter=    64 ; resid.=  6.01833281499297E-07
(PID.TID 0000.0001)  cg2d: iter=    65 ; resid.=  4.73294440628341E-07
(PID.TID 0000.0001)  cg2d: iter=    66 ; resid.=  3.78817951239810E-07
(PID.TID 0000.0001)  cg2d: iter=    67 ; resid.=  3.25607804310781E-07
(PID.TID 0000.0001)  cg2d: iter=    68 ; resid.=  2.75072520498096E-07
(PID.TID 0000.0001)  cg2d: iter=    69 ; resid.=  2.25791995814022E-07
(PID.TID 0000.0001)  cg2d: iter=    70 ; resid.=  1.75838446537232E-07
(PID.TID 0000.0001)  cg2d: iter=    71 ; resid.=  1.46051080141673E-07
(PID.TID 0000.0001)  cg2d: iter=    72 ; resid.=  1.31672510649093E-07
(PID.TID 0000.0001)  cg2d: iter=    73 ; resid.=  1.22306061425692E-07
(PID.TID 0000.0001)  cg2d: iter=    74 ; resid.=  1.01856860186157E-07
(PID.TID 0000.0001)  cg2d: iter=    75 ; resid.=  8.50618787719694E-08
(PID.TID 0000.0001)  cg2d: iter=    76 ; resid.=  6.85251709350769E-08
(PID.TID 0000.0001)  cg2d: iter=    77 ; resid.=  5.62227848206457E-08
(PID.TID 0000.0001)  cg2d: iter=    78 ; resid.=  4.65064309751929E-08
(PID.TID 0000.0001)  cg2d: iter=    79 ; resid.=  3.99912819268446E-08
(PID.TID 0000.0001)  cg2d: iter=    80 ; resid.=  3.34327064603450E-08
(PID.TID 0000.0001)  cg2d: iter=    81 ; resid.=  2.66907259539374E-08
(PID.TID 0000.0001)  cg2d: iter=    82 ; resid.=  2.03869954942426E-08
(PID.TID 0000.0001)  cg2d: iter=    83 ; resid.=  1.55255310271210E-08
(PID.TID 0000.0001)  cg2d: iter=    84 ; resid.=  1.20487665089230E-08
(PID.TID 0000.0001)  cg2d: iter=    85 ; resid.=  8.94208606703341E-09
(PID.TID 0000.0001)  cg2d: iter=    86 ; resid.=  6.42933491850345E-09
(PID.TID 0000.0001)  cg2d: iter=    87 ; resid.=  4.95308194858159E-09
(PID.TID 0000.0001)  cg2d: iter=    88 ; resid.=  3.61727528475798E-09
(PID.TID 0000.0001)  cg2d: iter=    89 ; resid.=  2.76783308651360E-09
(PID.TID 0000.0001)  cg2d: iter=    90 ; resid.=  2.36872165314446E-09
(PID.TID 0000.0001)  cg2d: iter=    91 ; resid.=  2.18917818220777E-09
(PID.TID 0000.0001)  cg2d: iter=    92 ; resid.=  1.86940855035897E-09
(PID.TID 0000.0001)  cg2d: iter=    93 ; resid.=  1.42359721702019E-09
(PID.TID 0000.0001)  cg2d: iter=    94 ; resid.=  1.02966708040252E-09
(PID.TID 0000.0001)  cg2d: iter=    95 ; resid.=  8.32549664858687E-10
(PID.TID 0000.0001)  cg2d: iter=    96 ; resid.=  7.30563051270063E-10
(PID.TID 0000.0001)  cg2d: iter=    97 ; resid.=  5.89475855414949E-10
(PID.TID 0000.0001)  cg2d: iter=    98 ; resid.=  4.34552743048466E-10
(PID.TID 0000.0001)  cg2d: iter=    99 ; resid.=  3.09251740104942E-10
(PID.TID 0000.0001)  cg2d: iter=   100 ; resid.=  2.41567592602271E-10
(PID.TID 0000.0001)  cg2d: iter=   101 ; resid.=  2.09959957030142E-10
(PID.TID 0000.0001)  cg2d: iter=   102 ; resid.=  1.98607102247031E-10
(PID.TID 0000.0001)  cg2d: iter=   103 ; resid.=  1.70392304922559E-10
(PID.TID 0000.0001)  cg2d: iter=   104 ; resid.=  1.43541333308909E-10
(PID.TID 0000.0001)  cg2d: iter=   105 ; resid.=  1.18579225150194E-10
(PID.TID 0000.0001)  cg2d: iter=   106 ; resid.=  9.42871877608386E-11
(PID.TID 0000.0001)  cg2d: iter=   107 ; resid.=  7.28652405350523E-11
(PID.TID 0000.0001)  cg2d: iter=   108 ; resid.=  5.48487625271297E-11
(PID.TID 0000.0001)  cg2d: iter=   109 ; resid.=  4.21377367743088E-11
(PID.TID 0000.0001)  cg2d: iter=   110 ; resid.=  2.85306667944609E-11
(PID.TID 0000.0001)  cg2d: iter=   111 ; resid.=  2.04241647286554E-11
(PID.TID 0000.0001)  cg2d: iter=   112 ; resid.=  1.62228376457890E-11
(PID.TID 0000.0001)  cg2d: iter=   113 ; resid.=  1.32279571272511E-11
(PID.TID 0000.0001)  cg2d: iter=   114 ; resid.=  9.85178898209407E-12
(PID.TID 0000.0001)  cg2d: iter=   115 ; resid.=  7.26957037457502E-12
(PID.TID 0000.0001)  cg2d: iter=   116 ; resid.=  5.21127805747732E-12
(PID.TID 0000.0001)  cg2d: iter=   117 ; resid.=  3.98134401666683E-12
(PID.TID 0000.0001)  cg2d: iter=   118 ; resid.=  2.89893669146584E-12
(PID.TID 0000.0001)  cg2d: iter=   119 ; resid.=  2.29240566947472E-12
(PID.TID 0000.0001)  cg2d: iter=   120 ; resid.=  1.87964367936855E-12
(PID.TID 0000.0001)  cg2d: iter=   121 ; resid.=  1.42945400989615E-12
(PID.TID 0000.0001)  cg2d: iter=   122 ; resid.=  1.06729560319727E-12
(PID.TID 0000.0001)  cg2d: iter=   123 ; resid.=  8.07871393239830E-13
(PID.TID 0000.0001)  cg2d: iter=   124 ; resid.=  6.11347970707451E-13
(PID.TID 0000.0001)  cg2d: iter=   125 ; resid.=  4.64785026354492E-13
(PID.TID 0000.0001)  cg2d: iter=   126 ; resid.=  3.53675064354851E-13
(PID.TID 0000.0001)  cg2d: iter=   127 ; resid.=  2.56558050226074E-13
(PID.TID 0000.0001)  cg2d: iter=   128 ; resid.=  1.86637607899207E-13
(PID.TID 0000.0001)  cg2d: iter=   129 ; resid.=  1.28557412588969E-13
(PID.TID 0000.0001)  cg2d: iter=   130 ; resid.=  9.65402268250793E-14
DEBUG_STATS_RL:    cg2d_x (SOLVE_FOR_PRESSURE)  min= -1.59120519965135E+01
DEBUG_STATS_RL:    cg2d_x (SOLVE_FOR_PRESSURE)  max=  8.61723127332704E+00
DEBUG_STATS_RL:    cg2d_x (SOLVE_FOR_PRESSURE) mean= -1.67933300487988E+00
DEBUG_STATS_RL:    cg2d_x (SOLVE_FOR_PRESSURE) S.D.=  6.41107712733384E+00
(PID.TID 0000.0001)      cg2d_init_res =   3.96640662819252E-01
(PID.TID 0000.0001)      cg2d_iters(min,last) =      -1     130
(PID.TID 0000.0001)      cg2d_last_res =   9.65402268250793E-14
(PID.TID 0000.0001) // =======================================================
(PID.TID 0000.0001) // Begin MONITOR dynamic field statistics
(PID.TID 0000.0001) // =======================================================
(PID.TID 0000.0001) %MON time_tsnumber                =                    39
(PID.TID 0000.0001) %MON time_secondsf                =   3.3696000000000E+06
(PID.TID 0000.0001) %MON dynstat_eta_max              =   8.7841297383567E-01
(PID.TID 0000.0001) %MON dynstat_eta_min              =  -1.6220236489820E+00
(PID.TID 0000.0001) %MON dynstat_eta_mean             =  -2.9305307083492E-03
(PID.TID 0000.0001) %MON dynstat_eta_sd               =   5.6778555426533E-01
(PID.TID 0000.0001) %MON dynstat_eta_del2             =   2.1573525210721E-03
(PID.TID 0000.0001) %MON dynstat_uvel_max             =   1.4126023635478E-01
(PID.TID 0000.0001) %MON dynstat_uvel_min             =  -1.4980637201384E-01
(PID.TID 0000.0001) %MON dynstat_uvel_mean            =   1.5168928678740E-03
(PID.TID 0000.0001) %MON dynstat_uvel_sd              =   1.2819276190021E-02
(PID.TID 0000.0001) %MON dynstat_uvel_del2            =   8.1118573957803E-05
(PID.TID 0000.0001) %MON dynstat_vvel_max             =   1.0551191258137E-01
(PID.TID 0000.0001) %MON dynstat_vvel_min             =  -1.1348172462325E-01
(PID.TID 0000.0001) %MON dynstat_vvel_mean            =   1.9422044598967E-05
(PID.TID 0000.0001) %MON dynstat_vvel_sd              =   8.7823672863026E-03
(PID.TID 0000.0001) %MON dynstat_vvel_del2            =   7.5868971664119E-05
(PID.TID 0000.0001) %MON dynstat_wvel_max             =   8.7440088328713E-05
(PID.TID 0000.0001) %MON dynstat_wvel_min             =  -1.1924624635396E-04
(PID.TID 0000.0001) %MON dynstat_wvel_mean            =  -2.6743305235754E-22
(PID.TID 0000.0001) %MON dynstat_wvel_sd              =   1.3751386895444E-05
(PID.TID 0000.0001) %MON dynstat_wvel_del2            =   1.4621677764153E-07
(PID.TID 0000.0001) %MON dynstat_theta_max            =   2.9887976943221E+01
(PID.TID 0000.0001) %MON dynstat_theta_min            =  -1.9691713236837E+00
(PID.TID 0000.0001) %MON dynstat_theta_mean           =   3.6202629390199E+00
(PID.TID 0000.0001) %MON dynstat_theta_sd             =   4.4165512198892E+00
(PID.TID 0000.0001) %MON dynstat_theta_del2           =   4.6664286524770E-03
(PID.TID 0000.0001) %MON dynstat_salt_max             =   3.7453537961004E+01
(PID.TID 0000.0001) %MON dynstat_salt_min             =   2.9808145941781E+01
(PID.TID 0000.0001) %MON dynstat_salt_mean            =   3.4717291638466E+01
(PID.TID 0000.0001) %MON dynstat_salt_sd              =   2.9620500911780E-01
(PID.TID 0000.0001) %MON dynstat_salt_del2            =   9.7582181064702E-04
(PID.TID 0000.0001) %MON dynstat_sst_max              =   2.9887976943221E+01
(PID.TID 0000.0001) %MON dynstat_sst_min              =  -1.9691713236837E+00
(PID.TID 0000.0001) %MON dynstat_sst_mean             =   1.8705914637052E+01
(PID.TID 0000.0001) %MON dynstat_sst_sd               =   9.0761166400839E+00
(PID.TID 0000.0001) %MON dynstat_sst_del2             =   2.4979399547367E-02
(PID.TID 0000.0001) %MON dynstat_sss_max              =   3.7411235994649E+01
(PID.TID 0000.0001) %MON dynstat_sss_min              =   2.9808145941781E+01
(PID.TID 0000.0001) %MON dynstat_sss_mean             =   3.4843173938609E+01
(PID.TID 0000.0001) %MON dynstat_sss_sd               =   9.7522659053528E-01
(PID.TID 0000.0001) %MON dynstat_sss_del2             =   7.7025303142120E-03
(PID.TID 0000.0001) %MON forcing_qnet_max             =   3.6793170572917E+02
(PID.TID 0000.0001) %MON forcing_qnet_min             =  -1.7451060384115E+02
(PID.TID 0000.0001) %MON forcing_qnet_mean            =  -1.4559615150767E+01
(PID.TID 0000.0001) %MON forcing_qnet_sd              =   8.6177901833202E+01
(PID.TID 0000.0001) %MON forcing_qnet_del2            =   9.5684138500013E-01
(PID.TID 0000.0001) %MON forcing_qsw_max              =   0.0000000000000E+00
(PID.TID 0000.0001) %MON forcing_qsw_min              =   0.0000000000000E+00
(PID.TID 0000.0001) %MON forcing_qsw_mean             =   0.0000000000000E+00
(PID.TID 0000.0001) %MON forcing_qsw_sd               =   0.0000000000000E+00
(PID.TID 0000.0001) %MON forcing_qsw_del2             =   0.0000000000000E+00
(PID.TID 0000.0001) %MON forcing_empmr_max            =   7.4950175132926E-05
(PID.TID 0000.0001) %MON forcing_empmr_min            =  -7.7987774223705E-05
(PID.TID 0000.0001) %MON forcing_empmr_mean           =   9.3863219908967E-07
(PID.TID 0000.0001) %MON forcing_empmr_sd             =   2.8025183724210E-05
(PID.TID 0000.0001) %MON forcing_empmr_del2           =   3.5387045439018E-07
(PID.TID 0000.0001) %MON forcing_fu_max               =   2.9492541849613E-01
(PID.TID 0000.0001) %MON forcing_fu_min               =  -2.0411288440228E-01
(PID.TID 0000.0001) %MON forcing_fu_mean              =   1.7250640108353E-02
(PID.TID 0000.0001) %MON forcing_fu_sd                =   9.1176576117499E-02
(PID.TID 0000.0001) %MON forcing_fu_del2              =   6.9491420823166E-04
(PID.TID 0000.0001) %MON forcing_fv_max               =   1.8680121054252E-01
(PID.TID 0000.0001) %MON forcing_fv_min               =  -1.7747596303622E-01
(PID.TID 0000.0001) %MON forcing_fv_mean              =  -6.7598985939541E-03
(PID.TID 0000.0001) %MON forcing_fv_sd                =   4.4539193201071E-02
(PID.TID 0000.0001) %MON forcing_fv_del2              =   4.9416249691419E-04
(PID.TID 0000.0001) %MON trAdv_CFL_u_max              =   4.5194817494493E-02
(PID.TID 0000.0001) %MON trAdv_CFL_v_max              =   2.2009227783170E-02
(PID.TID 0000.0001) %MON trAdv_CFL_w_max              =   3.2079889724205E-02
(PID.TID 0000.0001) %MON advcfl_uvel_max              =   4.6691539596955E-02
(PID.TID 0000.0001) %MON advcfl_vvel_max              =   2.2047679066250E-02
(PID.TID 0000.0001) %MON advcfl_wvel_max              =   2.8684787958064E-02
(PID.TID 0000.0001) %MON advcfl_W_hf_max              =   3.4421745549677E-02
(PID.TID 0000.0001) %MON pe_b_mean                    =   4.1253561421237E-04
(PID.TID 0000.0001) %MON ke_max                       =   1.3639732670291E-02
(PID.TID 0000.0001) %MON ke_mean                      =   1.1033191048966E-04
(PID.TID 0000.0001) %MON ke_vol                       =   1.3226782436723E+18
(PID.TID 0000.0001) %MON vort_r_min                   =  -4.3805200650081E-07
(PID.TID 0000.0001) %MON vort_r_max                   =   4.0996490701563E-07
(PID.TID 0000.0001) %MON vort_a_mean                  =  -2.5274807005922E-05
(PID.TID 0000.0001) %MON vort_a_sd                    =   7.3604566437651E-05
(PID.TID 0000.0001) %MON vort_p_mean                  =  -3.1845655306155E-05
(PID.TID 0000.0001) %MON vort_p_sd                    =   1.3162450514520E-04
(PID.TID 0000.0001) %MON surfExpan_theta_mean         =   1.8828320033503E-07
(PID.TID 0000.0001) %MON surfExpan_salt_mean          =   4.7328563111433E-08
(PID.TID 0000.0001) // =======================================================
(PID.TID 0000.0001) // End MONITOR dynamic field statistics
(PID.TID 0000.0001) // =======================================================
 EXTERNAL_FIELDS_LOAD,        39 : iP,iLd,i0,i1=    1    2    1    2 ; Wght=  0.2000000000  0.8000000000
 EXTERNAL_FIELDS_LOAD: (fu0,1),fu,fv= -3.5633E-02 -1.4435E-02 -1.8674E-02 -2.5560E-02
 EXTERNAL_FIELDS_LOAD: SST,SSS,Q,E-P= -2.3380E-01  3.4480E+01  2.4554E+02  9.0291E-06
DEBUG_STATS_RL:          Uvel (THERMODYNAMICS)  min= -1.49806372013840E-01
DEBUG_STATS_RL:          Uvel (THERMODYNAMICS)  max=  1.41260236354785E-01
DEBUG_STATS_RL:          Uvel (THERMODYNAMICS) mean=  3.42472728073450E-03
DEBUG_STATS_RL:          Uvel (THERMODYNAMICS) S.D.=  2.17335250353936E-02
DEBUG_STATS_RL:          Vvel (THERMODYNAMICS)  min= -1.13481724623253E-01
DEBUG_STATS_RL:          Vvel (THERMODYNAMICS)  max=  1.05511912581366E-01
DEBUG_STATS_RL:          Vvel (THERMODYNAMICS) mean= -1.86217099707347E-04
DEBUG_STATS_RL:          Vvel (THERMODYNAMICS) S.D.=  1.34741010501216E-02
DEBUG_STATS_RL:          Wvel (THERMODYNAMICS)  min= -1.19246246353963E-04
DEBUG_STATS_RL:          Wvel (THERMODYNAMICS)  max=  8.74400883287129E-05
DEBUG_STATS_RL:          Wvel (THERMODYNAMICS) mean= -3.81791751138455E-07
DEBUG_STATS_RL:          Wvel (THERMODYNAMICS) S.D.=  1.20908648316117E-05
DEBUG_STATS_RL:         Theta (THERMODYNAMICS)  min= -1.96779845978360E+00
DEBUG_STATS_RL:         Theta (THERMODYNAMICS)  max=  2.98977318586567E+01
DEBUG_STATS_RL:         Theta (THERMODYNAMICS) mean=  3.20841085401419E+00
DEBUG_STATS_RL:         Theta (THERMODYNAMICS) S.D.=  5.85668639006897E+00
DEBUG_STATS_RL:          Salt (THERMODYNAMICS)  min= -6.85624969102121E-04
DEBUG_STATS_RL:          Salt (THERMODYNAMICS)  max=  3.74532648499599E+01
DEBUG_STATS_RL:          Salt (THERMODYNAMICS) mean=  1.88441189070742E+01
DEBUG_STATS_RL:          Salt (THERMODYNAMICS) S.D.=  1.73003242249255E+01
DEBUG_STATS_RL:         GtNm1 (THERMODYNAMICS)  min= -2.01081519772481E-06
DEBUG_STATS_RL:         GtNm1 (THERMODYNAMICS)  max=  2.92375869869572E-06
DEBUG_STATS_RL:         GtNm1 (THERMODYNAMICS) mean=  1.13314273589696E-08
DEBUG_STATS_RL:         GtNm1 (THERMODYNAMICS) S.D.=  1.78615471466493E-07
DEBUG_STATS_RL:         GsNm1 (THERMODYNAMICS)  min= -3.34090080074211E-07
DEBUG_STATS_RL:         GsNm1 (THERMODYNAMICS)  max=  3.91724258223626E-07
DEBUG_STATS_RL:         GsNm1 (THERMODYNAMICS) mean=  3.37072132785742E-11
DEBUG_STATS_RL:         GsNm1 (THERMODYNAMICS) S.D.=  1.71331974858234E-08
DEBUG_STATS_RL:                EtaN (DYNAMICS)  min= -1.62202364898202E+00
DEBUG_STATS_RL:                EtaN (DYNAMICS)  max=  8.78412973835672E-01
DEBUG_STATS_RL:                EtaN (DYNAMICS) mean= -1.71185831282353E-01
DEBUG_STATS_RL:                EtaN (DYNAMICS) S.D.=  6.53524681685407E-01
DEBUG_STATS_RL:                Uvel (DYNAMICS)  min= -1.49806372013840E-01
DEBUG_STATS_RL:                Uvel (DYNAMICS)  max=  1.41260236354785E-01
DEBUG_STATS_RL:                Uvel (DYNAMICS) mean=  3.42472728073450E-03
DEBUG_STATS_RL:                Uvel (DYNAMICS) S.D.=  2.17335250353936E-02
DEBUG_STATS_RL:                Vvel (DYNAMICS)  min= -1.13481724623253E-01
DEBUG_STATS_RL:                Vvel (DYNAMICS)  max=  1.05511912581366E-01
DEBUG_STATS_RL:                Vvel (DYNAMICS) mean= -1.86217099707347E-04
DEBUG_STATS_RL:                Vvel (DYNAMICS) S.D.=  1.34741010501216E-02
DEBUG_STATS_RL:                Wvel (DYNAMICS)  min= -1.19246246353963E-04
DEBUG_STATS_RL:                Wvel (DYNAMICS)  max=  8.74400883287129E-05
DEBUG_STATS_RL:                Wvel (DYNAMICS) mean= -3.81791751138455E-07
DEBUG_STATS_RL:                Wvel (DYNAMICS) S.D.=  1.20908648316117E-05
DEBUG_STATS_RL:               Theta (DYNAMICS)  min= -1.96779845978360E+00
DEBUG_STATS_RL:               Theta (DYNAMICS)  max=  2.98977318586567E+01
DEBUG_STATS_RL:               Theta (DYNAMICS) mean=  3.20841085401419E+00
DEBUG_STATS_RL:               Theta (DYNAMICS) S.D.=  5.85668639006897E+00
DEBUG_STATS_RL:                Salt (DYNAMICS)  min= -6.85624969102121E-04
DEBUG_STATS_RL:                Salt (DYNAMICS)  max=  3.74532648499599E+01
DEBUG_STATS_RL:                Salt (DYNAMICS) mean=  1.88441189070742E+01
DEBUG_STATS_RL:                Salt (DYNAMICS) S.D.=  1.73003242249255E+01
DEBUG_STATS_RL:                  Gu (DYNAMICS)  min= -1.46977427954323E-01
DEBUG_STATS_RL:                  Gu (DYNAMICS)  max=  1.47241169004758E-01
DEBUG_STATS_RL:                  Gu (DYNAMICS) mean=  3.54750110207396E-03
DEBUG_STATS_RL:                  Gu (DYNAMICS) S.D.=  2.27000409181163E-02
DEBUG_STATS_RL:                  Gv (DYNAMICS)  min= -1.09357143173722E-01
DEBUG_STATS_RL:                  Gv (DYNAMICS)  max=  1.02368470154549E-01
DEBUG_STATS_RL:                  Gv (DYNAMICS) mean=  2.25700215563523E-03
DEBUG_STATS_RL:                  Gv (DYNAMICS) S.D.=  1.37036780165455E-02
DEBUG_STATS_RL:               GuNm1 (DYNAMICS)  min= -8.23156257604359E-06
DEBUG_STATS_RL:               GuNm1 (DYNAMICS)  max=  8.20765942989975E-06
DEBUG_STATS_RL:               GuNm1 (DYNAMICS) mean= -2.03035694503510E-08
DEBUG_STATS_RL:               GuNm1 (DYNAMICS) S.D.=  1.16838569487507E-06
DEBUG_STATS_RL:               GvNm1 (DYNAMICS)  min= -1.01345930151577E-05
DEBUG_STATS_RL:               GvNm1 (DYNAMICS)  max=  1.63307300721987E-05
DEBUG_STATS_RL:               GvNm1 (DYNAMICS) mean=  7.52142854103229E-07
DEBUG_STATS_RL:               GvNm1 (DYNAMICS) S.D.=  2.59636298183062E-06
DEBUG_STATS_RL:               GtNm1 (DYNAMICS)  min= -2.01081519772481E-06
DEBUG_STATS_RL:               GtNm1 (DYNAMICS)  max=  2.92375869869572E-06
DEBUG_STATS_RL:               GtNm1 (DYNAMICS) mean=  1.13314273589696E-08
DEBUG_STATS_RL:               GtNm1 (DYNAMICS) S.D.=  1.78615471466493E-07
DEBUG_STATS_RL:               GsNm1 (DYNAMICS)  min= -3.34090080074211E-07
DEBUG_STATS_RL:               GsNm1 (DYNAMICS)  max=  3.91724258223626E-07
DEBUG_STATS_RL:               GsNm1 (DYNAMICS) mean=  3.37072132785742E-11
DEBUG_STATS_RL:               GsNm1 (DYNAMICS) S.D.=  1.71331974858234E-08
DEBUG_STATS_RL:    cg2d_b (SOLVE_FOR_PRESSURE)  min= -1.89513181416804E+04
DEBUG_STATS_RL:    cg2d_b (SOLVE_FOR_PRESSURE)  max=  2.06005481754155E+04
DEBUG_STATS_RL:    cg2d_b (SOLVE_FOR_PRESSURE) mean=  2.88385303615958E+00
DEBUG_STATS_RL:    cg2d_b (SOLVE_FOR_PRESSURE) S.D.=  3.62472108665394E+03
 cg2d: Sum(rhs),rhsMax =   3.24074860623365E-01  1.35309916059865E+00
(PID.TID 0000.0001)  cg2d: iter=     1 ; resid.=  9.79827310709658E-02
(PID.TID 0000.0001)  cg2d: iter=     2 ; resid.=  4.83731586345867E-02
(PID.TID 0000.0001)  cg2d: iter=     3 ; resid.=  3.90630914268130E-02
(PID.TID 0000.0001)  cg2d: iter=     4 ; resid.=  4.10044432550813E-02
(PID.TID 0000.0001)  cg2d: iter=     5 ; resid.=  4.03842432680295E-02
(PID.TID 0000.0001)  cg2d: iter=     6 ; resid.=  3.58355861208343E-02
(PID.TID 0000.0001)  cg2d: iter=     7 ; resid.=  2.81758122138093E-02
(PID.TID 0000.0001)  cg2d: iter=     8 ; resid.=  2.26706167935764E-02
(PID.TID 0000.0001)  cg2d: iter=     9 ; resid.=  1.83495517471336E-02
(PID.TID 0000.0001)  cg2d: iter=    10 ; resid.=  1.56515541257531E-02
(PID.TID 0000.0001)  cg2d: iter=    11 ; resid.=  1.32789909343874E-02
(PID.TID 0000.0001)  cg2d: iter=    12 ; resid.=  1.08242076897482E-02
(PID.TID 0000.0001)  cg2d: iter=    13 ; resid.=  8.82834081425324E-03
(PID.TID 0000.0001)  cg2d: iter=    14 ; resid.=  7.52334563345314E-03
(PID.TID 0000.0001)  cg2d: iter=    15 ; resid.=  6.23157121453602E-03
(PID.TID 0000.0001)  cg2d: iter=    16 ; resid.=  5.42956800485222E-03
(PID.TID 0000.0001)  cg2d: iter=    17 ; resid.=  5.27976188332965E-03
(PID.TID 0000.0001)  cg2d: iter=    18 ; resid.=  4.71174693107392E-03
(PID.TID 0000.0001)  cg2d: iter=    19 ; resid.=  3.87370259509570E-03
(PID.TID 0000.0001)  cg2d: iter=    20 ; resid.=  3.11838155605231E-03
(PID.TID 0000.0001)  cg2d: iter=    21 ; resid.=  2.35668881931167E-03
(PID.TID 0000.0001)  cg2d: iter=    22 ; resid.=  1.98482031976986E-03
(PID.TID 0000.0001)  cg2d: iter=    23 ; resid.=  1.74572245004816E-03
(PID.TID 0000.0001)  cg2d: iter=    24 ; resid.=  1.49554529572106E-03
(PID.TID 0000.0001)  cg2d: iter=    25 ; resid.=  1.26573215426702E-03
(PID.TID 0000.0001)  cg2d: iter=    26 ; resid.=  1.05675885254892E-03
(PID.TID 0000.0001)  cg2d: iter=    27 ; resid.=  8.94749279163883E-04
(PID.TID 0000.0001)  cg2d: iter=    28 ; resid.=  7.89795628356288E-04
(PID.TID 0000.0001)  cg2d: iter=    29 ; resid.=  6.33095942361127E-04
(PID.TID 0000.0001)  cg2d: iter=    30 ; resid.=  4.80326218384960E-04
(PID.TID 0000.0001)  cg2d: iter=    31 ; resid.=  3.82419876426806E-04
(PID.TID 0000.0001)  cg2d: iter=    32 ; resid.=  3.11698829122417E-04
(PID.TID 0000.0001)  cg2d: iter=    33 ; resid.=  2.65201842767327E-04
(PID.TID 0000.0001)  cg2d: iter=    34 ; resid.=  2.06325467104719E-04
(PID.TID 0000.0001)  cg2d: iter=    35 ; resid.=  1.60801378993316E-04
(PID.TID 0000.0001)  cg2d: iter=    36 ; resid.=  1.43442697817257E-04
(PID.TID 0000.0001)  cg2d: iter=    37 ; resid.=  1.38581883668377E-04
(PID.TID 0000.0001)  cg2d: iter=    38 ; resid.=  1.28791658787679E-04
(PID.TID 0000.0001)  cg2d: iter=    39 ; resid.=  1.07320025340113E-04
(PID.TID 0000.0001)  cg2d: iter=    40 ; resid.=  8.28168298506251E-05
(PID.TID 0000.0001)  cg2d: iter=    41 ; resid.=  6.88891825801196E-05
(PID.TID 0000.0001)  cg2d: iter=    42 ; resid.=  6.16963115233379E-05
(PID.TID 0000.0001)  cg2d: iter=    43 ; resid.=  5.36622444571929E-05
(PID.TID 0000.0001)  cg2d: iter=    44 ; resid.=  4.41618045304552E-05
(PID.TID 0000.0001)  cg2d: iter=    45 ; resid.=  3.39688751064426E-05
(PID.TID 0000.0001)  cg2d: iter=    46 ; resid.=  2.64477829121684E-05
(PID.TID 0000.0001)  cg2d: iter=    47 ; resid.=  2.04132777066076E-05
(PID.TID 0000.0001)  cg2d: iter=    48 ; resid.=  1.60562090087874E-05
(PID.TID 0000.0001)  cg2d: iter=    49 ; resid.=  1.20788252486102E-05
(PID.TID 0000.0001)  cg2d: iter=    50 ; resid.=  9.63315021659365E-06
(PID.TID 0000.0001)  cg2d: iter=    51 ; resid.=  7.90399062697770E-06
(PID.TID 0000.0001)  cg2d: iter=    52 ; resid.=  6.93562252892297E-06
(PID.TID 0000.0001)  cg2d: iter=    53 ; resid.=  6.20928247334067E-06
(PID.TID 0000.0001)  cg2d: iter=    54 ; resid.=  5.19195904697878E-06
(PID.TID 0000.0001)  cg2d: iter=    55 ; resid.=  4.37906591272706E-06
(PID.TID 0000.0001)  cg2d: iter=    56 ; resid.=  3.76023018010858E-06
(PID.TID 0000.0001)  cg2d: iter=    57 ; resid.=  3.27305483369135E-06
(PID.TID 0000.0001)  cg2d: iter=    58 ; resid.=  2.85714516051666E-06
(PID.TID 0000.0001)  cg2d: iter=    59 ; resid.=  2.30951781689849E-06
(PID.TID 0000.0001)  cg2d: iter=    60 ; resid.=  1.65607725305762E-06
(PID.TID 0000.0001)  cg2d: iter=    61 ; resid.=  1.17164573510378E-06
(PID.TID 0000.0001)  cg2d: iter=    62 ; resid.=  8.96320781028490E-07
(PID.TID 0000.0001)  cg2d: iter=    63 ; resid.=  7.34289197790913E-07
(PID.TID 0000.0001)  cg2d: iter=    64 ; resid.=  6.60465198279266E-07
(PID.TID 0000.0001)  cg2d: iter=    65 ; resid.=  5.37045025618413E-07
(PID.TID 0000.0001)  cg2d: iter=    66 ; resid.=  4.39458474737336E-07
(PID.TID 0000.0001)  cg2d: iter=    67 ; resid.=  3.78933735554890E-07
(PID.TID 0000.0001)  cg2d: iter=    68 ; resid.=  3.15590105400203E-07
(PID.TID 0000.0001)  cg2d: iter=    69 ; resid.=  2.58553452660806E-07
(PID.TID 0000.0001)  cg2d: iter=    70 ; resid.=  2.06050066233771E-07
(PID.TID 0000.0001)  cg2d: iter=    71 ; resid.=  1.75458318581373E-07
(PID.TID 0000.0001)  cg2d: iter=    72 ; resid.=  1.58802272199421E-07
(PID.TID 0000.0001)  cg2d: iter=    73 ; resid.=  1.45486709011644E-07
(PID.TID 0000.0001)  cg2d: iter=    74 ; resid.=  1.19349273690873E-07
(PID.TID 0000.0001)  cg2d: iter=    75 ; resid.=  9.68509666655950E-08
(PID.TID 0000.0001)  cg2d: iter=    76 ; resid.=  7.59165666147470E-08
(PID.TID 0000.0001)  cg2d: iter=    77 ; resid.=  6.16909493476089E-08
(PID.TID 0000.0001)  cg2d: iter=    78 ; resid.=  5.17692723826605E-08
(PID.TID 0000.0001)  cg2d: iter=    79 ; resid.=  4.46361476111037E-08
(PID.TID 0000.0001)  cg2d: iter=    80 ; resid.=  3.59142357679834E-08
(PID.TID 0000.0001)  cg2d: iter=    81 ; resid.=  2.77118435669304E-08
(PID.TID 0000.0001)  cg2d: iter=    82 ; resid.=  2.10623851007812E-08
(PID.TID 0000.0001)  cg2d: iter=    83 ; resid.=  1.63103313168151E-08
(PID.TID 0000.0001)  cg2d: iter=    84 ; resid.=  1.26249981843124E-08
(PID.TID 0000.0001)  cg2d: iter=    85 ; resid.=  9.41251698471021E-09
(PID.TID 0000.0001)  cg2d: iter=    86 ; resid.=  6.87783581800343E-09
(PID.TID 0000.0001)  cg2d: iter=    87 ; resid.=  5.43106037297225E-09
(PID.TID 0000.0001)  cg2d: iter=    88 ; resid.=  3.98160402175146E-09
(PID.TID 0000.0001)  cg2d: iter=    89 ; resid.=  2.99255071253717E-09
(PID.TID 0000.0001)  cg2d: iter=    90 ; resid.=  2.43808837234939E-09
(PID.TID 0000.0001)  cg2d: iter=    91 ; resid.=  2.16708599976374E-09
(PID.TID 0000.0001)  cg2d: iter=    92 ; resid.=  1.83751803360318E-09
(PID.TID 0000.0001)  cg2d: iter=    93 ; resid.=  1.40827325430764E-09
(PID.TID 0000.0001)  cg2d: iter=    94 ; resid.=  1.02096141967696E-09
(PID.TID 0000.0001)  cg2d: iter=    95 ; resid.=  8.20360829677139E-10
(PID.TID 0000.0001)  cg2d: iter=    96 ; resid.=  7.15237754661097E-10
(PID.TID 0000.0001)  cg2d: iter=    97 ; resid.=  5.71433033811417E-10
(PID.TID 0000.0001)  cg2d: iter=    98 ; resid.=  4.10923936384580E-10
(PID.TID 0000.0001)  cg2d: iter=    99 ; resid.=  2.87047530165261E-10
(PID.TID 0000.0001)  cg2d: iter=   100 ; resid.=  2.26396816308503E-10
(PID.TID 0000.0001)  cg2d: iter=   101 ; resid.=  1.96829728058647E-10
(PID.TID 0000.0001)  cg2d: iter=   102 ; resid.=  1.79227649694550E-10
(PID.TID 0000.0001)  cg2d: iter=   103 ; resid.=  1.49944953332745E-10
(PID.TID 0000.0001)  cg2d: iter=   104 ; resid.=  1.30523327781906E-10
(PID.TID 0000.0001)  cg2d: iter=   105 ; resid.=  1.16025974468547E-10
(PID.TID 0000.0001)  cg2d: iter=   106 ; resid.=  9.69566155328958E-11
(PID.TID 0000.0001)  cg2d: iter=   107 ; resid.=  7.52117293625177E-11
(PID.TID 0000.0001)  cg2d: iter=   108 ; resid.=  5.60608571094375E-11
(PID.TID 0000.0001)  cg2d: iter=   109 ; resid.=  4.29585048940777E-11
(PID.TID 0000.0001)  cg2d: iter=   110 ; resid.=  2.88521943890891E-11
(PID.TID 0000.0001)  cg2d: iter=   111 ; resid.=  2.10503682214675E-11
(PID.TID 0000.0001)  cg2d: iter=   112 ; resid.=  1.70028915689594E-11
(PID.TID 0000.0001)  cg2d: iter=   113 ; resid.=  1.36959021695195E-11
(PID.TID 0000.0001)  cg2d: iter=   114 ; resid.=  1.00891250740935E-11
(PID.TID 0000.0001)  cg2d: iter=   115 ; resid.=  7.26315984046423E-12
(PID.TID 0000.0001)  cg2d: iter=   116 ; resid.=  5.03647308353779E-12
(PID.TID 0000.0001)  cg2d: iter=   117 ; resid.=  3.73653454976077E-12
(PID.TID 0000.0001)  cg2d: iter=   118 ; resid.=  2.67023115240895E-12
(PID.TID 0000.0001)  cg2d: iter=   119 ; resid.=  2.06933805969041E-12
(PID.TID 0000.0001)  cg2d: iter=   120 ; resid.=  1.69150972555483E-12
(PID.TID 0000.0001)  cg2d: iter=   121 ; resid.=  1.31134244619076E-12
(PID.TID 0000.0001)  cg2d: iter=   122 ; resid.=  1.00173057527446E-12
(PID.TID 0000.0001)  cg2d: iter=   123 ; resid.=  7.68198068496480E-13
(PID.TID 0000.0001)  cg2d: iter=   124 ; resid.=  5.83553478316793E-13
(PID.TID 0000.0001)  cg2d: iter=   125 ; resid.=  4.49222723589011E-13
(PID.TID 0000.0001)  cg2d: iter=   126 ; resid.=  3.46497930433377E-13
(PID.TID 0000.0001)  cg2d: iter=   127 ; resid.=  2.53346875193902E-13
(PID.TID 0000.0001)  cg2d: iter=   128 ; resid.=  1.91183752792205E-13
(PID.TID 0000.0001)  cg2d: iter=   129 ; resid.=  1.38483376657781E-13
(PID.TID 0000.0001)  cg2d: iter=   130 ; resid.=  1.05278748900705E-13
(PID.TID 0000.0001)  cg2d: iter=   131 ; resid.=  7.99369742282383E-14
DEBUG_STATS_RL:    cg2d_x (SOLVE_FOR_PRESSURE)  min= -1.58951142094519E+01
DEBUG_STATS_RL:    cg2d_x (SOLVE_FOR_PRESSURE)  max=  8.52079433342208E+00
DEBUG_STATS_RL:    cg2d_x (SOLVE_FOR_PRESSURE) mean= -1.68291288090706E+00
DEBUG_STATS_RL:    cg2d_x (SOLVE_FOR_PRESSURE) S.D.=  6.42033511345214E+00
(PID.TID 0000.0001)      cg2d_init_res =   3.87814686299128E-01
(PID.TID 0000.0001)      cg2d_iters(min,last) =      -1     131
(PID.TID 0000.0001)      cg2d_last_res =   7.99369742282383E-14
(PID.TID 0000.0001) // =======================================================
(PID.TID 0000.0001) // Begin MONITOR dynamic field statistics
(PID.TID 0000.0001) // =======================================================
(PID.TID 0000.0001) %MON time_tsnumber                =                    40
(PID.TID 0000.0001) %MON time_secondsf                =   3.4560000000000E+06
(PID.TID 0000.0001) %MON dynstat_eta_max              =   8.6858250085849E-01
(PID.TID 0000.0001) %MON dynstat_eta_min              =  -1.6202970651836E+00
(PID.TID 0000.0001) %MON dynstat_eta_mean             =  -3.0089430572613E-03
(PID.TID 0000.0001) %MON dynstat_eta_sd               =   5.6796044587512E-01
(PID.TID 0000.0001) %MON dynstat_eta_del2             =   2.1565970746604E-03
(PID.TID 0000.0001) %MON dynstat_uvel_max             =   1.4647848024466E-01
(PID.TID 0000.0001) %MON dynstat_uvel_min             =  -1.4606920433239E-01
(PID.TID 0000.0001) %MON dynstat_uvel_mean            =   1.5359302138105E-03
(PID.TID 0000.0001) %MON dynstat_uvel_sd              =   1.3190027512476E-02
(PID.TID 0000.0001) %MON dynstat_uvel_del2            =   8.2404851624629E-05
(PID.TID 0000.0001) %MON dynstat_vvel_max             =   1.0512229433576E-01
(PID.TID 0000.0001) %MON dynstat_vvel_min             =  -1.1392063327081E-01
(PID.TID 0000.0001) %MON dynstat_vvel_mean            =   3.0216943256099E-05
(PID.TID 0000.0001) %MON dynstat_vvel_sd              =   8.8171568175761E-03
(PID.TID 0000.0001) %MON dynstat_vvel_del2            =   7.5874318383768E-05
(PID.TID 0000.0001) %MON dynstat_wvel_max             =   8.9495101258312E-05
(PID.TID 0000.0001) %MON dynstat_wvel_min             =  -1.1995137985702E-04
(PID.TID 0000.0001) %MON dynstat_wvel_mean            =   1.4301744840794E-22
(PID.TID 0000.0001) %MON dynstat_wvel_sd              =   1.3671857133140E-05
(PID.TID 0000.0001) %MON dynstat_wvel_del2            =   1.4289081748084E-07
(PID.TID 0000.0001) %MON dynstat_theta_max            =   2.9897731858657E+01
(PID.TID 0000.0001) %MON dynstat_theta_min            =  -1.9677984597836E+00
(PID.TID 0000.0001) %MON dynstat_theta_mean           =   3.6203187198350E+00
(PID.TID 0000.0001) %MON dynstat_theta_sd             =   4.4167058009877E+00
(PID.TID 0000.0001) %MON dynstat_theta_del2           =   4.6540721437635E-03
(PID.TID 0000.0001) %MON dynstat_salt_max             =   3.7453264849960E+01
(PID.TID 0000.0001) %MON dynstat_salt_min             =   2.9809060386487E+01
(PID.TID 0000.0001) %MON dynstat_salt_mean            =   3.4717291979011E+01
(PID.TID 0000.0001) %MON dynstat_salt_sd              =   2.9620415154604E-01
(PID.TID 0000.0001) %MON dynstat_salt_del2            =   9.7423372078567E-04
(PID.TID 0000.0001) %MON dynstat_sst_max              =   2.9897731858657E+01
(PID.TID 0000.0001) %MON dynstat_sst_min              =  -1.9677984597836E+00
(PID.TID 0000.0001) %MON dynstat_sst_mean             =   1.8714275067541E+01
(PID.TID 0000.0001) %MON dynstat_sst_sd               =   9.0743856874559E+00
(PID.TID 0000.0001) %MON dynstat_sst_del2             =   2.4880086122072E-02
(PID.TID 0000.0001) %MON dynstat_sss_max              =   3.7408926670673E+01
(PID.TID 0000.0001) %MON dynstat_sss_min              =   2.9809060386487E+01
(PID.TID 0000.0001) %MON dynstat_sss_mean             =   3.4843271804857E+01
(PID.TID 0000.0001) %MON dynstat_sss_sd               =   9.7518918516047E-01
(PID.TID 0000.0001) %MON dynstat_sss_del2             =   7.6810125647877E-03
(PID.TID 0000.0001) %MON forcing_qnet_max             =   3.6657749633789E+02
(PID.TID 0000.0001) %MON forcing_qnet_min             =  -1.7427108459473E+02
(PID.TID 0000.0001) %MON forcing_qnet_mean            =  -1.4474705983364E+01
(PID.TID 0000.0001) %MON forcing_qnet_sd              =   8.5215174338696E+01
(PID.TID 0000.0001) %MON forcing_qnet_del2            =   9.5536523035188E-01
(PID.TID 0000.0001) %MON forcing_qsw_max              =   0.0000000000000E+00
(PID.TID 0000.0001) %MON forcing_qsw_min              =   0.0000000000000E+00
(PID.TID 0000.0001) %MON forcing_qsw_mean             =   0.0000000000000E+00
(PID.TID 0000.0001) %MON forcing_qsw_sd               =   0.0000000000000E+00
(PID.TID 0000.0001) %MON forcing_qsw_del2             =   0.0000000000000E+00
(PID.TID 0000.0001) %MON forcing_empmr_max            =   7.4636085400925E-05
(PID.TID 0000.0001) %MON forcing_empmr_min            =  -7.8067418485261E-05
(PID.TID 0000.0001) %MON forcing_empmr_mean           =   9.3931459634963E-07
(PID.TID 0000.0001) %MON forcing_empmr_sd             =   2.8013374744488E-05
(PID.TID 0000.0001) %MON forcing_empmr_del2           =   3.5400124581310E-07
(PID.TID 0000.0001) %MON forcing_fu_max               =   2.9631257653236E-01
(PID.TID 0000.0001) %MON forcing_fu_min               =  -2.0577280819416E-01
(PID.TID 0000.0001) %MON forcing_fu_mean              =   1.7304940323822E-02
(PID.TID 0000.0001) %MON forcing_fu_sd                =   9.1389471133942E-02
(PID.TID 0000.0001) %MON forcing_fu_del2              =   7.0083075453383E-04
(PID.TID 0000.0001) %MON forcing_fv_max               =   1.8891317546368E-01
(PID.TID 0000.0001) %MON forcing_fv_min               =  -1.8064786195755E-01
(PID.TID 0000.0001) %MON forcing_fv_mean              =  -6.8251595006693E-03
(PID.TID 0000.0001) %MON forcing_fv_sd                =   4.4564502921920E-02
(PID.TID 0000.0001) %MON forcing_fv_del2              =   4.9975827974748E-04
(PID.TID 0000.0001) %MON trAdv_CFL_u_max              =   4.6701022982591E-02
(PID.TID 0000.0001) %MON trAdv_CFL_v_max              =   2.2174426393061E-02
(PID.TID 0000.0001) %MON trAdv_CFL_w_max              =   2.9753986900989E-02
(PID.TID 0000.0001) %MON advcfl_uvel_max              =   4.8416355068726E-02
(PID.TID 0000.0001) %MON advcfl_vvel_max              =   2.2132951977222E-02
(PID.TID 0000.0001) %MON advcfl_wvel_max              =   3.0794789038328E-02
(PID.TID 0000.0001) %MON advcfl_W_hf_max              =   3.6953746845994E-02
(PID.TID 0000.0001) %MON pe_b_mean                    =   4.1279038432433E-04
(PID.TID 0000.0001) %MON ke_max                       =   1.3494884253682E-02
(PID.TID 0000.0001) %MON ke_mean                      =   1.1501438718137E-04
(PID.TID 0000.0001) %MON ke_vol                       =   1.3226782436723E+18
(PID.TID 0000.0001) %MON vort_r_min                   =  -4.4941862936651E-07
(PID.TID 0000.0001) %MON vort_r_max                   =   4.0647741089452E-07
(PID.TID 0000.0001) %MON vort_a_mean                  =  -2.5274807021373E-05
(PID.TID 0000.0001) %MON vort_a_sd                    =   7.3604566429350E-05
(PID.TID 0000.0001) %MON vort_p_mean                  =  -3.1845655325623E-05
(PID.TID 0000.0001) %MON vort_p_sd                    =   1.3162441103868E-04
(PID.TID 0000.0001) %MON surfExpan_theta_mean         =   1.8026625043898E-07
(PID.TID 0000.0001) %MON surfExpan_salt_mean          =   5.0851229785935E-08
(PID.TID 0000.0001) // =======================================================
(PID.TID 0000.0001) // End MONITOR dynamic field statistics
(PID.TID 0000.0001) // =======================================================
(PID.TID 0000.0001) // =======================================================
(PID.TID 0000.0001) // Field Current uVel   at iteration         40
(PID.TID 0000.0001) // CMIN =         -1.460692043323865E-01
(PID.TID 0000.0001) // CMAX =          1.464784802446605E-01
(PID.TID 0000.0001) // CINT =          1.083509942877952E-02
(PID.TID 0000.0001) // SYMBOLS (CMIN->CMAX): -abcdefghijklmnopqrstuvwxyz+
(PID.TID 0000.0001) //                  0.0: .
(PID.TID 0000.0001) // RANGE I (Lo:Hi:Step):(     1:    90:     1)
(PID.TID 0000.0001) // RANGE J (Lo:Hi:Step):(    40:     1:    -1)
(PID.TID 0000.0001) // RANGE K (Lo:Hi:Step):(   1:   1:   1)
(PID.TID 0000.0001) // =======================================================
(PID.TID 0000.0001) K =   1
(PID.TID 0000.0001)                I=10      I=20      I=30      I=40      I=50      I=60      I=70      I=80      I=90
(PID.TID 0000.0001) |--J--|123456789|123456789|123456789|123456789|123456789|123456789|123456789|123456789|123456789|
(PID.TID 0000.0001)     40 mmnmm..mmmmnnnnnnnn...................................................................mllm
(PID.TID 0000.0001)     39 nooonnnnnnnnnn....n......................................................mmm.........lkklm
(PID.TID 0000.0001)     38 oppponnnnnnnn............................................................mmmm.......lkllnn
(PID.TID 0000.0001)     37 ppo...................................................................n....ll....lmlm..opp
(PID.TID 0000.0001)     36 qp..........................................mlm.....................mmnnnnmkjk..lmmnppqqqr
(PID.TID 0000.0001)     35 po..................................mlm...mllklm....mmmn............nn.....nmmmmmopqrrrsqp
(PID.TID 0000.0001)     34 ....................................mml..mmmlllm..nmmnnnn...................oppqrssstttq..
(PID.TID 0000.0001)     33 .....................................mmmlmnnnnooooopqqqponm..................prsuvvuttrpn.
(PID.TID 0000.0001)     32 .....................................mnnnoopqqppqppqqqqppoo.................qrsrsttsrqppn.
(PID.TID 0000.0001)     31 .....................................mnoooopppppppppppooopp...............psvtsrrrrppooo..
(PID.TID 0000.0001)     30 ....................................poooooppoonooooonnnnnoo.............qppppppppppoonno..
(PID.TID 0000.0001)     29 ..................................nopoooonnnnnmmnnnnmmnnnnnn............qponnnnnnoonnnnn..
(PID.TID 0000.0001)     28 ................................noonmmmmmmlmmnmmmmnnnnnonmmmm..........nonnmmmmmmnnnmmnn..
(PID.TID 0000.0001)     27 ...............m...............oponmlmmlmnmmmmmmnnnoooooonmlll....mmn..poooonmmnonnnmm....
(PID.TID 0000.0001)     26 ...............mn............lnnomkkkkllmnmmmllmnnmnnnnmmlkkklmm..mnppopooponnnnnnmllk....
(PID.TID 0000.0001)     25 ...............mlm....mn....jilklhfeefhhijiiiiiijkjjiiihggfhjkllm....llljllkkjijkkihhh....
(PID.TID 0000.0001)     24 .............jkjjjl..lll....ij..jca--abbcdcddddeghgfeedcacceghijjjkl..ihhhfggfefggfefg....
(PID.TID 0000.0001)     23 .............feefhi..hhi....ik...ebaa-abbabcddfhiiiihiiihhghhhihghhij.....gfhfefggghhj....
(PID.TID 0000.0001)     22 m............dbccdfigfgi....k..lfiigfeefeeefhiikkklllmoonlkkkkmljjkjjl.......jgefgilmmoopn
(PID.TID 0000.0001)     21 lml.........ihfeddgiikkon......pmnmljjjjiiijkjkkjkllllnmmlkkkmnnllkjln.........ighjmnmmnom
(PID.TID 0000.0001)     20 kmk........kkmmmkijlmnnon.........nmmmkllmmmnlllklljlklkkkjikmmmjkjiil..........khikkkkmnl
(PID.TID 0000.0001)     19 mmk........lknpqnkjklllkkkl....oo......mmopopooonnmklkkkjihhiihhghihhj............iiijlljj
(PID.TID 0000.0001)     18 jkk........lehigfdfhhhghijkmoopoo....opnoopppqppooonmllkjigffedeefghghk...........jhijkjhh
(PID.TID 0000.0001)     17 fgj..........ifcacfghhiiijlnopo......oooooonnnoonnooonlkkjhgfeeeeeghgfh..........nlihhgfee
(PID.TID 0000.0001)     16 deg.......p..mkihkklmkmmllmnnn........noppooooopppppponnmkjjihhhhhiihghk.........pmkiheeee
(PID.TID 0000.0001)     15 gfgj.....mn..onnnonqqppponmmn..........mopppqppqrrrrrqpoonnmlkkkjkkjjihil.......opnmmkihgh
(PID.TID 0000.0001)     14 jiii.....omlmoooppnppmooonmlm..........nnooqqqpqrrssrqqppppnmmmlllllkkjjk......nponnnlkkjj
(PID.TID 0000.0001)     13 kkkj.....mmmmmmnnnnnmlmmmmmll..........nnnooppoppqqqppppoponnonllmmmmlkll.....noonnmmmmllk
(PID.TID 0000.0001)     12 lmmkllkmmmmmlkkllmmmmmmmmmmllmnnnm.....nnnnnnnnnnoonnnoonnnnnomlmnnmmmml......oonnonnnnmml
(PID.TID 0000.0001)     11 ooomllmppppppooonoooooooonnnnnoonnn...onnnn..onnnnmmnnmmnnnnnnmmnoonnnnm.....noppppppppooo
(PID.TID 0000.0001)     10 rrrqqrtuuuvwvuvvuuuusrrrrrrqqqqpponn..ooonn..pponmmnnonmnnnopooopqqpppon...onpqqrrsssttssr
(PID.TID 0000.0001)      9 vvvvwwxwwxxxxwyzxxwwvvvvvvuuutsssrrrqpqqqp..pppppppppppppqqrrqqrrsrrqqpn..noqsttuuuvvvwxww
(PID.TID 0000.0001)      8 wxxyyyxwwwwwwwwwutuuwxxwwwwwvvvwwwyzywwvusrqqrrstuvvvuuuuvvuutsttsssssro..pqrtuvuuvuuvwwww
(PID.TID 0000.0001)      7 uvvvutsttttuuuuttssstuuuuutttuvwxxy++zzyyxwuttuuvxyyzzyxxwvuuuuuuuuuuuuutstttuuutssssssttt
(PID.TID 0000.0001)      6 qqqppppqrrrrrrrrrrrqppqqrrrrrsttuuvuuuvvwxxwvvvvwwwwwwwwvuttttuuuvvvvwwwxwxxxwvusrqqqqqqqq
(PID.TID 0000.0001)      5 nnnnnooooopooooppppoonooooooppqqpqqqqqrstuvwvuuuuttsrrqrrssssttttuuuuvvvvutsssrqqppooooonn
(PID.TID 0000.0001)      4 llllmmnnnnmmmmnnnnnnnnnmmmmnnnnnnnnnoonnopqrrrrqpppoonnoopqrrrrrrrrrrrrqpo...nnnnnnnnnmmml
(PID.TID 0000.0001)      3 mmllmmmmmm.............................mmmnnnnonnmmmmmmmnnoooooooooonnnnn...mmnmmmmmmmmmmm
(PID.TID 0000.0001)      2 ...........................................mnnnnnmmmmmmmmmmmnnmm...mmm......nnnnmmmmmmm...
(PID.TID 0000.0001)      1 ..........................................................................................
(PID.TID 0000.0001) // =======================================================
(PID.TID 0000.0001) // END OF FIELD                                          =
(PID.TID 0000.0001) // =======================================================
(PID.TID 0000.0001) 
(PID.TID 0000.0001) // =======================================================
(PID.TID 0000.0001) // Field Current vVel   at iteration         40
(PID.TID 0000.0001) // CMIN =         -1.139206332708135E-01
(PID.TID 0000.0001) // CMAX =          1.051222943357581E-01
(PID.TID 0000.0001) // CINT =          8.112701022465616E-03
(PID.TID 0000.0001) // SYMBOLS (CMIN->CMAX): -abcdefghijklmnopqrstuvwxyz+
(PID.TID 0000.0001) //                  0.0: .
(PID.TID 0000.0001) // RANGE I (Lo:Hi:Step):(     1:    90:     1)
(PID.TID 0000.0001) // RANGE J (Lo:Hi:Step):(    40:     1:    -1)
(PID.TID 0000.0001) // RANGE K (Lo:Hi:Step):(   1:   1:   1)
(PID.TID 0000.0001) // =======================================================
(PID.TID 0000.0001) K =   1
(PID.TID 0000.0001)                I=10      I=20      I=30      I=40      I=50      I=60      I=70      I=80      I=90
(PID.TID 0000.0001) |--J--|123456789|123456789|123456789|123456789|123456789|123456789|123456789|123456789|123456789|
(PID.TID 0000.0001)     40 moqrp.mnnnnonn...nn..................................................................mmmml
(PID.TID 0000.0001)     39 nnooommmmmnoo...........................................................nnmn........kmmnnn
(PID.TID 0000.0001)     38 noo.......................................................................mmn......mk.oonn
(PID.TID 0000.0001)     37 op...................................................................nn...mmm...kmqqo.nnmm
(PID.TID 0000.0001)     36 pp.........................................qrrp....................nmn....kjjl.jjnpqpnmnnm
(PID.TID 0000.0001)     35 ...................................mmnn..pqqrrqo...mnprr...................ihijklnpppoqr..
(PID.TID 0000.0001)     34 ....................................llm.nooopqqp.oooprrrq...................jgjlmoqrqpqo..
(PID.TID 0000.0001)     33 ....................................nlklmnoopqqpqqqrssrqppo.................pkmpppqqpnmmo.
(PID.TID 0000.0001)     32 ....................................nmllnoopqqppqqqrssrqonn................sqmopononmllm..
(PID.TID 0000.0001)     31 ....................................opnnooonnonnooopqqqpnmn..............pssppoonnnnnmno..
(PID.TID 0000.0001)     30 ...................................pqpnmmnmlkkkkkklmmnnmmmm............surromllllmmmmmno..
(PID.TID 0000.0001)     29 .................................nnmlkjiiihgfghhhhhikkkllmmm...........oomljjjlnnnmmnnon..
(PID.TID 0000.0001)     28 ...............................ppnmkihgggggffgggghhhjkklmnmmm.........nllkjjkklmnnmnnn....
(PID.TID 0000.0001)     27 ..............no..............srqpponmkjjihijjjjkllllmmnoooomm...ooqp.onmmmnonoqrrqqpo....
(PID.TID 0000.0001)     26 ..............pqr...........qvxywwvutttsrpoopppqqrqqrrsttsrrpnmn....rrqoooqrrrtuuuutro....
(PID.TID 0000.0001)     25 ..............rtvs...qnm...ors.+zzzxxxzzxvvuuuuvvwvuvwwwxwutsqomm....tvvsstuuvxxxvuttu....
(PID.TID 0000.0001)     24 ............nqtuurl.npml...oqn..osvwwxyzzzwwvvuuvwwuuvvuvwwvutrpppqq.....orutvxywusrtw....
(PID.TID 0000.0001)     23 ............mpsttql.hjkl...lq...-hlmnoqstrpqppopqrrrstttuwvtsrpnnpqrp.......nquwvttsrr....
(PID.TID 0000.0001)     22 q...........jlnppnkjggkm......nibdgghijlkjkjjlmoqstttuvwwvtspmllmnooml........rqqrsssqpnnp
(PID.TID 0000.0001)     21 lkj........klmkiggijilorp......m.kklmnponllmnoqqsstvvvxyywvuspppponooo.........mnrttutrpom
(PID.TID 0000.0001)     20 iij.......oostrlhhlopqrsq......l......srqpoqqqrrrqrtuuvwwvvvvvvutsqqqn...........vuutsqqrn
(PID.TID 0000.0001)     19 iik.......pqyzzvpmnprqqpmlm...mmm.....ssppoooononnnoqrrrqpprsssspoopqp...........rppppoool
(PID.TID 0000.0001)     18 llm.......q.ywurojhhjnmkjlllnon.....lnnmmmlkkkklmlklnoonkklnnnnnkjjnrrp..........nmlmoomnn
(PID.TID 0000.0001)     17 mnn.......r.npnkiecdejkihiklno.......nnllllkjiiijjklmnlkiijkkklljijlppn.........mmmlmonklm
(PID.TID 0000.0001)     16 jkm......po.monmlklmlijjjjlln.........mmmmmklmlllllmnnmkkjjkklmmkjjkmmmm........mnmlklkjjj
(PID.TID 0000.0001)     15 kjkl....mmm.mnonomknomlmmlkkm.........mmnnonopoooooppponnnoooooomkllllmmm......mnpommnnmll
(PID.TID 0000.0001)     14 mmml....moomlnpppomnommmmmkjk.........omnoooppppooppopppoppooqpoonnnnmmnn.....mnoqqpoonoon
(PID.TID 0000.0001)     13 oooo....mnpomnoooppponnnonmmm.........nmnnoonoooooopopppooonnpooponoooop.....nmnnpqooonooo
(PID.TID 0000.0001)     12 nooopmihfhlmllnonnnonmmnnnnnmnnnnn....mmnmn.mmnnnnmmnoooonnnnnnnponnnopp.....lmmmmommnmmno
(PID.TID 0000.0001)     11 nnmliiigedfhfeikkjjjkklllmnnmmnnmno..mlmmmm.lklmnnmmmnnopnmnnlkmpponmooo....hjnmkklkklkkmn
(PID.TID 0000.0001)     10 nmmnlkkjihikifgikkihilmmllmnmmmnmmpq.llmmm..nkllnnnnnmlnpqponmlnpqqpooom..pnhkopnllljkkjkm
(PID.TID 0000.0001)      9 mnnooomlmllnponmptokkmoponnnmlllkjmpnlmmmn.qolllmmmmnmlmnoqponnorsrqqpll.nrqnnprqonmlmonlm
(PID.TID 0000.0001)      8 ooppppoopoopqqrpqwwroopqqpponmmmllmnljkkklqsqnnoponmmmnooopponnprrrqqpll.rsttstvurpnnprqpo
(PID.TID 0000.0001)      7 qqpoopppppppqppqruxvsqqqqpooooooooqplkjiilprrqqssrponlkmnnpqponopqqqqqqqststuutttsqooprrqq
(PID.TID 0000.0001)      6 ppnnnnoppoooooooprssqpppnmmnoooonnpponljjkoqrrsttssrpmkkklnqqonopqqqqqrsuutrrrrqpppoopqqpp
(PID.TID 0000.0001)      5 onmmmlmnnmlmmmmmnooonnmlllllmmmlllmnnnmmlmnooprsrqqqomlllmnpponopppqqqrqpq..ooooooonnooonn
(PID.TID 0000.0001)      4 lkjkkkkkkl............................mmmmnnmnoppoonmllmnoooonnnnooooonmm...onnnnnnnnmmmll
(PID.TID 0000.0001)      3 ..........................................mmmmmmmmmllklmooonmmlm..nmmm.....nnnmmmmmmnmm...
(PID.TID 0000.0001)      2 ..........................................................................................
(PID.TID 0000.0001)      1 ..........................................................................................
(PID.TID 0000.0001) // =======================================================
(PID.TID 0000.0001) // END OF FIELD                                          =
(PID.TID 0000.0001) // =======================================================
(PID.TID 0000.0001) 
(PID.TID 0000.0001) // =======================================================
(PID.TID 0000.0001) // Field Current theta  at iteration         40
(PID.TID 0000.0001) // CMIN =         -1.967798459783599E+00
(PID.TID 0000.0001) // CMAX =          2.989773185865673E+01
(PID.TID 0000.0001) // CINT =          1.180204826608901E+00
(PID.TID 0000.0001) // SYMBOLS (CMIN->CMAX): -abcdefghijklmnopqrstuvwxyz+
(PID.TID 0000.0001) //                  0.0: .
(PID.TID 0000.0001) // RANGE I (Lo:Hi:Step):(     1:    90:     1)
(PID.TID 0000.0001) // RANGE J (Lo:Hi:Step):(    40:     1:    -1)
(PID.TID 0000.0001) // RANGE K (Lo:Hi:Step):(   1:   1:   1)
(PID.TID 0000.0001) // =======================================================
(PID.TID 0000.0001) K =   1
(PID.TID 0000.0001)                I=10      I=20      I=30      I=40      I=50      I=60      I=70      I=80      I=90
(PID.TID 0000.0001) |--J--|123456789|123456789|123456789|123456789|123456789|123456789|123456789|123456789|123456789|
(PID.TID 0000.0001)     40 -abccbaa-----aacdddbbbbbbbbbbbbbbbbbbbbbbbbbbbbbbbbbbbbbbbbbbbbbbbbbbbbbbbbbbbbbbbbbbaaaa-
(PID.TID 0000.0001)     39 bccddcccbaa---bbbddbbbbbbbbbbbbbbbbbbbbbbbbbbbbbbbbbbbbbbbbbbbbbbbbbbbbb----bbbbbbbbbaaaab
(PID.TID 0000.0001)     38 eeffeecdcccbbbbbbbbbbbbbbbbbbbbbbbbbbbbbbbbbbbbbbbbbbbbbbbbbbbbbbbbbbbbb-----bbbbbbcaaabcd
(PID.TID 0000.0001)     37 fggbbbbbbbbbbbbbbbbbbbbbbbbbbbbbbbbbbbbbbbbbbbbbbbbbbbbbbbbbbbbbbbbbbbbbbbbabbbbdccdebddee
(PID.TID 0000.0001)     36 hgbbbbbbbbbbbbbbbbbbbbbbbbbbbbbbbbbbbbbbbbbcbaabbbbbbbbbbbbbbbbbbbbccccbbbbccdbdefgghhhhhg
(PID.TID 0000.0001)     35 ggbbbbbbbbbbbbbbbbbbbbbbbbbbbbbbbbba---bbbccccbbbbbeeeefbbbbbbbbbbbbbbbbbbccdeeeefghiiiihh
(PID.TID 0000.0001)     34 bbbbbbbbbbbbbbbbbbbbbbbbbbbbbbbbbbb----bbcddddddbddeeffggbbbbbbbbbbbbbbbbbbcbceefghijjjjbb
(PID.TID 0000.0001)     33 bbbbbbbbbbbbbbbbbbbbbbbbbbbbbbbbbbbb-abbccddddeeefffffgghhibbbbbbbbbbbbbbbbbabdhijjkkkkkkb
(PID.TID 0000.0001)     32 bbbbbbbbbbbbbbbbbbbbbbbbbbbbbbbbbbbbabbccdeeefffgggghhhhiiibbbbbbbbbbbbbbbbccbdjllmmlllkkb
(PID.TID 0000.0001)     31 bbbbbbbbbbbbbbbbbbbbbbbbbbbbbbbbbbbbdfggghhiiiiiiijjjkkkkkkbbbbbbbbbbbbbbgikjhknnnnnmmmmbb
(PID.TID 0000.0001)     30 bbbbbbbbbbbbbbbbbbbbbbbbbbbbbbbbbbblkkkkllllllllllllmmmmmmlbbbbbbbbbbbbnnopppppppppooonobb
(PID.TID 0000.0001)     29 bbbbbbbbbbbbbbbbbbbbbbbbbbbbbbbbbooooooooonnnnoonoooopppoonmbbbbbbbbbbbqqrrrrqqqqqqqppopbb
(PID.TID 0000.0001)     28 bbbbbbbbbbbbbbbbbbbbbbbbbbbbbbboqqqqqqqqqqqqqqqqqqqqqrrqqpooobbbbbbbbbsssssssrrrrrrqqqqpbb
(PID.TID 0000.0001)     27 bbbbbbbbbbbbbbvvbbbbbbbbbbbbbbrrsssstsssstttsttstttsssssrrqppqbbbssttbuuuuuuutttttssrrbbbb
(PID.TID 0000.0001)     26 bbbbbbbbbbbbbbvuubbbbbbbbbbbutuuuuuuvvvvvvvvuuuuuuuuuttsssrrrstubtuvwwvvvvvvvuuuutssrqbbbb
(PID.TID 0000.0001)     25 bbbbbbbbbbbbbbvvvwbbbwwxbbbuuvwwwwwwxwwwwwwwwwwvvvvvuuuutttttuvwwbbbxwwwwwwvvvvvuutsrqbbbb
(PID.TID 0000.0001)     24 bbbbbbbbbbbbwvvwxyybxwxxbbbwwwbxxxxyyxxxxxwwwwwwwwwvvvvvvvvvvwwxxvvvbxwwwwwwwwvvvuutsrbbbb
(PID.TID 0000.0001)     23 bbbbbbbbbbbbxwxxyyzbxxxxbbbxxxbbyyyyyyyyxxxxxxxxxxxxxxxxxwwxxxxwwxwwwbbbbwwxwwwwwwvvvubbbb
(PID.TID 0000.0001)     22 wbbbbbbbbbbbxxxyyyyyyyyybbbxxbyyzzzzzzzzzyyyyyyyyyyyyyxxwwwxxxwwwwwwwwbbbbbbyxxxxxxxxxxxxx
(PID.TID 0000.0001)     21 wwwbbbbbbbbxxxyyyyyyzzz++bbbbbyyzzzzzz+++zzzzzyyyyyyyyxxwwxwxwwwwwvvvvbbbbbbbbyyyyyyyyyxxx
(PID.TID 0000.0001)     20 xwwbbbbbbbyyyyyyyzzzzzz++bbbbbbzbzzzzz+++++zzzzzzyyyyyyyxxxxxxwwwwwvvubbbbbbbbbyyyyyyyyxxx
(PID.TID 0000.0001)     19 wvvbbbbbbbzzzzyzzyzzzzzzzzzbbbzzzbbbbb++++++z++z+zzzyyyyyxxxxxxwwwwwvubbbbbbbbbbbyyyxxxwwx
(PID.TID 0000.0001)     18 vuubbbbbbbzzzyyyyyyyyyyzzzzzzz+zzbbb++++++++++++++zzzzzyyyyxxwwwvvwvvutbbbbbbbbbbyyxxxwwww
(PID.TID 0000.0001)     17 uutbbbbbbbzbyyxxyxxyyyyyyyyyzzzbbbbbzzzzz++zzzzzzzzzzzyyyyyxxwwvvvvvuuubbbbbbbbbyyyyxwuuvv
(PID.TID 0000.0001)     16 utsbbbbbbzzbzyyyxxxxxxxxwxxxyzbbbbbbbyyyzzzzzzzzzzzzzyyyyyyyxxwwvvuuutttbbbbbbbbyyyyxwvvvu
(PID.TID 0000.0001)     15 utrrbbbbxyybxyxxxwxxwwwwvvvwxbbbbbbbbbxxxxxyyxxyxyyxyyxyyyyyxxwwwvuuttsssbbbbbbxxyyyyxxwvu
(PID.TID 0000.0001)     14 utrqbbbbxyxwxxwwwwwwvuvvuuuuubbbbbbbbbwwwwwwwwwwwxwwwwwwxxxxxwwwwvvuttsssbbbbbwwxxxxxxwwvu
(PID.TID 0000.0001)     13 uttrbbbbwxwwwwuuuvvuuuuttttttbbbbbbbbbvvvvvvvvvvuuuuuvvvvwwwwwvvvuuutssrqbbbbvwwwwwwwwwvvu
(PID.TID 0000.0001)     12 sstsststuutttttssssssttrrssssrqrrqbbbbuuuttttttssssssssssttutttttsstssrqbbbbbuvvuuttuutttt
(PID.TID 0000.0001)     11 qppqssssrrrrrrrqqppppqqppqpppqqqqqqbbttssssbrrrqrrrrrqrrqqrrpqqqqqrrrrqpbbbbprssrrrrrqqqqq
(PID.TID 0000.0001)     10 mllmooopoooonoonnnnmmnmmmmmlmnnnoooobqrqqqqbpqqqqqpppppppopoooooooooopoobbonoppooonnooonnm
(PID.TID 0000.0001)      9 jiiijjjjjjjjijjjiijjjjiiiijjjjkllmnmmnoooobnnnnoooonnnnnnnmmllmmmmllmmmmbmmmnnmmlkkjkkjjii
(PID.TID 0000.0001)      8 ffffffggffgghhhggfgghhgggghhhiijjjkkkklllllllllllllmmllllkkjjjkkkkkjkkljbkkkkjjiihhgggffff
(PID.TID 0000.0001)      7 dddeeeefffeefgfffeeeeeeeeffggggghhhhhiijjjjjjjkkjiiiiiiiiiiiiiiiiiiiijjjiijiihhgfeeeeeeedd
(PID.TID 0000.0001)      6 cccdddeeeeddeeeeeeeeeeeeeeeedeefefffffgghhhhhhhihgffefffggfffffgghhhhhhhhhhggffedddddccccc
(PID.TID 0000.0001)      5 cccdddddddddddddeddddddddddddeeeeeeeeeeeeffffeefeedccddddeeeeeeeeffffffeefeeedddcccccccccc
(PID.TID 0000.0001)      4 cccdccccccccbccccccccbbbbbbbcccccccbcccccddccccccccccccccccccccdccdddddddcbbbaabbccccccccc
(PID.TID 0000.0001)      3 bbbbbaaaaabbbbbbbbbbbbbbbbbbbbbbbbbbbbbbbbbbbbbbbbbbbbbbbbabbbbbbbabbbbbbbbaaaaabbbcccbbbb
(PID.TID 0000.0001)      2 bbbbbbbbbbbbbbbbbbbbbbbbbbbbbbbbbbbbbbbbbbbbbbbbbbbaaaaaaaaaaaaabbaaaabbbbbaaaaaabbbbbbbbb
(PID.TID 0000.0001)      1 bbbbbbbbbbbbbbbbbbbbbbbbbbbbbbbbbbbbbbbbbbbbbbbbbbbbbbbbbbbbbbbbbbbbbbbbbbbbbbbbbbbbbbbbbb
(PID.TID 0000.0001) // =======================================================
(PID.TID 0000.0001) // END OF FIELD                                          =
(PID.TID 0000.0001) // =======================================================
(PID.TID 0000.0001) 
(PID.TID 0000.0001) // =======================================================
(PID.TID 0000.0001) // Field Current etaN   at iteration         40
(PID.TID 0000.0001) // CMIN =         -1.620297065183639E+00
(PID.TID 0000.0001) // CMAX =          8.685825008584885E-01
(PID.TID 0000.0001) // CINT =          9.218072466822697E-02
(PID.TID 0000.0001) // SYMBOLS (CMIN->CMAX): -abcdefghijklmnopqrstuvwxyz+
(PID.TID 0000.0001) //                  0.0: .
(PID.TID 0000.0001) // RANGE I (Lo:Hi:Step):(    -1:    92:     1)
(PID.TID 0000.0001) // RANGE J (Lo:Hi:Step):(    42:    -1:    -1)
(PID.TID 0000.0001) // RANGE K (Lo:Hi:Step):(   1:   1:   1)
(PID.TID 0000.0001) // =======================================================
(PID.TID 0000.0001) K =   1
(PID.TID 0000.0001)                I=8       I=18      I=28      I=38      I=48      I=58      I=68      I=78      I=88
(PID.TID 0000.0001) |--J--|101234567|901234567|901234567|901234567|901234567|901234567|901234567|901234567|901234567|9012
(PID.TID 0000.0001)     42 ............................................aaaaaabbbbcccccbbbbbbb..cccc.....-aaaaaaaaaaa.....
(PID.TID 0000.0001)     41 ..............................................................................................
(PID.TID 0000.0001)     40 iiiiijj.jjkkkkkkkkkkk..................................................................jjjiiii
(PID.TID 0000.0001)     39 iiiiiijjjjjjjjjk...kk.....................................................iiii........jjjiiiii
(PID.TID 0000.0001)     38 iijjjkkjjjjjjjk...........................................................iiiii......kjiiiiijj
(PID.TID 0000.0001)     37 ijjjk..................................................................kk...iii...iiiii.hiijjj
(PID.TID 0000.0001)     36 jjkl.........................................oopo....................kkkkkjihiih.jhghijjjjjjkl
(PID.TID 0000.0001)     35 llll.................................onoo..ooooooo...rpppq...........kkk....ihgggggghhijjkllll
(PID.TID 0000.0001)     34 .....................................onno.oooooooo.poooopqr..................jihgggghijklo....
(PID.TID 0000.0001)     33 k.....................................ooooooooooooppoooppqqrr.................jihiiijkllllk...
(PID.TID 0000.0001)     32 l.....................................ppoooooooppppppppqqqrrr................eijjklllmmmmll...
(PID.TID 0000.0001)     31 ......................................oppooppqqqqqqqqqrrrsssr..............llmmmmmmmmnmmmm....
(PID.TID 0000.0001)     30 .....................................qqrrrrrrrrrsssssssstttss............kmnoppppppooonnnn....
(PID.TID 0000.0001)     29 ...................................tuuvvvuuuuuutuuuuttttuuutsr...........pqqrrrrqqpppoonnn....
(PID.TID 0000.0001)     28 .................................vwwxxxxxxwwwwvvvvvvuuuuuuuutss.........rrrrrrrqqqqppooooo....
(PID.TID 0000.0001)     27 ................ss..............zyyyyyyyyxxxxxwwwvvvvvvvuuuuttss...srrs.ssssrrrqpppppoon......
(PID.TID 0000.0001)     26 ................sss...........zyzzyyyyyyyyyyyxxwwwwwwvvvuuutttssst.ssrtttttsssrrqqpppoon......
(PID.TID 0000.0001)     25 ................sssu...vuu...zyyyzzyyyxxxyyyxxxxwwwwwvvvuuutttttttt...ttutttsssrqqpppoon......
(PID.TID 0000.0001)     24 ..............tssstuv.vvvu...zzy.+zyxxxxxxxxxxxwwwwvvvvuuutttttttuuttt.utttsssrrqqqpppoo......
(PID.TID 0000.0001)     23 ..............tttttuu.vvuu...zzy..zyxxxxxxxxxxxxwwwwwvvvuuutttttttttttt....ssssrrqqqppqq......
(PID.TID 0000.0001)     22 qqr...........sssttttuuuuv...zz.xxyyyyyyyyyxxxxxxxxwwwwvvuuuuttutttttttu......ssrrqqqqqrqqqqr.
(PID.TID 0000.0001)     21 qqqqq........ttttttuuuvvvvv.....xxxxxxxxxyyxxxxxwwwwwwvwvuuuuuttttttttuu........srrrrrqqqqqqqq
(PID.TID 0000.0001)     20 qqqqq.......uuuttuuuvvvwwvv......x.wwwwxxxxxxxxxwwwwwwvwvvvvuuuutttttttu.........rrrrrrqqqqqqq
(PID.TID 0000.0001)     19 qqqqq.......vvvvuvvvvvvvvvvvv...wwx.....yxyxxxxxxxxxxxwwwwvvvvuuuutttttt...........ssrrrqqqqqq
(PID.TID 0000.0001)     18 qpppp.......vvwvvvvvvvvvvvvvvvwwwwx...yyyxxxxxxxxxxxxxwwwwvvvvuuutttsssts..........tssrrqqqppp
(PID.TID 0000.0001)     17 qpppp.......v.xwvvvuvvvvvvvvvvvww.....yyxxxxxxxxxxxxxxwwwwvvvvvuuutttttst.........ttssrrqqqppp
(PID.TID 0000.0001)     16 qqppp......xw.yxwwwvwvuvvuuuvvvv.......xxxxxxxxxxxxxxxxwwwwwwvvvvuuttttssr........ttsssrrqqqpp
(PID.TID 0000.0001)     15 rqqqpo....yxv.yxxwwwxwvuvvuuttu.........wwwwwwxxwwxxxxxwwwxxwwwvvuuutttssrr......ttttttssrrqqq
(PID.TID 0000.0001)     14 srrqpp....xxwvwwwvvvwvttuuutsss.........wwvvvvwwvvwwwwwwwwxxxwxwvvuuuutttrr.....ttttttttttsrrq
(PID.TID 0000.0001)     13 tssrqp....xxxwwvvuuuuuttuutssrr.........uvvvuuuuuuuuutuvvvvwwwxwvvvvuuttsrr....tttttttttuutssr
(PID.TID 0000.0001)     12 sssrrqppsuwxwvvwvvuutttttttsssrrrrqq....tutttttttttssstttttuuuuuuvvutttssr.....ttsttssssttsssr
(PID.TID 0000.0001)     11 rrrqqqrssttvvvvwvuutttssssssrrrrrrrrr..ssssss.rssssrrsssttstttttuuutssssrr....qrrrrrqqrrrrrrrq
(PID.TID 0000.0001)     10 ppooooooooppqqqrsrrqpqqqqqqqppppppqqqq.rrrrrr.qrrrrrrssstttssssstutsrrrrrq..ompqponnonooopppoo
(PID.TID 0000.0001)      9 lllllllkjkkklllllllkklmmmmmmnnnnoopqrqppqqqr.pppqrrrrrrrstttsrrrssrrqqqpqp.qpoooomlkkjkkkkllll
(PID.TID 0000.0001)      8 gghhhhgfffggghihhhjhghiiiiiijjjklllmoonooppqrpoooppppqqqqqqqqppqqrqppppppt.pnmllkjhggggggggghh
(PID.TID 0000.0001)      7 ddddccdddddeeeefffggfdddeeffffgghhhiihhijkmnnmmmmmlllllmnnmmmmmnnooonnnnnoonmmkjihfeddeddddddd
(PID.TID 0000.0001)      6 aaaaabbcccccccdddeeedccccccddeeeeedeeddefghjkjjiiihhggfghijjkkkkkkllkkkkkkkjihgfeddccccccbaaaa
(PID.TID 0000.0001)      5 aa--aabbbbbbbbbbcccccbbbbbbbbccbbbbbccccccdeeffffedddcccdefghhggghhhgggggfedcbbbbaaaaaaaaaaa--
(PID.TID 0000.0001)      4 aa--aaaaabbbbbbccbbbbbbbbbbbbbbbbbbbaaaabbbbbbbccbbaaabbccdddddddeeeddddcccd..-aaaaaaaaaaaaa--
(PID.TID 0000.0001)      3 aaaabbbbbbbb............................aaaaaaabbbbaabbbbcccbbbbbbcccccccdc..bbaaaaaaaaaaaaaaa
(PID.TID 0000.0001)      2 ............................................aaaaaabbbbcccccbbbbbbb..cccc.....-aaaaaaaaaaa.....
(PID.TID 0000.0001)      1 ..............................................................................................
(PID.TID 0000.0001)      0 iiiiijj.jjkkkkkkkkkkk..................................................................jjjiiii
(PID.TID 0000.0001)     -1 iiiiiijjjjjjjjjk...kk.....................................................iiii........jjjiiiii
(PID.TID 0000.0001) // =======================================================
(PID.TID 0000.0001) // END OF FIELD                                          =
(PID.TID 0000.0001) // =======================================================
(PID.TID 0000.0001) 
(PID.TID 0000.0001)  MDS_WRITE_FIELD: it,rec,kS,kL,kH=      40     1  15   1  15 file=U.0000000040
(PID.TID 0000.0001)  MDS_WRITE_FIELD: it,rec,kS,kL,kH=      40     1  15   1  15 file=V.0000000040
(PID.TID 0000.0001)  MDS_WRITE_FIELD: it,rec,kS,kL,kH=      40     1  15   1  15 file=T.0000000040
(PID.TID 0000.0001)  MDS_WRITE_FIELD: it,rec,kS,kL,kH=      40     1  15   1  15 file=S.0000000040
(PID.TID 0000.0001)  MDS_WRITE_FIELD: it,rec,kS,kL,kH=      40     1   1   1   1 file=Eta.0000000040
(PID.TID 0000.0001)  MDS_WRITE_FIELD: it,rec,kS,kL,kH=      40     1  15   1  15 file=W.0000000040
(PID.TID 0000.0001)  MDS_WRITE_FIELD: it,rec,kS,kL,kH=      40     1  15   1  15 file=PH.0000000040
(PID.TID 0000.0001)  MDS_WRITE_FIELD: it,rec,kS,kL,kH=      40     1   1   1   1 file=PHL.0000000040
(PID.TID 0000.0001)  MDS_WRITE_FIELD: it,rec,kS,kL,kH=      40     1   1   1   1 file=ETAtave.0000000040
(PID.TID 0000.0001)  MDS_WRITE_FIELD: it,rec,kS,kL,kH=      40     1  15   1  15 file=Ttave.0000000040
(PID.TID 0000.0001)  MDS_WRITE_FIELD: it,rec,kS,kL,kH=      40     1  15   1  15 file=Stave.0000000040
(PID.TID 0000.0001)  MDS_WRITE_FIELD: it,rec,kS,kL,kH=      40     1  15   1  15 file=uVeltave.0000000040
(PID.TID 0000.0001)  MDS_WRITE_FIELD: it,rec,kS,kL,kH=      40     1  15   1  15 file=vVeltave.0000000040
(PID.TID 0000.0001)  MDS_WRITE_FIELD: it,rec,kS,kL,kH=      40     1  15   1  15 file=wVeltave.0000000040
(PID.TID 0000.0001)  MDS_WRITE_FIELD: it,rec,kS,kL,kH=      40     1   1   1   1 file=Eta2tave.0000000040
(PID.TID 0000.0001)  MDS_WRITE_FIELD: it,rec,kS,kL,kH=      40     1  15   1  15 file=UTtave.0000000040
(PID.TID 0000.0001)  MDS_WRITE_FIELD: it,rec,kS,kL,kH=      40     1  15   1  15 file=VTtave.0000000040
(PID.TID 0000.0001)  MDS_WRITE_FIELD: it,rec,kS,kL,kH=      40     1  15   1  15 file=WTtave.0000000040
(PID.TID 0000.0001)  MDS_WRITE_FIELD: it,rec,kS,kL,kH=      40     1  15   1  15 file=UStave.0000000040
(PID.TID 0000.0001)  MDS_WRITE_FIELD: it,rec,kS,kL,kH=      40     1  15   1  15 file=VStave.0000000040
(PID.TID 0000.0001)  MDS_WRITE_FIELD: it,rec,kS,kL,kH=      40     1  15   1  15 file=WStave.0000000040
(PID.TID 0000.0001)  MDS_WRITE_FIELD: it,rec,kS,kL,kH=      40     1  15   1  15 file=TTtave.0000000040
(PID.TID 0000.0001)  MDS_WRITE_FIELD: it,rec,kS,kL,kH=      40     1  15   1  15 file=UUtave.0000000040
(PID.TID 0000.0001)  MDS_WRITE_FIELD: it,rec,kS,kL,kH=      40     1  15   1  15 file=VVtave.0000000040
(PID.TID 0000.0001)  MDS_WRITE_FIELD: it,rec,kS,kL,kH=      40     1  15   1  15 file=UVtave.0000000040
(PID.TID 0000.0001)  MDS_WRITE_FIELD: it,rec,kS,kL,kH=      40     1  15   1  15 file=Tdiftave.0000000040
(PID.TID 0000.0001)  MDS_WRITE_FIELD: it,rec,kS,kL,kH=      40     1  15   1  15 file=PhHytave.0000000040
(PID.TID 0000.0001)  MDS_WRITE_FIELD: it,rec,kS,kL,kH=      40     1   1   1   1 file=PHLtave.0000000040
(PID.TID 0000.0001)  MDS_WRITE_FIELD: it,rec,kS,kL,kH=      40     1   1   1   1 file=uFluxtave.0000000040
(PID.TID 0000.0001)  MDS_WRITE_FIELD: it,rec,kS,kL,kH=      40     1   1   1   1 file=vFluxtave.0000000040
(PID.TID 0000.0001)  MDS_WRITE_FIELD: it,rec,kS,kL,kH=      40     1   1   1   1 file=tFluxtave.0000000040
(PID.TID 0000.0001)  MDS_WRITE_FIELD: it,rec,kS,kL,kH=      40     1   1   1   1 file=sFluxtave.0000000040
(PID.TID 0000.0001)  MDS_WRITE_FIELD: it,rec,kS,kL,kH=      40     1   1   1   1 file=PHL2tave.0000000040
(PID.TID 0000.0001)  MDS_WRITE_FIELD: it,rec,kS,kL,kH=      40     1  15   1  15 file=Convtave.0000000040
(PID.TID 0000.0001) // Time-average data written, t-step        40
(PID.TID 0000.0001) 
(PID.TID 0000.0001)  MDS_WRITE_FIELD: it,rec,kS,kL,kH=      40     1  15   1  15 file=GM_Kwx-T.0000000040
(PID.TID 0000.0001)  MDS_WRITE_FIELD: it,rec,kS,kL,kH=      40     1  15   1  15 file=GM_Kwy-T.0000000040
(PID.TID 0000.0001)  MDS_WRITE_FIELD: it,rec,kS,kL,kH=      40     1  15   1  15 file=GM_Kwz-T.0000000040
(PID.TID 0000.0001)  MDS_WRITE_FIELD: it,rec,kS,kL,kH=      40     1   1   1   1 file=ETAN_forecast.0000000040
(PID.TID 0000.0001)  MDS_WRITE_FIELD: it,rec,kS,kL,kH=      40     1  15   1  15 file=THETA_forecast.0000000040
(PID.TID 0000.0001)  MDS_WRITE_FIELD: it,rec,kS,kL,kH=      40     1  15   1  15 file=SALT_forecast.0000000040
(PID.TID 0000.0001)  MDS_WRITE_FIELD: it,rec,kS,kL,kH=      40     1  15   1  15 file=UVEL_forecast.0000000040
(PID.TID 0000.0001)  MDS_WRITE_FIELD: it,rec,kS,kL,kH=      40     1  15   1  15 file=VVEL_forecast.0000000040
(PID.TID 0000.0001)  MDS_WRITE_FIELD: it,rec,kS,kL,kH=      40     1   1   1   1 file=ETAN_001_forecast.0000000040
(PID.TID 0000.0001)  MDS_WRITE_FIELD: it,rec,kS,kL,kH=      40     1  15   1  15 file=THETA_001_forecast.0000000040
(PID.TID 0000.0001)  MDS_WRITE_FIELD: it,rec,kS,kL,kH=      40     1  15   1  15 file=SALT_001_forecast.0000000040
(PID.TID 0000.0001)  MDS_WRITE_FIELD: it,rec,kS,kL,kH=      40     1  15   1  15 file=UVEL_001_forecast.0000000040
(PID.TID 0000.0001)  MDS_WRITE_FIELD: it,rec,kS,kL,kH=      40     1  15   1  15 file=VVEL_001_forecast.0000000040
(PID.TID 0000.0001)  MDS_WRITE_FIELD: it,rec,kS,kL,kH=      40     1   1   1   1 file=ETAN_002_forecast.0000000040
(PID.TID 0000.0001)  MDS_WRITE_FIELD: it,rec,kS,kL,kH=      40     1  15   1  15 file=THETA_002_forecast.0000000040
(PID.TID 0000.0001)  MDS_WRITE_FIELD: it,rec,kS,kL,kH=      40     1  15   1  15 file=SALT_002_forecast.0000000040
(PID.TID 0000.0001)  MDS_WRITE_FIELD: it,rec,kS,kL,kH=      40     1  15   1  15 file=UVEL_002_forecast.0000000040
(PID.TID 0000.0001)  MDS_WRITE_FIELD: it,rec,kS,kL,kH=      40     1  15   1  15 file=VVEL_002_forecast.0000000040
(PID.TID 0000.0001)  MDS_WRITE_FIELD: it,rec,kS,kL,kH=      40     1   1   1   1 file=ETAN_003_forecast.0000000040
(PID.TID 0000.0001)  MDS_WRITE_FIELD: it,rec,kS,kL,kH=      40     1  15   1  15 file=THETA_003_forecast.0000000040
(PID.TID 0000.0001)  MDS_WRITE_FIELD: it,rec,kS,kL,kH=      40     1  15   1  15 file=SALT_003_forecast.0000000040
(PID.TID 0000.0001)  MDS_WRITE_FIELD: it,rec,kS,kL,kH=      40     1  15   1  15 file=UVEL_003_forecast.0000000040
(PID.TID 0000.0001)  MDS_WRITE_FIELD: it,rec,kS,kL,kH=      40     1  15   1  15 file=VVEL_003_forecast.0000000040
(PID.TID 0000.0001)  MDS_WRITE_FIELD: it,rec,kS,kL,kH=      40     1   1   1   1 file=ETAN_004_forecast.0000000040
(PID.TID 0000.0001)  MDS_WRITE_FIELD: it,rec,kS,kL,kH=      40     1  15   1  15 file=THETA_004_forecast.0000000040
(PID.TID 0000.0001)  MDS_WRITE_FIELD: it,rec,kS,kL,kH=      40     1  15   1  15 file=SALT_004_forecast.0000000040
(PID.TID 0000.0001)  MDS_WRITE_FIELD: it,rec,kS,kL,kH=      40     1  15   1  15 file=UVEL_004_forecast.0000000040
(PID.TID 0000.0001)  MDS_WRITE_FIELD: it,rec,kS,kL,kH=      40     1  15   1  15 file=VVEL_004_forecast.0000000040
(PID.TID 0000.0001)  MDS_WRITE_FIELD: it,rec,kS,kL,kH=      40     1   1   1   1 file=ETAN_analysis.0000000040
(PID.TID 0000.0001)  MDS_WRITE_FIELD: it,rec,kS,kL,kH=      40     1  15   1  15 file=THETA_analysis.0000000040
(PID.TID 0000.0001)  MDS_WRITE_FIELD: it,rec,kS,kL,kH=      40     1  15   1  15 file=SALT_analysis.0000000040
(PID.TID 0000.0001)  MDS_WRITE_FIELD: it,rec,kS,kL,kH=      40     1  15   1  15 file=UVEL_analysis.0000000040
(PID.TID 0000.0001)  MDS_WRITE_FIELD: it,rec,kS,kL,kH=      40     1  15   1  15 file=VVEL_analysis.0000000040
(PID.TID 0000.0001)  MDS_WRITE_FIELD: it,rec,kS,kL,kH=      40     1   1   1   1 file=ETAN_001_analysis.0000000040
(PID.TID 0000.0001)  MDS_WRITE_FIELD: it,rec,kS,kL,kH=      40     1  15   1  15 file=THETA_001_analysis.0000000040
(PID.TID 0000.0001)  MDS_WRITE_FIELD: it,rec,kS,kL,kH=      40     1  15   1  15 file=SALT_001_analysis.0000000040
(PID.TID 0000.0001)  MDS_WRITE_FIELD: it,rec,kS,kL,kH=      40     1  15   1  15 file=UVEL_001_analysis.0000000040
(PID.TID 0000.0001)  MDS_WRITE_FIELD: it,rec,kS,kL,kH=      40     1  15   1  15 file=VVEL_001_analysis.0000000040
(PID.TID 0000.0001)  MDS_WRITE_FIELD: it,rec,kS,kL,kH=      40     1   1   1   1 file=ETAN_002_analysis.0000000040
(PID.TID 0000.0001)  MDS_WRITE_FIELD: it,rec,kS,kL,kH=      40     1  15   1  15 file=THETA_002_analysis.0000000040
(PID.TID 0000.0001)  MDS_WRITE_FIELD: it,rec,kS,kL,kH=      40     1  15   1  15 file=SALT_002_analysis.0000000040
(PID.TID 0000.0001)  MDS_WRITE_FIELD: it,rec,kS,kL,kH=      40     1  15   1  15 file=UVEL_002_analysis.0000000040
(PID.TID 0000.0001)  MDS_WRITE_FIELD: it,rec,kS,kL,kH=      40     1  15   1  15 file=VVEL_002_analysis.0000000040
(PID.TID 0000.0001)  MDS_WRITE_FIELD: it,rec,kS,kL,kH=      40     1   1   1   1 file=ETAN_003_analysis.0000000040
(PID.TID 0000.0001)  MDS_WRITE_FIELD: it,rec,kS,kL,kH=      40     1  15   1  15 file=THETA_003_analysis.0000000040
(PID.TID 0000.0001)  MDS_WRITE_FIELD: it,rec,kS,kL,kH=      40     1  15   1  15 file=SALT_003_analysis.0000000040
(PID.TID 0000.0001)  MDS_WRITE_FIELD: it,rec,kS,kL,kH=      40     1  15   1  15 file=UVEL_003_analysis.0000000040
(PID.TID 0000.0001)  MDS_WRITE_FIELD: it,rec,kS,kL,kH=      40     1  15   1  15 file=VVEL_003_analysis.0000000040
(PID.TID 0000.0001)  MDS_WRITE_FIELD: it,rec,kS,kL,kH=      40     1   1   1   1 file=ETAN_004_analysis.0000000040
(PID.TID 0000.0001)  MDS_WRITE_FIELD: it,rec,kS,kL,kH=      40     1  15   1  15 file=THETA_004_analysis.0000000040
(PID.TID 0000.0001)  MDS_WRITE_FIELD: it,rec,kS,kL,kH=      40     1  15   1  15 file=SALT_004_analysis.0000000040
(PID.TID 0000.0001)  MDS_WRITE_FIELD: it,rec,kS,kL,kH=      40     1  15   1  15 file=UVEL_004_analysis.0000000040
(PID.TID 0000.0001)  MDS_WRITE_FIELD: it,rec,kS,kL,kH=      40     1  15   1  15 file=VVEL_004_analysis.0000000040
 EXTERNAL_FIELDS_LOAD,        40 : iP,iLd,i0,i1=    1    2    1    2 ; Wght=  0.1666666667  0.8333333333
 EXTERNAL_FIELDS_LOAD: (fu0,1),fu,fv= -3.5633E-02 -1.4435E-02 -1.7968E-02 -2.4239E-02
 EXTERNAL_FIELDS_LOAD: SST,SSS,Q,E-P= -2.8348E-01  3.4470E+01  2.4470E+02  8.9204E-06
DEBUG_STATS_RL:          Uvel (THERMODYNAMICS)  min= -1.45012553291842E-01
DEBUG_STATS_RL:          Uvel (THERMODYNAMICS)  max=  1.46671759091225E-01
DEBUG_STATS_RL:          Uvel (THERMODYNAMICS) mean=  3.83543773162035E-03
DEBUG_STATS_RL:          Uvel (THERMODYNAMICS) S.D.=  2.23845622556057E-02
DEBUG_STATS_RL:          Vvel (THERMODYNAMICS)  min= -1.14529012084975E-01
DEBUG_STATS_RL:          Vvel (THERMODYNAMICS)  max=  1.04237909310232E-01
DEBUG_STATS_RL:          Vvel (THERMODYNAMICS) mean= -4.50182912233103E-05
DEBUG_STATS_RL:          Vvel (THERMODYNAMICS) S.D.=  1.35779465680043E-02
DEBUG_STATS_RL:          Wvel (THERMODYNAMICS)  min= -1.19951379857017E-04
DEBUG_STATS_RL:          Wvel (THERMODYNAMICS)  max=  8.94951012583124E-05
DEBUG_STATS_RL:          Wvel (THERMODYNAMICS) mean= -3.58509725713860E-07
DEBUG_STATS_RL:          Wvel (THERMODYNAMICS) S.D.=  1.19561119594743E-05
DEBUG_STATS_RL:         Theta (THERMODYNAMICS)  min= -1.96640611121056E+00
DEBUG_STATS_RL:         Theta (THERMODYNAMICS)  max=  2.99055908458173E+01
DEBUG_STATS_RL:         Theta (THERMODYNAMICS) mean=  3.20887388987354E+00
DEBUG_STATS_RL:         Theta (THERMODYNAMICS) S.D.=  5.85725340681650E+00
DEBUG_STATS_RL:          Salt (THERMODYNAMICS)  min= -6.86242378085645E-04
DEBUG_STATS_RL:          Salt (THERMODYNAMICS)  max=  3.74527644891299E+01
DEBUG_STATS_RL:          Salt (THERMODYNAMICS) mean=  1.88441195743351E+01
DEBUG_STATS_RL:          Salt (THERMODYNAMICS) S.D.=  1.73003257960449E+01
DEBUG_STATS_RL:         GtNm1 (THERMODYNAMICS)  min= -3.38443014873105E-06
DEBUG_STATS_RL:         GtNm1 (THERMODYNAMICS)  max=  2.38223497889587E-06
DEBUG_STATS_RL:         GtNm1 (THERMODYNAMICS) mean=  1.11769756214854E-08
DEBUG_STATS_RL:         GtNm1 (THERMODYNAMICS) S.D.=  1.79373064069221E-07
DEBUG_STATS_RL:         GsNm1 (THERMODYNAMICS)  min= -7.92084608577757E-07
DEBUG_STATS_RL:         GsNm1 (THERMODYNAMICS)  max=  6.38862928476531E-07
DEBUG_STATS_RL:         GsNm1 (THERMODYNAMICS) mean=  9.47656706317445E-11
DEBUG_STATS_RL:         GsNm1 (THERMODYNAMICS) S.D.=  1.81922078067826E-08
DEBUG_STATS_RL:                EtaN (DYNAMICS)  min= -1.59233982340284E+00
DEBUG_STATS_RL:                EtaN (DYNAMICS)  max=  8.79401656756383E-01
DEBUG_STATS_RL:                EtaN (DYNAMICS) mean= -1.73725635812937E-01
DEBUG_STATS_RL:                EtaN (DYNAMICS) S.D.=  6.52418339438045E-01
DEBUG_STATS_RL:                Uvel (DYNAMICS)  min= -1.45012553291842E-01
DEBUG_STATS_RL:                Uvel (DYNAMICS)  max=  1.46671759091225E-01
DEBUG_STATS_RL:                Uvel (DYNAMICS) mean=  3.83543773162035E-03
DEBUG_STATS_RL:                Uvel (DYNAMICS) S.D.=  2.23845622556057E-02
DEBUG_STATS_RL:                Vvel (DYNAMICS)  min= -1.14529012084975E-01
DEBUG_STATS_RL:                Vvel (DYNAMICS)  max=  1.04237909310232E-01
DEBUG_STATS_RL:                Vvel (DYNAMICS) mean= -4.50182912233103E-05
DEBUG_STATS_RL:                Vvel (DYNAMICS) S.D.=  1.35779465680043E-02
DEBUG_STATS_RL:                Wvel (DYNAMICS)  min= -1.19951379857017E-04
DEBUG_STATS_RL:                Wvel (DYNAMICS)  max=  8.94951012583124E-05
DEBUG_STATS_RL:                Wvel (DYNAMICS) mean= -3.58509725713860E-07
DEBUG_STATS_RL:                Wvel (DYNAMICS) S.D.=  1.19561119594743E-05
DEBUG_STATS_RL:               Theta (DYNAMICS)  min= -1.96640611121056E+00
DEBUG_STATS_RL:               Theta (DYNAMICS)  max=  2.99055908458173E+01
DEBUG_STATS_RL:               Theta (DYNAMICS) mean=  3.20887388987354E+00
DEBUG_STATS_RL:               Theta (DYNAMICS) S.D.=  5.85725340681650E+00
DEBUG_STATS_RL:                Salt (DYNAMICS)  min= -6.86242378085645E-04
DEBUG_STATS_RL:                Salt (DYNAMICS)  max=  3.74527644891299E+01
DEBUG_STATS_RL:                Salt (DYNAMICS) mean=  1.88441195743351E+01
DEBUG_STATS_RL:                Salt (DYNAMICS) S.D.=  1.73003257960449E+01
DEBUG_STATS_RL:                  Gu (DYNAMICS)  min= -1.41829831630907E-01
DEBUG_STATS_RL:                  Gu (DYNAMICS)  max=  1.51823376186807E-01
DEBUG_STATS_RL:                  Gu (DYNAMICS) mean=  3.95083957290082E-03
DEBUG_STATS_RL:                  Gu (DYNAMICS) S.D.=  2.32631270649771E-02
DEBUG_STATS_RL:                  Gv (DYNAMICS)  min= -1.10218379629048E-01
DEBUG_STATS_RL:                  Gv (DYNAMICS)  max=  1.03252126301599E-01
DEBUG_STATS_RL:                  Gv (DYNAMICS) mean=  2.45243028139094E-03
DEBUG_STATS_RL:                  Gv (DYNAMICS) S.D.=  1.38821556602462E-02
DEBUG_STATS_RL:               GuNm1 (DYNAMICS)  min= -8.25756873494403E-06
DEBUG_STATS_RL:               GuNm1 (DYNAMICS)  max=  8.28288816693245E-06
DEBUG_STATS_RL:               GuNm1 (DYNAMICS) mean= -1.98002484883450E-08
DEBUG_STATS_RL:               GuNm1 (DYNAMICS) S.D.=  1.16688458942754E-06
DEBUG_STATS_RL:               GvNm1 (DYNAMICS)  min= -1.00169513290704E-05
DEBUG_STATS_RL:               GvNm1 (DYNAMICS)  max=  1.63226165087231E-05
DEBUG_STATS_RL:               GvNm1 (DYNAMICS) mean=  7.51713885835862E-07
DEBUG_STATS_RL:               GvNm1 (DYNAMICS) S.D.=  2.59093041716897E-06
DEBUG_STATS_RL:               GtNm1 (DYNAMICS)  min= -3.38443014873105E-06
DEBUG_STATS_RL:               GtNm1 (DYNAMICS)  max=  2.38223497889587E-06
DEBUG_STATS_RL:               GtNm1 (DYNAMICS) mean=  1.11769756214854E-08
DEBUG_STATS_RL:               GtNm1 (DYNAMICS) S.D.=  1.79373064069221E-07
DEBUG_STATS_RL:               GsNm1 (DYNAMICS)  min= -7.92084608577757E-07
DEBUG_STATS_RL:               GsNm1 (DYNAMICS)  max=  6.38862928476531E-07
DEBUG_STATS_RL:               GsNm1 (DYNAMICS) mean=  9.47656706317445E-11
DEBUG_STATS_RL:               GsNm1 (DYNAMICS) S.D.=  1.81922078067826E-08
DEBUG_STATS_RL:    cg2d_b (SOLVE_FOR_PRESSURE)  min= -1.88291957324622E+04
DEBUG_STATS_RL:    cg2d_b (SOLVE_FOR_PRESSURE)  max=  2.11948785518459E+04
DEBUG_STATS_RL:    cg2d_b (SOLVE_FOR_PRESSURE) mean=  2.97049960171241E+00
DEBUG_STATS_RL:    cg2d_b (SOLVE_FOR_PRESSURE) S.D.=  3.60962490059348E+03
 cg2d: Sum(rhs),rhsMax =   3.24451332011179E-01  1.39213637099803E+00
(PID.TID 0000.0001)  cg2d: iter=     1 ; resid.=  2.26390896194131E-01
(PID.TID 0000.0001)  cg2d: iter=     2 ; resid.=  1.92865420388663E-01
(PID.TID 0000.0001)  cg2d: iter=     3 ; resid.=  1.86471339453195E-01
(PID.TID 0000.0001)  cg2d: iter=     4 ; resid.=  1.51365064111575E-01
(PID.TID 0000.0001)  cg2d: iter=     5 ; resid.=  1.18593368321014E-01
(PID.TID 0000.0001)  cg2d: iter=     6 ; resid.=  9.97859060499009E-02
(PID.TID 0000.0001)  cg2d: iter=     7 ; resid.=  8.53841165029117E-02
(PID.TID 0000.0001)  cg2d: iter=     8 ; resid.=  7.34624583897479E-02
(PID.TID 0000.0001)  cg2d: iter=     9 ; resid.=  6.51200622242322E-02
(PID.TID 0000.0001)  cg2d: iter=    10 ; resid.=  5.50299245573257E-02
(PID.TID 0000.0001)  cg2d: iter=    11 ; resid.=  4.89676040489830E-02
(PID.TID 0000.0001)  cg2d: iter=    12 ; resid.=  4.36119798432877E-02
(PID.TID 0000.0001)  cg2d: iter=    13 ; resid.=  3.53413935311212E-02
(PID.TID 0000.0001)  cg2d: iter=    14 ; resid.=  2.73255225294776E-02
(PID.TID 0000.0001)  cg2d: iter=    15 ; resid.=  2.31545602683510E-02
(PID.TID 0000.0001)  cg2d: iter=    16 ; resid.=  2.03287546571709E-02
(PID.TID 0000.0001)  cg2d: iter=    17 ; resid.=  1.61247722475779E-02
(PID.TID 0000.0001)  cg2d: iter=    18 ; resid.=  1.29311087889270E-02
(PID.TID 0000.0001)  cg2d: iter=    19 ; resid.=  1.14092840593198E-02
(PID.TID 0000.0001)  cg2d: iter=    20 ; resid.=  9.26902079823832E-03
(PID.TID 0000.0001)  cg2d: iter=    21 ; resid.=  7.24796792936096E-03
(PID.TID 0000.0001)  cg2d: iter=    22 ; resid.=  5.77164167812949E-03
(PID.TID 0000.0001)  cg2d: iter=    23 ; resid.=  4.71932026598805E-03
(PID.TID 0000.0001)  cg2d: iter=    24 ; resid.=  3.72056110019296E-03
(PID.TID 0000.0001)  cg2d: iter=    25 ; resid.=  2.97780756512477E-03
(PID.TID 0000.0001)  cg2d: iter=    26 ; resid.=  2.45023931703012E-03
(PID.TID 0000.0001)  cg2d: iter=    27 ; resid.=  2.07686132214997E-03
(PID.TID 0000.0001)  cg2d: iter=    28 ; resid.=  1.73840860548131E-03
(PID.TID 0000.0001)  cg2d: iter=    29 ; resid.=  1.39979001496353E-03
(PID.TID 0000.0001)  cg2d: iter=    30 ; resid.=  1.18685998738544E-03
(PID.TID 0000.0001)  cg2d: iter=    31 ; resid.=  1.04457238926804E-03
(PID.TID 0000.0001)  cg2d: iter=    32 ; resid.=  9.14614763717353E-04
(PID.TID 0000.0001)  cg2d: iter=    33 ; resid.=  7.37537221236814E-04
(PID.TID 0000.0001)  cg2d: iter=    34 ; resid.=  6.15150721456743E-04
(PID.TID 0000.0001)  cg2d: iter=    35 ; resid.=  4.70927922801547E-04
(PID.TID 0000.0001)  cg2d: iter=    36 ; resid.=  3.64928106253832E-04
(PID.TID 0000.0001)  cg2d: iter=    37 ; resid.=  3.07002930819517E-04
(PID.TID 0000.0001)  cg2d: iter=    38 ; resid.=  2.54088473944827E-04
(PID.TID 0000.0001)  cg2d: iter=    39 ; resid.=  2.09015022977000E-04
(PID.TID 0000.0001)  cg2d: iter=    40 ; resid.=  1.86841114961474E-04
(PID.TID 0000.0001)  cg2d: iter=    41 ; resid.=  1.71561238200178E-04
(PID.TID 0000.0001)  cg2d: iter=    42 ; resid.=  1.60243472454041E-04
(PID.TID 0000.0001)  cg2d: iter=    43 ; resid.=  1.31244922226508E-04
(PID.TID 0000.0001)  cg2d: iter=    44 ; resid.=  1.07810121724632E-04
(PID.TID 0000.0001)  cg2d: iter=    45 ; resid.=  8.53693185681473E-05
(PID.TID 0000.0001)  cg2d: iter=    46 ; resid.=  7.45728427561992E-05
(PID.TID 0000.0001)  cg2d: iter=    47 ; resid.=  6.37532276577894E-05
(PID.TID 0000.0001)  cg2d: iter=    48 ; resid.=  5.46320424219929E-05
(PID.TID 0000.0001)  cg2d: iter=    49 ; resid.=  4.30144920484988E-05
(PID.TID 0000.0001)  cg2d: iter=    50 ; resid.=  3.46673674816697E-05
(PID.TID 0000.0001)  cg2d: iter=    51 ; resid.=  2.73207321464177E-05
(PID.TID 0000.0001)  cg2d: iter=    52 ; resid.=  2.40626086624110E-05
(PID.TID 0000.0001)  cg2d: iter=    53 ; resid.=  2.01614680498414E-05
(PID.TID 0000.0001)  cg2d: iter=    54 ; resid.=  1.81517147393624E-05
(PID.TID 0000.0001)  cg2d: iter=    55 ; resid.=  1.64872350403969E-05
(PID.TID 0000.0001)  cg2d: iter=    56 ; resid.=  1.31107521125835E-05
(PID.TID 0000.0001)  cg2d: iter=    57 ; resid.=  1.10487945291883E-05
(PID.TID 0000.0001)  cg2d: iter=    58 ; resid.=  8.62792600369272E-06
(PID.TID 0000.0001)  cg2d: iter=    59 ; resid.=  7.08154362597250E-06
(PID.TID 0000.0001)  cg2d: iter=    60 ; resid.=  5.46556265252169E-06
(PID.TID 0000.0001)  cg2d: iter=    61 ; resid.=  4.47065064657477E-06
(PID.TID 0000.0001)  cg2d: iter=    62 ; resid.=  3.68954132844476E-06
(PID.TID 0000.0001)  cg2d: iter=    63 ; resid.=  3.32311280884959E-06
(PID.TID 0000.0001)  cg2d: iter=    64 ; resid.=  2.74002908161742E-06
(PID.TID 0000.0001)  cg2d: iter=    65 ; resid.=  2.32817797451958E-06
(PID.TID 0000.0001)  cg2d: iter=    66 ; resid.=  1.93093998845118E-06
(PID.TID 0000.0001)  cg2d: iter=    67 ; resid.=  1.60145178139653E-06
(PID.TID 0000.0001)  cg2d: iter=    68 ; resid.=  1.36568344815269E-06
(PID.TID 0000.0001)  cg2d: iter=    69 ; resid.=  1.13327338826561E-06
(PID.TID 0000.0001)  cg2d: iter=    70 ; resid.=  9.05127259877650E-07
(PID.TID 0000.0001)  cg2d: iter=    71 ; resid.=  6.93884178125680E-07
(PID.TID 0000.0001)  cg2d: iter=    72 ; resid.=  5.24925394386043E-07
(PID.TID 0000.0001)  cg2d: iter=    73 ; resid.=  4.53755618106655E-07
(PID.TID 0000.0001)  cg2d: iter=    74 ; resid.=  3.87119009997395E-07
(PID.TID 0000.0001)  cg2d: iter=    75 ; resid.=  3.17145387558986E-07
(PID.TID 0000.0001)  cg2d: iter=    76 ; resid.=  2.58678786315256E-07
(PID.TID 0000.0001)  cg2d: iter=    77 ; resid.=  2.39571417673384E-07
(PID.TID 0000.0001)  cg2d: iter=    78 ; resid.=  2.21040048664386E-07
(PID.TID 0000.0001)  cg2d: iter=    79 ; resid.=  1.75652611537575E-07
(PID.TID 0000.0001)  cg2d: iter=    80 ; resid.=  1.33111401121908E-07
(PID.TID 0000.0001)  cg2d: iter=    81 ; resid.=  1.11639650707879E-07
(PID.TID 0000.0001)  cg2d: iter=    82 ; resid.=  8.23571472721792E-08
(PID.TID 0000.0001)  cg2d: iter=    83 ; resid.=  6.31166923457356E-08
(PID.TID 0000.0001)  cg2d: iter=    84 ; resid.=  4.77256932317114E-08
(PID.TID 0000.0001)  cg2d: iter=    85 ; resid.=  3.64264951356138E-08
(PID.TID 0000.0001)  cg2d: iter=    86 ; resid.=  2.82033851648050E-08
(PID.TID 0000.0001)  cg2d: iter=    87 ; resid.=  2.08855983739103E-08
(PID.TID 0000.0001)  cg2d: iter=    88 ; resid.=  1.74166798375670E-08
(PID.TID 0000.0001)  cg2d: iter=    89 ; resid.=  1.47911590610720E-08
(PID.TID 0000.0001)  cg2d: iter=    90 ; resid.=  1.27712267344195E-08
(PID.TID 0000.0001)  cg2d: iter=    91 ; resid.=  9.68062393090481E-09
(PID.TID 0000.0001)  cg2d: iter=    92 ; resid.=  7.57172202679923E-09
(PID.TID 0000.0001)  cg2d: iter=    93 ; resid.=  5.31938856587769E-09
(PID.TID 0000.0001)  cg2d: iter=    94 ; resid.=  3.77235016500447E-09
(PID.TID 0000.0001)  cg2d: iter=    95 ; resid.=  3.02071664209108E-09
(PID.TID 0000.0001)  cg2d: iter=    96 ; resid.=  2.07887756139530E-09
(PID.TID 0000.0001)  cg2d: iter=    97 ; resid.=  1.39443583724046E-09
(PID.TID 0000.0001)  cg2d: iter=    98 ; resid.=  1.04883847953752E-09
(PID.TID 0000.0001)  cg2d: iter=    99 ; resid.=  8.56713040576327E-10
(PID.TID 0000.0001)  cg2d: iter=   100 ; resid.=  7.66716346085545E-10
(PID.TID 0000.0001)  cg2d: iter=   101 ; resid.=  6.47875150720432E-10
(PID.TID 0000.0001)  cg2d: iter=   102 ; resid.=  6.00918884045223E-10
(PID.TID 0000.0001)  cg2d: iter=   103 ; resid.=  5.05056133070434E-10
(PID.TID 0000.0001)  cg2d: iter=   104 ; resid.=  4.29347864823841E-10
(PID.TID 0000.0001)  cg2d: iter=   105 ; resid.=  3.47086914028713E-10
(PID.TID 0000.0001)  cg2d: iter=   106 ; resid.=  2.89378759045562E-10
(PID.TID 0000.0001)  cg2d: iter=   107 ; resid.=  2.06745129345315E-10
(PID.TID 0000.0001)  cg2d: iter=   108 ; resid.=  1.57088566887654E-10
(PID.TID 0000.0001)  cg2d: iter=   109 ; resid.=  1.17731840086398E-10
(PID.TID 0000.0001)  cg2d: iter=   110 ; resid.=  9.26510039511954E-11
(PID.TID 0000.0001)  cg2d: iter=   111 ; resid.=  7.68834630962202E-11
(PID.TID 0000.0001)  cg2d: iter=   112 ; resid.=  6.33752459998478E-11
(PID.TID 0000.0001)  cg2d: iter=   113 ; resid.=  5.04249656714538E-11
(PID.TID 0000.0001)  cg2d: iter=   114 ; resid.=  3.92945911846262E-11
(PID.TID 0000.0001)  cg2d: iter=   115 ; resid.=  2.75118011835193E-11
(PID.TID 0000.0001)  cg2d: iter=   116 ; resid.=  1.92810635038978E-11
(PID.TID 0000.0001)  cg2d: iter=   117 ; resid.=  1.53024436708102E-11
(PID.TID 0000.0001)  cg2d: iter=   118 ; resid.=  1.11133342017254E-11
(PID.TID 0000.0001)  cg2d: iter=   119 ; resid.=  8.94707391862951E-12
(PID.TID 0000.0001)  cg2d: iter=   120 ; resid.=  7.07108689008496E-12
(PID.TID 0000.0001)  cg2d: iter=   121 ; resid.=  5.29030111494954E-12
(PID.TID 0000.0001)  cg2d: iter=   122 ; resid.=  3.75054545612079E-12
(PID.TID 0000.0001)  cg2d: iter=   123 ; resid.=  2.93831826104543E-12
(PID.TID 0000.0001)  cg2d: iter=   124 ; resid.=  2.30619161483196E-12
(PID.TID 0000.0001)  cg2d: iter=   125 ; resid.=  1.79720666028286E-12
(PID.TID 0000.0001)  cg2d: iter=   126 ; resid.=  1.25113756896690E-12
(PID.TID 0000.0001)  cg2d: iter=   127 ; resid.=  8.56609445612222E-13
(PID.TID 0000.0001)  cg2d: iter=   128 ; resid.=  6.19261957592280E-13
(PID.TID 0000.0001)  cg2d: iter=   129 ; resid.=  4.52094398344956E-13
(PID.TID 0000.0001)  cg2d: iter=   130 ; resid.=  3.87193496619460E-13
(PID.TID 0000.0001)  cg2d: iter=   131 ; resid.=  3.25435936965412E-13
(PID.TID 0000.0001)  cg2d: iter=   132 ; resid.=  2.46824371045999E-13
(PID.TID 0000.0001)  cg2d: iter=   133 ; resid.=  1.71885695786000E-13
(PID.TID 0000.0001)  cg2d: iter=   134 ; resid.=  1.29012745467876E-13
(PID.TID 0000.0001)  cg2d: iter=   135 ; resid.=  9.44605029856181E-14
DEBUG_STATS_RL:    cg2d_x (SOLVE_FOR_PRESSURE)  min= -1.58919160028226E+01
DEBUG_STATS_RL:    cg2d_x (SOLVE_FOR_PRESSURE)  max=  8.35483091956229E+00
DEBUG_STATS_RL:    cg2d_x (SOLVE_FOR_PRESSURE) mean= -1.68613430902710E+00
DEBUG_STATS_RL:    cg2d_x (SOLVE_FOR_PRESSURE) S.D.=  6.42474715996068E+00
(PID.TID 0000.0001)      cg2d_init_res =   4.36379387023744E-01
(PID.TID 0000.0001)      cg2d_iters(min,last) =      -1     135
(PID.TID 0000.0001)      cg2d_last_res =   9.44605029856181E-14
(PID.TID 0000.0001) // =======================================================
(PID.TID 0000.0001) // Begin MONITOR dynamic field statistics
(PID.TID 0000.0001) // =======================================================
(PID.TID 0000.0001) %MON time_tsnumber                =                    41
(PID.TID 0000.0001) %MON time_secondsf                =   3.5424000000000E+06
(PID.TID 0000.0001) %MON dynstat_eta_max              =   8.5166472166788E-01
(PID.TID 0000.0001) %MON dynstat_eta_min              =  -1.6199710502368E+00
(PID.TID 0000.0001) %MON dynstat_eta_mean             =  -3.0993480045955E-03
(PID.TID 0000.0001) %MON dynstat_eta_sd               =   5.6726254060627E-01
(PID.TID 0000.0001) %MON dynstat_eta_del2             =   2.1560661742211E-03
(PID.TID 0000.0001) %MON dynstat_uvel_max             =   1.5126363469190E-01
(PID.TID 0000.0001) %MON dynstat_uvel_min             =  -1.4134585335195E-01
(PID.TID 0000.0001) %MON dynstat_uvel_mean            =   1.6772582262074E-03
(PID.TID 0000.0001) %MON dynstat_uvel_sd              =   1.3532996608678E-02
(PID.TID 0000.0001) %MON dynstat_uvel_del2            =   8.4230354052219E-05
(PID.TID 0000.0001) %MON dynstat_vvel_max             =   1.0334257303509E-01
(PID.TID 0000.0001) %MON dynstat_vvel_min             =  -1.1451546721803E-01
(PID.TID 0000.0001) %MON dynstat_vvel_mean            =   4.8370643233054E-05
(PID.TID 0000.0001) %MON dynstat_vvel_sd              =   8.8296627580567E-03
(PID.TID 0000.0001) %MON dynstat_vvel_del2            =   7.5950973485528E-05
(PID.TID 0000.0001) %MON dynstat_wvel_max             =   9.4327853583987E-05
(PID.TID 0000.0001) %MON dynstat_wvel_min             =  -1.1901632059561E-04
(PID.TID 0000.0001) %MON dynstat_wvel_mean            =  -9.0001076449447E-11
(PID.TID 0000.0001) %MON dynstat_wvel_sd              =   1.3620989752570E-05
(PID.TID 0000.0001) %MON dynstat_wvel_del2            =   1.4045259853950E-07
(PID.TID 0000.0001) %MON dynstat_theta_max            =   2.9905590845817E+01
(PID.TID 0000.0001) %MON dynstat_theta_min            =  -1.9664061112106E+00
(PID.TID 0000.0001) %MON dynstat_theta_mean           =   3.6203563863926E+00
(PID.TID 0000.0001) %MON dynstat_theta_sd             =   4.4168366952054E+00
(PID.TID 0000.0001) %MON dynstat_theta_del2           =   4.6452921409543E-03
(PID.TID 0000.0001) %MON dynstat_salt_max             =   3.7452764489130E+01
(PID.TID 0000.0001) %MON dynstat_salt_min             =   2.9809826187924E+01
(PID.TID 0000.0001) %MON dynstat_salt_mean            =   3.4717285045595E+01
(PID.TID 0000.0001) %MON dynstat_salt_sd              =   2.9619734324579E-01
(PID.TID 0000.0001) %MON dynstat_salt_del2            =   9.7310811078526E-04
(PID.TID 0000.0001) %MON dynstat_sst_max              =   2.9905590845817E+01
(PID.TID 0000.0001) %MON dynstat_sst_min              =  -1.9664061112106E+00
(PID.TID 0000.0001) %MON dynstat_sst_mean             =   1.8722474776501E+01
(PID.TID 0000.0001) %MON dynstat_sst_sd               =   9.0731288616952E+00
(PID.TID 0000.0001) %MON dynstat_sst_del2             =   2.4803702953270E-02
(PID.TID 0000.0001) %MON dynstat_sss_max              =   3.7406409639638E+01
(PID.TID 0000.0001) %MON dynstat_sss_min              =   2.9809826187924E+01
(PID.TID 0000.0001) %MON dynstat_sss_mean             =   3.4843387652513E+01
(PID.TID 0000.0001) %MON dynstat_sss_sd               =   9.7518179260132E-01
(PID.TID 0000.0001) %MON dynstat_sss_del2             =   7.6616629087371E-03
(PID.TID 0000.0001) %MON forcing_qnet_max             =   3.6522328694661E+02
(PID.TID 0000.0001) %MON forcing_qnet_min             =  -1.7403156534831E+02
(PID.TID 0000.0001) %MON forcing_qnet_mean            =  -1.4389796815960E+01
(PID.TID 0000.0001) %MON forcing_qnet_sd              =   8.4259729047287E+01
(PID.TID 0000.0001) %MON forcing_qnet_del2            =   9.5401834956669E-01
(PID.TID 0000.0001) %MON forcing_qsw_max              =   0.0000000000000E+00
(PID.TID 0000.0001) %MON forcing_qsw_min              =   0.0000000000000E+00
(PID.TID 0000.0001) %MON forcing_qsw_mean             =   0.0000000000000E+00
(PID.TID 0000.0001) %MON forcing_qsw_sd               =   0.0000000000000E+00
(PID.TID 0000.0001) %MON forcing_qsw_del2             =   0.0000000000000E+00
(PID.TID 0000.0001) %MON forcing_empmr_max            =   7.4321995668925E-05
(PID.TID 0000.0001) %MON forcing_empmr_min            =  -7.8147062746818E-05
(PID.TID 0000.0001) %MON forcing_empmr_mean           =   9.3999699360960E-07
(PID.TID 0000.0001) %MON forcing_empmr_sd             =   2.8003424718777E-05
(PID.TID 0000.0001) %MON forcing_empmr_del2           =   3.5419346009159E-07
(PID.TID 0000.0001) %MON forcing_fu_max               =   2.9769973456860E-01
(PID.TID 0000.0001) %MON forcing_fu_min               =  -2.0743273198605E-01
(PID.TID 0000.0001) %MON forcing_fu_mean              =   1.7359240539291E-02
(PID.TID 0000.0001) %MON forcing_fu_sd                =   9.1619137544782E-02
(PID.TID 0000.0001) %MON forcing_fu_del2              =   7.0729330182073E-04
(PID.TID 0000.0001) %MON forcing_fv_max               =   1.9102514038483E-01
(PID.TID 0000.0001) %MON forcing_fv_min               =  -1.8381976087888E-01
(PID.TID 0000.0001) %MON forcing_fv_mean              =  -6.8904204073845E-03
(PID.TID 0000.0001) %MON forcing_fv_sd                =   4.4605886402216E-02
(PID.TID 0000.0001) %MON forcing_fv_del2              =   5.0576945240665E-04
(PID.TID 0000.0001) %MON trAdv_CFL_u_max              =   4.8490087295428E-02
(PID.TID 0000.0001) %MON trAdv_CFL_v_max              =   2.3254081645429E-02
(PID.TID 0000.0001) %MON trAdv_CFL_w_max              =   2.9071985009348E-02
(PID.TID 0000.0001) %MON advcfl_uvel_max              =   4.9998019053697E-02
(PID.TID 0000.0001) %MON advcfl_vvel_max              =   2.2248518673177E-02
(PID.TID 0000.0001) %MON advcfl_wvel_max              =   3.2998970579773E-02
(PID.TID 0000.0001) %MON advcfl_W_hf_max              =   3.9598764695728E-02
(PID.TID 0000.0001) %MON pe_b_mean                    =   4.1177727562699E-04
(PID.TID 0000.0001) %MON ke_max                       =   1.3136256046120E-02
(PID.TID 0000.0001) %MON ke_mean                      =   1.1948429183152E-04
(PID.TID 0000.0001) %MON ke_vol                       =   1.3226782436723E+18
(PID.TID 0000.0001) %MON vort_r_min                   =  -4.6078868101112E-07
(PID.TID 0000.0001) %MON vort_r_max                   =   3.9837253950663E-07
(PID.TID 0000.0001) %MON vort_a_mean                  =  -2.5274807000867E-05
(PID.TID 0000.0001) %MON vort_a_sd                    =   7.3604598186961E-05
(PID.TID 0000.0001) %MON vort_p_mean                  =  -3.1845655299786E-05
(PID.TID 0000.0001) %MON vort_p_sd                    =   1.3162426440058E-04
(PID.TID 0000.0001) %MON surfExpan_theta_mean         =   2.3635834689015E-07
(PID.TID 0000.0001) %MON surfExpan_salt_mean          =   8.5165100143357E-08
(PID.TID 0000.0001) // =======================================================
(PID.TID 0000.0001) // End MONITOR dynamic field statistics
(PID.TID 0000.0001) // =======================================================
 EXTERNAL_FIELDS_LOAD,        41 : iP,iLd,i0,i1=    1    2    1    2 ; Wght=  0.1333333333  0.8666666667
 EXTERNAL_FIELDS_LOAD: (fu0,1),fu,fv= -3.5633E-02 -1.4435E-02 -1.7261E-02 -2.2918E-02
 EXTERNAL_FIELDS_LOAD: SST,SSS,Q,E-P= -3.3315E-01  3.4460E+01  2.4385E+02  8.8118E-06
DEBUG_STATS_RL:          Uvel (THERMODYNAMICS)  min= -1.41345853351947E-01
DEBUG_STATS_RL:          Uvel (THERMODYNAMICS)  max=  1.51263634691901E-01
DEBUG_STATS_RL:          Uvel (THERMODYNAMICS) mean=  4.11473623072835E-03
DEBUG_STATS_RL:          Uvel (THERMODYNAMICS) S.D.=  2.29729426195522E-02
DEBUG_STATS_RL:          Vvel (THERMODYNAMICS)  min= -1.14515467218031E-01
DEBUG_STATS_RL:          Vvel (THERMODYNAMICS)  max=  1.03342573035091E-01
DEBUG_STATS_RL:          Vvel (THERMODYNAMICS) mean=  1.26924777904392E-04
DEBUG_STATS_RL:          Vvel (THERMODYNAMICS) S.D.=  1.36493540366574E-02
DEBUG_STATS_RL:          Wvel (THERMODYNAMICS)  min= -1.19016320595606E-04
DEBUG_STATS_RL:          Wvel (THERMODYNAMICS)  max=  9.43278535839869E-05
DEBUG_STATS_RL:          Wvel (THERMODYNAMICS) mean= -3.26314309249405E-07
DEBUG_STATS_RL:          Wvel (THERMODYNAMICS) S.D.=  1.18826818724988E-05
DEBUG_STATS_RL:         Theta (THERMODYNAMICS)  min= -1.96533872935067E+00
DEBUG_STATS_RL:         Theta (THERMODYNAMICS)  max=  2.99129933800933E+01
DEBUG_STATS_RL:         Theta (THERMODYNAMICS) mean=  3.20931870978932E+00
DEBUG_STATS_RL:         Theta (THERMODYNAMICS) S.D.=  5.85785772789044E+00
DEBUG_STATS_RL:          Salt (THERMODYNAMICS)  min= -6.86242378085645E-04
DEBUG_STATS_RL:          Salt (THERMODYNAMICS)  max=  3.74524707823046E+01
DEBUG_STATS_RL:          Salt (THERMODYNAMICS) mean=  1.88441287172640E+01
DEBUG_STATS_RL:          Salt (THERMODYNAMICS) S.D.=  1.73003345712611E+01
DEBUG_STATS_RL:         GtNm1 (THERMODYNAMICS)  min= -2.97276593510086E-06
DEBUG_STATS_RL:         GtNm1 (THERMODYNAMICS)  max=  2.48452496907515E-06
DEBUG_STATS_RL:         GtNm1 (THERMODYNAMICS) mean=  1.07744798215149E-08
DEBUG_STATS_RL:         GtNm1 (THERMODYNAMICS) S.D.=  1.78313283184784E-07
DEBUG_STATS_RL:         GsNm1 (THERMODYNAMICS)  min= -6.23240815261073E-07
DEBUG_STATS_RL:         GsNm1 (THERMODYNAMICS)  max=  5.15713290269737E-07
DEBUG_STATS_RL:         GsNm1 (THERMODYNAMICS) mean=  1.41107388493652E-10
DEBUG_STATS_RL:         GsNm1 (THERMODYNAMICS) S.D.=  1.77279528941623E-08
DEBUG_STATS_RL:                EtaN (DYNAMICS)  min= -1.61997105023678E+00
DEBUG_STATS_RL:                EtaN (DYNAMICS)  max=  8.51664721667883E-01
DEBUG_STATS_RL:                EtaN (DYNAMICS) mean= -1.71879134457401E-01
DEBUG_STATS_RL:                EtaN (DYNAMICS) S.D.=  6.54918161056131E-01
DEBUG_STATS_RL:                Uvel (DYNAMICS)  min= -1.41345853351947E-01
DEBUG_STATS_RL:                Uvel (DYNAMICS)  max=  1.51263634691901E-01
DEBUG_STATS_RL:                Uvel (DYNAMICS) mean=  4.11473623072835E-03
DEBUG_STATS_RL:                Uvel (DYNAMICS) S.D.=  2.29729426195522E-02
DEBUG_STATS_RL:                Vvel (DYNAMICS)  min= -1.14515467218031E-01
DEBUG_STATS_RL:                Vvel (DYNAMICS)  max=  1.03342573035091E-01
DEBUG_STATS_RL:                Vvel (DYNAMICS) mean=  1.26924777904392E-04
DEBUG_STATS_RL:                Vvel (DYNAMICS) S.D.=  1.36493540366574E-02
DEBUG_STATS_RL:                Wvel (DYNAMICS)  min= -1.19016320595606E-04
DEBUG_STATS_RL:                Wvel (DYNAMICS)  max=  9.43278535839869E-05
DEBUG_STATS_RL:                Wvel (DYNAMICS) mean= -3.26314309249405E-07
DEBUG_STATS_RL:                Wvel (DYNAMICS) S.D.=  1.18826818724988E-05
DEBUG_STATS_RL:               Theta (DYNAMICS)  min= -1.96533872935067E+00
DEBUG_STATS_RL:               Theta (DYNAMICS)  max=  2.99129933800933E+01
DEBUG_STATS_RL:               Theta (DYNAMICS) mean=  3.20931870978932E+00
DEBUG_STATS_RL:               Theta (DYNAMICS) S.D.=  5.85785772789044E+00
DEBUG_STATS_RL:                Salt (DYNAMICS)  min= -6.86242378085645E-04
DEBUG_STATS_RL:                Salt (DYNAMICS)  max=  3.74524707823046E+01
DEBUG_STATS_RL:                Salt (DYNAMICS) mean=  1.88441287172640E+01
DEBUG_STATS_RL:                Salt (DYNAMICS) S.D.=  1.73003345712611E+01
DEBUG_STATS_RL:                  Gu (DYNAMICS)  min= -1.40976579013014E-01
DEBUG_STATS_RL:                  Gu (DYNAMICS)  max=  1.54385713898065E-01
DEBUG_STATS_RL:                  Gu (DYNAMICS) mean=  4.20761389850667E-03
DEBUG_STATS_RL:                  Gu (DYNAMICS) S.D.=  2.37621817070599E-02
DEBUG_STATS_RL:                  Gv (DYNAMICS)  min= -1.10044123326134E-01
DEBUG_STATS_RL:                  Gv (DYNAMICS)  max=  1.07666621791383E-01
DEBUG_STATS_RL:                  Gv (DYNAMICS) mean=  2.66272049967486E-03
DEBUG_STATS_RL:                  Gv (DYNAMICS) S.D.=  1.40494871595143E-02
DEBUG_STATS_RL:               GuNm1 (DYNAMICS)  min= -8.36626135905115E-06
DEBUG_STATS_RL:               GuNm1 (DYNAMICS)  max=  8.35098573279928E-06
DEBUG_STATS_RL:               GuNm1 (DYNAMICS) mean= -1.90630282258578E-08
DEBUG_STATS_RL:               GuNm1 (DYNAMICS) S.D.=  1.16570509091378E-06
DEBUG_STATS_RL:               GvNm1 (DYNAMICS)  min= -9.92709926332567E-06
DEBUG_STATS_RL:               GvNm1 (DYNAMICS)  max=  1.63224049919058E-05
DEBUG_STATS_RL:               GvNm1 (DYNAMICS) mean=  7.51200797815150E-07
DEBUG_STATS_RL:               GvNm1 (DYNAMICS) S.D.=  2.58666937739350E-06
DEBUG_STATS_RL:               GtNm1 (DYNAMICS)  min= -2.97276593510086E-06
DEBUG_STATS_RL:               GtNm1 (DYNAMICS)  max=  2.48452496907515E-06
DEBUG_STATS_RL:               GtNm1 (DYNAMICS) mean=  1.07744798215149E-08
DEBUG_STATS_RL:               GtNm1 (DYNAMICS) S.D.=  1.78313283184784E-07
DEBUG_STATS_RL:               GsNm1 (DYNAMICS)  min= -6.23240815261073E-07
DEBUG_STATS_RL:               GsNm1 (DYNAMICS)  max=  5.15713290269737E-07
DEBUG_STATS_RL:               GsNm1 (DYNAMICS) mean=  1.41107388493652E-10
DEBUG_STATS_RL:               GsNm1 (DYNAMICS) S.D.=  1.77279528941623E-08
DEBUG_STATS_RL:    cg2d_b (SOLVE_FOR_PRESSURE)  min= -1.88414591655418E+04
DEBUG_STATS_RL:    cg2d_b (SOLVE_FOR_PRESSURE)  max=  2.16827698619560E+04
DEBUG_STATS_RL:    cg2d_b (SOLVE_FOR_PRESSURE) mean=  3.04147153981327E+00
DEBUG_STATS_RL:    cg2d_b (SOLVE_FOR_PRESSURE) S.D.=  3.60093311278167E+03
 cg2d: Sum(rhs),rhsMax =   3.24728190147984E-01  1.42418237853880E+00
(PID.TID 0000.0001)  cg2d: iter=     1 ; resid.=  9.89741078080201E-02
(PID.TID 0000.0001)  cg2d: iter=     2 ; resid.=  5.86824115001943E-02
(PID.TID 0000.0001)  cg2d: iter=     3 ; resid.=  6.78603454267261E-02
(PID.TID 0000.0001)  cg2d: iter=     4 ; resid.=  7.47441898600920E-02
(PID.TID 0000.0001)  cg2d: iter=     5 ; resid.=  6.42425741676396E-02
(PID.TID 0000.0001)  cg2d: iter=     6 ; resid.=  5.26815512761008E-02
(PID.TID 0000.0001)  cg2d: iter=     7 ; resid.=  4.06757661388039E-02
(PID.TID 0000.0001)  cg2d: iter=     8 ; resid.=  3.27516461752658E-02
(PID.TID 0000.0001)  cg2d: iter=     9 ; resid.=  2.65805625620085E-02
(PID.TID 0000.0001)  cg2d: iter=    10 ; resid.=  2.26276814477101E-02
(PID.TID 0000.0001)  cg2d: iter=    11 ; resid.=  1.85347630340910E-02
(PID.TID 0000.0001)  cg2d: iter=    12 ; resid.=  1.43591555098523E-02
(PID.TID 0000.0001)  cg2d: iter=    13 ; resid.=  1.14653923412086E-02
(PID.TID 0000.0001)  cg2d: iter=    14 ; resid.=  9.91855595142243E-03
(PID.TID 0000.0001)  cg2d: iter=    15 ; resid.=  8.80824353566822E-03
(PID.TID 0000.0001)  cg2d: iter=    16 ; resid.=  7.93796185236304E-03
(PID.TID 0000.0001)  cg2d: iter=    17 ; resid.=  7.43644869481703E-03
(PID.TID 0000.0001)  cg2d: iter=    18 ; resid.=  6.11455267243435E-03
(PID.TID 0000.0001)  cg2d: iter=    19 ; resid.=  4.90764697537085E-03
(PID.TID 0000.0001)  cg2d: iter=    20 ; resid.=  4.05629248250724E-03
(PID.TID 0000.0001)  cg2d: iter=    21 ; resid.=  3.32976877591751E-03
(PID.TID 0000.0001)  cg2d: iter=    22 ; resid.=  3.02858830767797E-03
(PID.TID 0000.0001)  cg2d: iter=    23 ; resid.=  2.67896500726302E-03
(PID.TID 0000.0001)  cg2d: iter=    24 ; resid.=  2.17271720562113E-03
(PID.TID 0000.0001)  cg2d: iter=    25 ; resid.=  1.70954364243341E-03
(PID.TID 0000.0001)  cg2d: iter=    26 ; resid.=  1.35619919212197E-03
(PID.TID 0000.0001)  cg2d: iter=    27 ; resid.=  1.15109303726686E-03
(PID.TID 0000.0001)  cg2d: iter=    28 ; resid.=  9.96226325735012E-04
(PID.TID 0000.0001)  cg2d: iter=    29 ; resid.=  8.14143482517709E-04
(PID.TID 0000.0001)  cg2d: iter=    30 ; resid.=  6.42717509971606E-04
(PID.TID 0000.0001)  cg2d: iter=    31 ; resid.=  5.32875841815676E-04
(PID.TID 0000.0001)  cg2d: iter=    32 ; resid.=  4.38733214944141E-04
(PID.TID 0000.0001)  cg2d: iter=    33 ; resid.=  3.73658329695142E-04
(PID.TID 0000.0001)  cg2d: iter=    34 ; resid.=  3.10219101124606E-04
(PID.TID 0000.0001)  cg2d: iter=    35 ; resid.=  2.68224235654570E-04
(PID.TID 0000.0001)  cg2d: iter=    36 ; resid.=  2.43742779981369E-04
(PID.TID 0000.0001)  cg2d: iter=    37 ; resid.=  2.09422770764580E-04
(PID.TID 0000.0001)  cg2d: iter=    38 ; resid.=  1.79216120323620E-04
(PID.TID 0000.0001)  cg2d: iter=    39 ; resid.=  1.51839080069549E-04
(PID.TID 0000.0001)  cg2d: iter=    40 ; resid.=  1.26344955199785E-04
(PID.TID 0000.0001)  cg2d: iter=    41 ; resid.=  1.09034132293875E-04
(PID.TID 0000.0001)  cg2d: iter=    42 ; resid.=  8.90002519094770E-05
(PID.TID 0000.0001)  cg2d: iter=    43 ; resid.=  7.19099997605498E-05
(PID.TID 0000.0001)  cg2d: iter=    44 ; resid.=  5.63707951175555E-05
(PID.TID 0000.0001)  cg2d: iter=    45 ; resid.=  4.17364671286375E-05
(PID.TID 0000.0001)  cg2d: iter=    46 ; resid.=  3.09271519943708E-05
(PID.TID 0000.0001)  cg2d: iter=    47 ; resid.=  2.50037178879534E-05
(PID.TID 0000.0001)  cg2d: iter=    48 ; resid.=  2.27906613430859E-05
(PID.TID 0000.0001)  cg2d: iter=    49 ; resid.=  1.96838838921484E-05
(PID.TID 0000.0001)  cg2d: iter=    50 ; resid.=  1.63444043707303E-05
(PID.TID 0000.0001)  cg2d: iter=    51 ; resid.=  1.33822784137267E-05
(PID.TID 0000.0001)  cg2d: iter=    52 ; resid.=  1.17119285541016E-05
(PID.TID 0000.0001)  cg2d: iter=    53 ; resid.=  1.00164403175674E-05
(PID.TID 0000.0001)  cg2d: iter=    54 ; resid.=  8.12815836994954E-06
(PID.TID 0000.0001)  cg2d: iter=    55 ; resid.=  6.51738783213389E-06
(PID.TID 0000.0001)  cg2d: iter=    56 ; resid.=  5.35745039860841E-06
(PID.TID 0000.0001)  cg2d: iter=    57 ; resid.=  4.53809153942268E-06
(PID.TID 0000.0001)  cg2d: iter=    58 ; resid.=  3.66083042287142E-06
(PID.TID 0000.0001)  cg2d: iter=    59 ; resid.=  2.81691279330829E-06
(PID.TID 0000.0001)  cg2d: iter=    60 ; resid.=  2.11691312155806E-06
(PID.TID 0000.0001)  cg2d: iter=    61 ; resid.=  1.69832157936489E-06
(PID.TID 0000.0001)  cg2d: iter=    62 ; resid.=  1.49367687979393E-06
(PID.TID 0000.0001)  cg2d: iter=    63 ; resid.=  1.24294249745378E-06
(PID.TID 0000.0001)  cg2d: iter=    64 ; resid.=  1.07822822905151E-06
(PID.TID 0000.0001)  cg2d: iter=    65 ; resid.=  8.79157256533511E-07
(PID.TID 0000.0001)  cg2d: iter=    66 ; resid.=  7.34815084514276E-07
(PID.TID 0000.0001)  cg2d: iter=    67 ; resid.=  5.90255312604706E-07
(PID.TID 0000.0001)  cg2d: iter=    68 ; resid.=  4.84229577536225E-07
(PID.TID 0000.0001)  cg2d: iter=    69 ; resid.=  4.11151974294240E-07
(PID.TID 0000.0001)  cg2d: iter=    70 ; resid.=  3.62300659452787E-07
(PID.TID 0000.0001)  cg2d: iter=    71 ; resid.=  3.06597161297123E-07
(PID.TID 0000.0001)  cg2d: iter=    72 ; resid.=  2.40493024097756E-07
(PID.TID 0000.0001)  cg2d: iter=    73 ; resid.=  1.99883667100833E-07
(PID.TID 0000.0001)  cg2d: iter=    74 ; resid.=  1.68462657093783E-07
(PID.TID 0000.0001)  cg2d: iter=    75 ; resid.=  1.45598534560300E-07
(PID.TID 0000.0001)  cg2d: iter=    76 ; resid.=  1.22121637684742E-07
(PID.TID 0000.0001)  cg2d: iter=    77 ; resid.=  1.01961201537777E-07
(PID.TID 0000.0001)  cg2d: iter=    78 ; resid.=  8.73660478262361E-08
(PID.TID 0000.0001)  cg2d: iter=    79 ; resid.=  7.45431338870153E-08
(PID.TID 0000.0001)  cg2d: iter=    80 ; resid.=  5.69914550817183E-08
(PID.TID 0000.0001)  cg2d: iter=    81 ; resid.=  4.19760889436545E-08
(PID.TID 0000.0001)  cg2d: iter=    82 ; resid.=  3.08666684475845E-08
(PID.TID 0000.0001)  cg2d: iter=    83 ; resid.=  2.24114050156409E-08
(PID.TID 0000.0001)  cg2d: iter=    84 ; resid.=  1.63510092517361E-08
(PID.TID 0000.0001)  cg2d: iter=    85 ; resid.=  1.23339971699413E-08
(PID.TID 0000.0001)  cg2d: iter=    86 ; resid.=  9.14600634923515E-09
(PID.TID 0000.0001)  cg2d: iter=    87 ; resid.=  7.35516366445430E-09
(PID.TID 0000.0001)  cg2d: iter=    88 ; resid.=  5.51681484746494E-09
(PID.TID 0000.0001)  cg2d: iter=    89 ; resid.=  4.29141564154442E-09
(PID.TID 0000.0001)  cg2d: iter=    90 ; resid.=  3.41289279723916E-09
(PID.TID 0000.0001)  cg2d: iter=    91 ; resid.=  2.68545119579645E-09
(PID.TID 0000.0001)  cg2d: iter=    92 ; resid.=  2.06705288817395E-09
(PID.TID 0000.0001)  cg2d: iter=    93 ; resid.=  1.57087304920422E-09
(PID.TID 0000.0001)  cg2d: iter=    94 ; resid.=  1.15069772234138E-09
(PID.TID 0000.0001)  cg2d: iter=    95 ; resid.=  8.52293003537844E-10
(PID.TID 0000.0001)  cg2d: iter=    96 ; resid.=  6.44604838701283E-10
(PID.TID 0000.0001)  cg2d: iter=    97 ; resid.=  5.12331205020620E-10
(PID.TID 0000.0001)  cg2d: iter=    98 ; resid.=  4.08405938754660E-10
(PID.TID 0000.0001)  cg2d: iter=    99 ; resid.=  2.96215681823234E-10
(PID.TID 0000.0001)  cg2d: iter=   100 ; resid.=  2.20495901412869E-10
(PID.TID 0000.0001)  cg2d: iter=   101 ; resid.=  1.67955918978589E-10
(PID.TID 0000.0001)  cg2d: iter=   102 ; resid.=  1.34116271210395E-10
(PID.TID 0000.0001)  cg2d: iter=   103 ; resid.=  9.78142828240640E-11
(PID.TID 0000.0001)  cg2d: iter=   104 ; resid.=  7.65096067450293E-11
(PID.TID 0000.0001)  cg2d: iter=   105 ; resid.=  6.50285829588038E-11
(PID.TID 0000.0001)  cg2d: iter=   106 ; resid.=  5.56028689014709E-11
(PID.TID 0000.0001)  cg2d: iter=   107 ; resid.=  4.68956442733155E-11
(PID.TID 0000.0001)  cg2d: iter=   108 ; resid.=  3.94940849360321E-11
(PID.TID 0000.0001)  cg2d: iter=   109 ; resid.=  3.39617366566603E-11
(PID.TID 0000.0001)  cg2d: iter=   110 ; resid.=  2.67683710819340E-11
(PID.TID 0000.0001)  cg2d: iter=   111 ; resid.=  2.40696600268357E-11
(PID.TID 0000.0001)  cg2d: iter=   112 ; resid.=  2.09640156778567E-11
(PID.TID 0000.0001)  cg2d: iter=   113 ; resid.=  1.58304102824830E-11
(PID.TID 0000.0001)  cg2d: iter=   114 ; resid.=  1.13523162247793E-11
(PID.TID 0000.0001)  cg2d: iter=   115 ; resid.=  8.76306835702815E-12
(PID.TID 0000.0001)  cg2d: iter=   116 ; resid.=  6.85541310734123E-12
(PID.TID 0000.0001)  cg2d: iter=   117 ; resid.=  5.62223067512925E-12
(PID.TID 0000.0001)  cg2d: iter=   118 ; resid.=  4.44101228561421E-12
(PID.TID 0000.0001)  cg2d: iter=   119 ; resid.=  3.58605663915412E-12
(PID.TID 0000.0001)  cg2d: iter=   120 ; resid.=  2.84258306769158E-12
(PID.TID 0000.0001)  cg2d: iter=   121 ; resid.=  2.21828264355514E-12
(PID.TID 0000.0001)  cg2d: iter=   122 ; resid.=  1.68275382914574E-12
(PID.TID 0000.0001)  cg2d: iter=   123 ; resid.=  1.28000545054624E-12
(PID.TID 0000.0001)  cg2d: iter=   124 ; resid.=  9.80942382486648E-13
(PID.TID 0000.0001)  cg2d: iter=   125 ; resid.=  7.36804952695488E-13
(PID.TID 0000.0001)  cg2d: iter=   126 ; resid.=  5.16938237884593E-13
(PID.TID 0000.0001)  cg2d: iter=   127 ; resid.=  3.37155832948557E-13
(PID.TID 0000.0001)  cg2d: iter=   128 ; resid.=  2.44988064479666E-13
(PID.TID 0000.0001)  cg2d: iter=   129 ; resid.=  1.92109356206899E-13
(PID.TID 0000.0001)  cg2d: iter=   130 ; resid.=  1.54616644250177E-13
(PID.TID 0000.0001)  cg2d: iter=   131 ; resid.=  1.16543227203144E-13
(PID.TID 0000.0001)  cg2d: iter=   132 ; resid.=  8.80335913548000E-14
DEBUG_STATS_RL:    cg2d_x (SOLVE_FOR_PRESSURE)  min= -1.59498127411140E+01
DEBUG_STATS_RL:    cg2d_x (SOLVE_FOR_PRESSURE)  max=  8.17987566664392E+00
DEBUG_STATS_RL:    cg2d_x (SOLVE_FOR_PRESSURE) mean= -1.68640580834073E+00
DEBUG_STATS_RL:    cg2d_x (SOLVE_FOR_PRESSURE) S.D.=  6.42642056267998E+00
(PID.TID 0000.0001)      cg2d_init_res =   3.70810351671971E-01
(PID.TID 0000.0001)      cg2d_iters(min,last) =      -1     132
(PID.TID 0000.0001)      cg2d_last_res =   8.80335913548000E-14
(PID.TID 0000.0001) // =======================================================
(PID.TID 0000.0001) // Begin MONITOR dynamic field statistics
(PID.TID 0000.0001) // =======================================================
(PID.TID 0000.0001) %MON time_tsnumber                =                    42
(PID.TID 0000.0001) %MON time_secondsf                =   3.6288000000000E+06
(PID.TID 0000.0001) %MON dynstat_eta_max              =   8.3383034318500E-01
(PID.TID 0000.0001) %MON dynstat_eta_min              =  -1.6258728584214E+00
(PID.TID 0000.0001) %MON dynstat_eta_mean             =  -3.1733984217746E-03
(PID.TID 0000.0001) %MON dynstat_eta_sd               =   5.6640789478635E-01
(PID.TID 0000.0001) %MON dynstat_eta_del2             =   2.1598953276325E-03
(PID.TID 0000.0001) %MON dynstat_uvel_max             =   1.5400308725041E-01
(PID.TID 0000.0001) %MON dynstat_uvel_min             =  -1.4084228981277E-01
(PID.TID 0000.0001) %MON dynstat_uvel_mean            =   1.6973440058252E-03
(PID.TID 0000.0001) %MON dynstat_uvel_sd              =   1.3831849664529E-02
(PID.TID 0000.0001) %MON dynstat_uvel_del2            =   8.5129699415234E-05
(PID.TID 0000.0001) %MON dynstat_vvel_max             =   1.0667148913595E-01
(PID.TID 0000.0001) %MON dynstat_vvel_min             =  -1.1407816335027E-01
(PID.TID 0000.0001) %MON dynstat_vvel_mean            =   5.6005529935261E-05
(PID.TID 0000.0001) %MON dynstat_vvel_sd              =   8.8102013418632E-03
(PID.TID 0000.0001) %MON dynstat_vvel_del2            =   7.5827568524840E-05
(PID.TID 0000.0001) %MON dynstat_wvel_max             =   1.0009153229038E-04
(PID.TID 0000.0001) %MON dynstat_wvel_min             =  -1.1681158125608E-04
(PID.TID 0000.0001) %MON dynstat_wvel_mean            =   3.3750403668741E-11
(PID.TID 0000.0001) %MON dynstat_wvel_sd              =   1.3511164068647E-05
(PID.TID 0000.0001) %MON dynstat_wvel_del2            =   1.3802360243634E-07
(PID.TID 0000.0001) %MON dynstat_theta_max            =   2.9912993380093E+01
(PID.TID 0000.0001) %MON dynstat_theta_min            =  -1.9653387293507E+00
(PID.TID 0000.0001) %MON dynstat_theta_mean           =   3.6204083169880E+00
(PID.TID 0000.0001) %MON dynstat_theta_sd             =   4.4169935592497E+00
(PID.TID 0000.0001) %MON dynstat_theta_del2           =   4.6395415536002E-03
(PID.TID 0000.0001) %MON dynstat_salt_max             =   3.7452470782305E+01
(PID.TID 0000.0001) %MON dynstat_salt_min             =   2.9811154786452E+01
(PID.TID 0000.0001) %MON dynstat_salt_mean            =   3.4717284073267E+01
(PID.TID 0000.0001) %MON dynstat_salt_sd              =   2.9619672411254E-01
(PID.TID 0000.0001) %MON dynstat_salt_del2            =   9.7237739558878E-04
(PID.TID 0000.0001) %MON dynstat_sst_max              =   2.9912993380093E+01
(PID.TID 0000.0001) %MON dynstat_sst_min              =  -1.9653387293507E+00
(PID.TID 0000.0001) %MON dynstat_sst_mean             =   1.8730138561337E+01
(PID.TID 0000.0001) %MON dynstat_sst_sd               =   9.0729318710933E+00
(PID.TID 0000.0001) %MON dynstat_sst_del2             =   2.4779079513556E-02
(PID.TID 0000.0001) %MON dynstat_sss_max              =   3.7403910891416E+01
(PID.TID 0000.0001) %MON dynstat_sss_min              =   2.9811154786452E+01
(PID.TID 0000.0001) %MON dynstat_sss_mean             =   3.4843445934648E+01
(PID.TID 0000.0001) %MON dynstat_sss_sd               =   9.7519223599279E-01
(PID.TID 0000.0001) %MON dynstat_sss_del2             =   7.6545219489506E-03
(PID.TID 0000.0001) %MON forcing_qnet_max             =   3.6386907755534E+02
(PID.TID 0000.0001) %MON forcing_qnet_min             =  -1.7379204610189E+02
(PID.TID 0000.0001) %MON forcing_qnet_mean            =  -1.4304887648557E+01
(PID.TID 0000.0001) %MON forcing_qnet_sd              =   8.3311816502922E+01
(PID.TID 0000.0001) %MON forcing_qnet_del2            =   9.5280129086967E-01
(PID.TID 0000.0001) %MON forcing_qsw_max              =   0.0000000000000E+00
(PID.TID 0000.0001) %MON forcing_qsw_min              =   0.0000000000000E+00
(PID.TID 0000.0001) %MON forcing_qsw_mean             =   0.0000000000000E+00
(PID.TID 0000.0001) %MON forcing_qsw_sd               =   0.0000000000000E+00
(PID.TID 0000.0001) %MON forcing_qsw_del2             =   0.0000000000000E+00
(PID.TID 0000.0001) %MON forcing_empmr_max            =   7.4007905936924E-05
(PID.TID 0000.0001) %MON forcing_empmr_min            =  -7.8226707008374E-05
(PID.TID 0000.0001) %MON forcing_empmr_mean           =   9.4067939086955E-07
(PID.TID 0000.0001) %MON forcing_empmr_sd             =   2.7995335629189E-05
(PID.TID 0000.0001) %MON forcing_empmr_del2           =   3.5444699729804E-07
(PID.TID 0000.0001) %MON forcing_fu_max               =   2.9908689260483E-01
(PID.TID 0000.0001) %MON forcing_fu_min               =  -2.0909265577793E-01
(PID.TID 0000.0001) %MON forcing_fu_mean              =   1.7413540754760E-02
(PID.TID 0000.0001) %MON forcing_fu_sd                =   9.1865449563120E-02
(PID.TID 0000.0001) %MON forcing_fu_del2              =   7.1428703033322E-04
(PID.TID 0000.0001) %MON forcing_fv_max               =   1.9313710530599E-01
(PID.TID 0000.0001) %MON forcing_fv_min               =  -1.8699165980021E-01
(PID.TID 0000.0001) %MON forcing_fv_mean              =  -6.9556813140996E-03
(PID.TID 0000.0001) %MON forcing_fv_sd                =   4.4663298961799E-02
(PID.TID 0000.0001) %MON forcing_fv_del2              =   5.1218138954002E-04
(PID.TID 0000.0001) %MON trAdv_CFL_u_max              =   5.0008174008958E-02
(PID.TID 0000.0001) %MON trAdv_CFL_v_max              =   2.4402582584270E-02
(PID.TID 0000.0001) %MON trAdv_CFL_w_max              =   2.9769952065588E-02
(PID.TID 0000.0001) %MON advcfl_uvel_max              =   5.0903505699550E-02
(PID.TID 0000.0001) %MON advcfl_vvel_max              =   2.2163557545181E-02
(PID.TID 0000.0001) %MON advcfl_wvel_max              =   3.4691652281132E-02
(PID.TID 0000.0001) %MON advcfl_W_hf_max              =   4.1629982737358E-02
(PID.TID 0000.0001) %MON pe_b_mean                    =   4.1053806269633E-04
(PID.TID 0000.0001) %MON ke_max                       =   1.3026839196549E-02
(PID.TID 0000.0001) %MON ke_mean                      =   1.2307674281308E-04
(PID.TID 0000.0001) %MON ke_vol                       =   1.3226782436723E+18
(PID.TID 0000.0001) %MON vort_r_min                   =  -4.6927144089122E-07
(PID.TID 0000.0001) %MON vort_r_max                   =   3.9337692768859E-07
(PID.TID 0000.0001) %MON vort_a_mean                  =  -2.5274807054402E-05
(PID.TID 0000.0001) %MON vort_a_sd                    =   7.3604597644244E-05
(PID.TID 0000.0001) %MON vort_p_mean                  =  -3.1845655367239E-05
(PID.TID 0000.0001) %MON vort_p_sd                    =   1.3162422152757E-04
(PID.TID 0000.0001) %MON surfExpan_theta_mean         =   1.4366254809231E-07
(PID.TID 0000.0001) %MON surfExpan_salt_mean          =   7.9952108281223E-08
(PID.TID 0000.0001) // =======================================================
(PID.TID 0000.0001) // End MONITOR dynamic field statistics
(PID.TID 0000.0001) // =======================================================
 EXTERNAL_FIELDS_LOAD,        42 : iP,iLd,i0,i1=    1    2    1    2 ; Wght=  0.1000000000  0.9000000000
 EXTERNAL_FIELDS_LOAD: (fu0,1),fu,fv= -3.5633E-02 -1.4435E-02 -1.6555E-02 -2.1598E-02
 EXTERNAL_FIELDS_LOAD: SST,SSS,Q,E-P= -3.8283E-01  3.4450E+01  2.4301E+02  8.7032E-06
DEBUG_STATS_RL:          Uvel (THERMODYNAMICS)  min= -1.40842289812774E-01
DEBUG_STATS_RL:          Uvel (THERMODYNAMICS)  max=  1.54003087250405E-01
DEBUG_STATS_RL:          Uvel (THERMODYNAMICS) mean=  4.36881603891691E-03
DEBUG_STATS_RL:          Uvel (THERMODYNAMICS) S.D.=  2.34638670640933E-02
DEBUG_STATS_RL:          Vvel (THERMODYNAMICS)  min= -1.14078163350268E-01
DEBUG_STATS_RL:          Vvel (THERMODYNAMICS)  max=  1.06671489135953E-01
DEBUG_STATS_RL:          Vvel (THERMODYNAMICS) mean=  3.15915617748751E-04
DEBUG_STATS_RL:          Vvel (THERMODYNAMICS) S.D.=  1.37085524391524E-02
DEBUG_STATS_RL:          Wvel (THERMODYNAMICS)  min= -1.16811581256080E-04
DEBUG_STATS_RL:          Wvel (THERMODYNAMICS)  max=  1.00091532290385E-04
DEBUG_STATS_RL:          Wvel (THERMODYNAMICS) mean= -2.83450129860794E-07
DEBUG_STATS_RL:          Wvel (THERMODYNAMICS) S.D.=  1.17731922556877E-05
DEBUG_STATS_RL:         Theta (THERMODYNAMICS)  min= -1.96366191185312E+00
DEBUG_STATS_RL:         Theta (THERMODYNAMICS)  max=  2.99193985989963E+01
DEBUG_STATS_RL:         Theta (THERMODYNAMICS) mean=  3.20973452999609E+00
DEBUG_STATS_RL:         Theta (THERMODYNAMICS) S.D.=  5.85848570429200E+00
DEBUG_STATS_RL:          Salt (THERMODYNAMICS)  min= -6.86242378085645E-04
DEBUG_STATS_RL:          Salt (THERMODYNAMICS)  max=  3.74522627414007E+01
DEBUG_STATS_RL:          Salt (THERMODYNAMICS) mean=  1.88441407213619E+01
DEBUG_STATS_RL:          Salt (THERMODYNAMICS) S.D.=  1.73003459253905E+01
DEBUG_STATS_RL:         GtNm1 (THERMODYNAMICS)  min= -2.52112474773230E-06
DEBUG_STATS_RL:         GtNm1 (THERMODYNAMICS)  max=  2.61312171083840E-06
DEBUG_STATS_RL:         GtNm1 (THERMODYNAMICS) mean=  1.02498201693532E-08
DEBUG_STATS_RL:         GtNm1 (THERMODYNAMICS) S.D.=  1.77491770758710E-07
DEBUG_STATS_RL:         GsNm1 (THERMODYNAMICS)  min= -4.76755056129439E-07
DEBUG_STATS_RL:         GsNm1 (THERMODYNAMICS)  max=  4.16115814656234E-07
DEBUG_STATS_RL:         GsNm1 (THERMODYNAMICS) mean=  2.00493653683712E-10
DEBUG_STATS_RL:         GsNm1 (THERMODYNAMICS) S.D.=  1.77282468554116E-08
DEBUG_STATS_RL:                EtaN (DYNAMICS)  min= -1.62587285842137E+00
DEBUG_STATS_RL:                EtaN (DYNAMICS)  max=  8.33830343185001E-01
DEBUG_STATS_RL:                EtaN (DYNAMICS) mean= -1.71906810228414E-01
DEBUG_STATS_RL:                EtaN (DYNAMICS) S.D.=  6.55088742373089E-01
DEBUG_STATS_RL:                Uvel (DYNAMICS)  min= -1.40842289812774E-01
DEBUG_STATS_RL:                Uvel (DYNAMICS)  max=  1.54003087250405E-01
DEBUG_STATS_RL:                Uvel (DYNAMICS) mean=  4.36881603891691E-03
DEBUG_STATS_RL:                Uvel (DYNAMICS) S.D.=  2.34638670640933E-02
DEBUG_STATS_RL:                Vvel (DYNAMICS)  min= -1.14078163350268E-01
DEBUG_STATS_RL:                Vvel (DYNAMICS)  max=  1.06671489135953E-01
DEBUG_STATS_RL:                Vvel (DYNAMICS) mean=  3.15915617748751E-04
DEBUG_STATS_RL:                Vvel (DYNAMICS) S.D.=  1.37085524391524E-02
DEBUG_STATS_RL:                Wvel (DYNAMICS)  min= -1.16811581256080E-04
DEBUG_STATS_RL:                Wvel (DYNAMICS)  max=  1.00091532290385E-04
DEBUG_STATS_RL:                Wvel (DYNAMICS) mean= -2.83450129860794E-07
DEBUG_STATS_RL:                Wvel (DYNAMICS) S.D.=  1.17731922556877E-05
DEBUG_STATS_RL:               Theta (DYNAMICS)  min= -1.96366191185312E+00
DEBUG_STATS_RL:               Theta (DYNAMICS)  max=  2.99193985989963E+01
DEBUG_STATS_RL:               Theta (DYNAMICS) mean=  3.20973452999609E+00
DEBUG_STATS_RL:               Theta (DYNAMICS) S.D.=  5.85848570429200E+00
DEBUG_STATS_RL:                Salt (DYNAMICS)  min= -6.86242378085645E-04
DEBUG_STATS_RL:                Salt (DYNAMICS)  max=  3.74522627414007E+01
DEBUG_STATS_RL:                Salt (DYNAMICS) mean=  1.88441407213619E+01
DEBUG_STATS_RL:                Salt (DYNAMICS) S.D.=  1.73003459253905E+01
DEBUG_STATS_RL:                  Gu (DYNAMICS)  min= -1.40199587234314E-01
DEBUG_STATS_RL:                  Gu (DYNAMICS)  max=  1.58922998369765E-01
DEBUG_STATS_RL:                  Gu (DYNAMICS) mean=  4.43845852726271E-03
DEBUG_STATS_RL:                  Gu (DYNAMICS) S.D.=  2.41553516537166E-02
DEBUG_STATS_RL:                  Gv (DYNAMICS)  min= -1.09452330418789E-01
DEBUG_STATS_RL:                  Gv (DYNAMICS)  max=  1.11702718843467E-01
DEBUG_STATS_RL:                  Gv (DYNAMICS) mean=  2.88387521916120E-03
DEBUG_STATS_RL:                  Gv (DYNAMICS) S.D.=  1.42272397091029E-02
DEBUG_STATS_RL:               GuNm1 (DYNAMICS)  min= -8.46916303339854E-06
DEBUG_STATS_RL:               GuNm1 (DYNAMICS)  max=  8.41984956759708E-06
DEBUG_STATS_RL:               GuNm1 (DYNAMICS) mean= -1.82049859342229E-08
DEBUG_STATS_RL:               GuNm1 (DYNAMICS) S.D.=  1.16525944602433E-06
DEBUG_STATS_RL:               GvNm1 (DYNAMICS)  min= -9.84136041551948E-06
DEBUG_STATS_RL:               GvNm1 (DYNAMICS)  max=  1.63260580112950E-05
DEBUG_STATS_RL:               GvNm1 (DYNAMICS) mean=  7.50781578799366E-07
DEBUG_STATS_RL:               GvNm1 (DYNAMICS) S.D.=  2.58364791311314E-06
DEBUG_STATS_RL:               GtNm1 (DYNAMICS)  min= -2.52112474773230E-06
DEBUG_STATS_RL:               GtNm1 (DYNAMICS)  max=  2.61312171083840E-06
DEBUG_STATS_RL:               GtNm1 (DYNAMICS) mean=  1.02498201693532E-08
DEBUG_STATS_RL:               GtNm1 (DYNAMICS) S.D.=  1.77491770758710E-07
DEBUG_STATS_RL:               GsNm1 (DYNAMICS)  min= -4.76755056129439E-07
DEBUG_STATS_RL:               GsNm1 (DYNAMICS)  max=  4.16115814656234E-07
DEBUG_STATS_RL:               GsNm1 (DYNAMICS) mean=  2.00493653683712E-10
DEBUG_STATS_RL:               GsNm1 (DYNAMICS) S.D.=  1.77282468554116E-08
DEBUG_STATS_RL:    cg2d_b (SOLVE_FOR_PRESSURE)  min= -1.88506680096803E+04
DEBUG_STATS_RL:    cg2d_b (SOLVE_FOR_PRESSURE)  max=  2.21987657199569E+04
DEBUG_STATS_RL:    cg2d_b (SOLVE_FOR_PRESSURE) mean=  3.11678786356814E+00
DEBUG_STATS_RL:    cg2d_b (SOLVE_FOR_PRESSURE) S.D.=  3.59635887755929E+03
 cg2d: Sum(rhs),rhsMax =   3.25034463410451E-01  1.45807436803288E+00
(PID.TID 0000.0001)  cg2d: iter=     1 ; resid.=  9.50467079638135E-02
(PID.TID 0000.0001)  cg2d: iter=     2 ; resid.=  5.32529768734547E-02
(PID.TID 0000.0001)  cg2d: iter=     3 ; resid.=  5.95262097647078E-02
(PID.TID 0000.0001)  cg2d: iter=     4 ; resid.=  6.52107878626363E-02
(PID.TID 0000.0001)  cg2d: iter=     5 ; resid.=  5.67076851362688E-02
(PID.TID 0000.0001)  cg2d: iter=     6 ; resid.=  4.68268478459331E-02
(PID.TID 0000.0001)  cg2d: iter=     7 ; resid.=  3.62006284229134E-02
(PID.TID 0000.0001)  cg2d: iter=     8 ; resid.=  3.00635088854025E-02
(PID.TID 0000.0001)  cg2d: iter=     9 ; resid.=  2.50301187733727E-02
(PID.TID 0000.0001)  cg2d: iter=    10 ; resid.=  2.10321316247178E-02
(PID.TID 0000.0001)  cg2d: iter=    11 ; resid.=  1.70732046068586E-02
(PID.TID 0000.0001)  cg2d: iter=    12 ; resid.=  1.31302595598479E-02
(PID.TID 0000.0001)  cg2d: iter=    13 ; resid.=  1.03152661165501E-02
(PID.TID 0000.0001)  cg2d: iter=    14 ; resid.=  8.48673221249659E-03
(PID.TID 0000.0001)  cg2d: iter=    15 ; resid.=  7.48357174609435E-03
(PID.TID 0000.0001)  cg2d: iter=    16 ; resid.=  6.87005544439873E-03
(PID.TID 0000.0001)  cg2d: iter=    17 ; resid.=  6.61583226717537E-03
(PID.TID 0000.0001)  cg2d: iter=    18 ; resid.=  5.48151548807960E-03
(PID.TID 0000.0001)  cg2d: iter=    19 ; resid.=  4.48657535918066E-03
(PID.TID 0000.0001)  cg2d: iter=    20 ; resid.=  3.70758783220636E-03
(PID.TID 0000.0001)  cg2d: iter=    21 ; resid.=  3.08090471271120E-03
(PID.TID 0000.0001)  cg2d: iter=    22 ; resid.=  2.83366054828628E-03
(PID.TID 0000.0001)  cg2d: iter=    23 ; resid.=  2.46662411962560E-03
(PID.TID 0000.0001)  cg2d: iter=    24 ; resid.=  1.97384812437356E-03
(PID.TID 0000.0001)  cg2d: iter=    25 ; resid.=  1.53722715894187E-03
(PID.TID 0000.0001)  cg2d: iter=    26 ; resid.=  1.20255927777143E-03
(PID.TID 0000.0001)  cg2d: iter=    27 ; resid.=  9.96190941421993E-04
(PID.TID 0000.0001)  cg2d: iter=    28 ; resid.=  8.57969901836457E-04
(PID.TID 0000.0001)  cg2d: iter=    29 ; resid.=  7.24687267749448E-04
(PID.TID 0000.0001)  cg2d: iter=    30 ; resid.=  5.81042833635626E-04
(PID.TID 0000.0001)  cg2d: iter=    31 ; resid.=  4.87529691502528E-04
(PID.TID 0000.0001)  cg2d: iter=    32 ; resid.=  4.11656691933276E-04
(PID.TID 0000.0001)  cg2d: iter=    33 ; resid.=  3.55715540263158E-04
(PID.TID 0000.0001)  cg2d: iter=    34 ; resid.=  2.88860906087177E-04
(PID.TID 0000.0001)  cg2d: iter=    35 ; resid.=  2.44914055866787E-04
(PID.TID 0000.0001)  cg2d: iter=    36 ; resid.=  2.21266138668007E-04
(PID.TID 0000.0001)  cg2d: iter=    37 ; resid.=  1.87401388402944E-04
(PID.TID 0000.0001)  cg2d: iter=    38 ; resid.=  1.58553362253701E-04
(PID.TID 0000.0001)  cg2d: iter=    39 ; resid.=  1.34242890027670E-04
(PID.TID 0000.0001)  cg2d: iter=    40 ; resid.=  1.15588994048620E-04
(PID.TID 0000.0001)  cg2d: iter=    41 ; resid.=  1.01012604730779E-04
(PID.TID 0000.0001)  cg2d: iter=    42 ; resid.=  7.95413799316037E-05
(PID.TID 0000.0001)  cg2d: iter=    43 ; resid.=  6.12450167287724E-05
(PID.TID 0000.0001)  cg2d: iter=    44 ; resid.=  4.75477976095713E-05
(PID.TID 0000.0001)  cg2d: iter=    45 ; resid.=  3.58390289761336E-05
(PID.TID 0000.0001)  cg2d: iter=    46 ; resid.=  2.66011470874584E-05
(PID.TID 0000.0001)  cg2d: iter=    47 ; resid.=  2.08820817423292E-05
(PID.TID 0000.0001)  cg2d: iter=    48 ; resid.=  1.86742587933211E-05
(PID.TID 0000.0001)  cg2d: iter=    49 ; resid.=  1.62206508342767E-05
(PID.TID 0000.0001)  cg2d: iter=    50 ; resid.=  1.33327189673804E-05
(PID.TID 0000.0001)  cg2d: iter=    51 ; resid.=  1.05802966033927E-05
(PID.TID 0000.0001)  cg2d: iter=    52 ; resid.=  9.21050591666348E-06
(PID.TID 0000.0001)  cg2d: iter=    53 ; resid.=  8.37370941090925E-06
(PID.TID 0000.0001)  cg2d: iter=    54 ; resid.=  7.17766063396311E-06
(PID.TID 0000.0001)  cg2d: iter=    55 ; resid.=  5.60962116982955E-06
(PID.TID 0000.0001)  cg2d: iter=    56 ; resid.=  4.33744959238726E-06
(PID.TID 0000.0001)  cg2d: iter=    57 ; resid.=  3.63226322564209E-06
(PID.TID 0000.0001)  cg2d: iter=    58 ; resid.=  2.94362282244926E-06
(PID.TID 0000.0001)  cg2d: iter=    59 ; resid.=  2.21454077922008E-06
(PID.TID 0000.0001)  cg2d: iter=    60 ; resid.=  1.59192228551849E-06
(PID.TID 0000.0001)  cg2d: iter=    61 ; resid.=  1.26957290998228E-06
(PID.TID 0000.0001)  cg2d: iter=    62 ; resid.=  1.08683336567641E-06
(PID.TID 0000.0001)  cg2d: iter=    63 ; resid.=  8.68000289318192E-07
(PID.TID 0000.0001)  cg2d: iter=    64 ; resid.=  7.37610890457000E-07
(PID.TID 0000.0001)  cg2d: iter=    65 ; resid.=  6.22518387933779E-07
(PID.TID 0000.0001)  cg2d: iter=    66 ; resid.=  5.46823363381360E-07
(PID.TID 0000.0001)  cg2d: iter=    67 ; resid.=  4.48930307220323E-07
(PID.TID 0000.0001)  cg2d: iter=    68 ; resid.=  3.56013270582896E-07
(PID.TID 0000.0001)  cg2d: iter=    69 ; resid.=  2.95606450124958E-07
(PID.TID 0000.0001)  cg2d: iter=    70 ; resid.=  2.65780836582652E-07
(PID.TID 0000.0001)  cg2d: iter=    71 ; resid.=  2.33117925926790E-07
(PID.TID 0000.0001)  cg2d: iter=    72 ; resid.=  1.86257727570477E-07
(PID.TID 0000.0001)  cg2d: iter=    73 ; resid.=  1.54205988289930E-07
(PID.TID 0000.0001)  cg2d: iter=    74 ; resid.=  1.32342237340465E-07
(PID.TID 0000.0001)  cg2d: iter=    75 ; resid.=  1.12946356906878E-07
(PID.TID 0000.0001)  cg2d: iter=    76 ; resid.=  9.17874665046195E-08
(PID.TID 0000.0001)  cg2d: iter=    77 ; resid.=  7.65167435140943E-08
(PID.TID 0000.0001)  cg2d: iter=    78 ; resid.=  6.74786527821265E-08
(PID.TID 0000.0001)  cg2d: iter=    79 ; resid.=  5.97419997864314E-08
(PID.TID 0000.0001)  cg2d: iter=    80 ; resid.=  4.82925253604204E-08
(PID.TID 0000.0001)  cg2d: iter=    81 ; resid.=  3.70789174740382E-08
(PID.TID 0000.0001)  cg2d: iter=    82 ; resid.=  2.79114841304486E-08
(PID.TID 0000.0001)  cg2d: iter=    83 ; resid.=  2.08399395608541E-08
(PID.TID 0000.0001)  cg2d: iter=    84 ; resid.=  1.50886656035737E-08
(PID.TID 0000.0001)  cg2d: iter=    85 ; resid.=  1.08314776621205E-08
(PID.TID 0000.0001)  cg2d: iter=    86 ; resid.=  7.63082334381632E-09
(PID.TID 0000.0001)  cg2d: iter=    87 ; resid.=  5.98667458900500E-09
(PID.TID 0000.0001)  cg2d: iter=    88 ; resid.=  4.43891713646048E-09
(PID.TID 0000.0001)  cg2d: iter=    89 ; resid.=  3.37554432683969E-09
(PID.TID 0000.0001)  cg2d: iter=    90 ; resid.=  2.61214710423964E-09
(PID.TID 0000.0001)  cg2d: iter=    91 ; resid.=  2.03307076902944E-09
(PID.TID 0000.0001)  cg2d: iter=    92 ; resid.=  1.57379551054762E-09
(PID.TID 0000.0001)  cg2d: iter=    93 ; resid.=  1.20411438698356E-09
(PID.TID 0000.0001)  cg2d: iter=    94 ; resid.=  8.96139164942864E-10
(PID.TID 0000.0001)  cg2d: iter=    95 ; resid.=  6.82200515285373E-10
(PID.TID 0000.0001)  cg2d: iter=    96 ; resid.=  5.55971674934067E-10
(PID.TID 0000.0001)  cg2d: iter=    97 ; resid.=  4.83593359456166E-10
(PID.TID 0000.0001)  cg2d: iter=    98 ; resid.=  4.24370817817439E-10
(PID.TID 0000.0001)  cg2d: iter=    99 ; resid.=  3.38362272234930E-10
(PID.TID 0000.0001)  cg2d: iter=   100 ; resid.=  2.78416973051684E-10
(PID.TID 0000.0001)  cg2d: iter=   101 ; resid.=  2.29671919604115E-10
(PID.TID 0000.0001)  cg2d: iter=   102 ; resid.=  1.92038265023395E-10
(PID.TID 0000.0001)  cg2d: iter=   103 ; resid.=  1.48694389198973E-10
(PID.TID 0000.0001)  cg2d: iter=   104 ; resid.=  1.25034466433582E-10
(PID.TID 0000.0001)  cg2d: iter=   105 ; resid.=  1.07538206384180E-10
(PID.TID 0000.0001)  cg2d: iter=   106 ; resid.=  8.86619051599076E-11
(PID.TID 0000.0001)  cg2d: iter=   107 ; resid.=  7.02609805328329E-11
(PID.TID 0000.0001)  cg2d: iter=   108 ; resid.=  5.55408421899862E-11
(PID.TID 0000.0001)  cg2d: iter=   109 ; resid.=  4.43402281101398E-11
(PID.TID 0000.0001)  cg2d: iter=   110 ; resid.=  3.28464098360318E-11
(PID.TID 0000.0001)  cg2d: iter=   111 ; resid.=  2.65418943968886E-11
(PID.TID 0000.0001)  cg2d: iter=   112 ; resid.=  2.09500686242978E-11
(PID.TID 0000.0001)  cg2d: iter=   113 ; resid.=  1.49974594096468E-11
(PID.TID 0000.0001)  cg2d: iter=   114 ; resid.=  1.03433825833398E-11
(PID.TID 0000.0001)  cg2d: iter=   115 ; resid.=  7.60867165517619E-12
(PID.TID 0000.0001)  cg2d: iter=   116 ; resid.=  5.50536258432593E-12
(PID.TID 0000.0001)  cg2d: iter=   117 ; resid.=  4.29222156240458E-12
(PID.TID 0000.0001)  cg2d: iter=   118 ; resid.=  3.28409904669376E-12
(PID.TID 0000.0001)  cg2d: iter=   119 ; resid.=  2.51439774761099E-12
(PID.TID 0000.0001)  cg2d: iter=   120 ; resid.=  1.94275155551668E-12
(PID.TID 0000.0001)  cg2d: iter=   121 ; resid.=  1.51416557846581E-12
(PID.TID 0000.0001)  cg2d: iter=   122 ; resid.=  1.16801302454811E-12
(PID.TID 0000.0001)  cg2d: iter=   123 ; resid.=  9.18682573557602E-13
(PID.TID 0000.0001)  cg2d: iter=   124 ; resid.=  7.39259995572021E-13
(PID.TID 0000.0001)  cg2d: iter=   125 ; resid.=  5.89343074483853E-13
(PID.TID 0000.0001)  cg2d: iter=   126 ; resid.=  4.33302388334307E-13
(PID.TID 0000.0001)  cg2d: iter=   127 ; resid.=  2.80972725016945E-13
(PID.TID 0000.0001)  cg2d: iter=   128 ; resid.=  1.93054351992521E-13
(PID.TID 0000.0001)  cg2d: iter=   129 ; resid.=  1.39739578143026E-13
(PID.TID 0000.0001)  cg2d: iter=   130 ; resid.=  1.06353306598643E-13
(PID.TID 0000.0001)  cg2d: iter=   131 ; resid.=  7.94965804835509E-14
DEBUG_STATS_RL:    cg2d_x (SOLVE_FOR_PRESSURE)  min= -1.60944407932976E+01
DEBUG_STATS_RL:    cg2d_x (SOLVE_FOR_PRESSURE)  max=  8.01197987486991E+00
DEBUG_STATS_RL:    cg2d_x (SOLVE_FOR_PRESSURE) mean= -1.68492070651884E+00
DEBUG_STATS_RL:    cg2d_x (SOLVE_FOR_PRESSURE) S.D.=  6.42991312471697E+00
(PID.TID 0000.0001)      cg2d_init_res =   3.55944602328984E-01
(PID.TID 0000.0001)      cg2d_iters(min,last) =      -1     131
(PID.TID 0000.0001)      cg2d_last_res =   7.94965804835509E-14
(PID.TID 0000.0001) // =======================================================
(PID.TID 0000.0001) // Begin MONITOR dynamic field statistics
(PID.TID 0000.0001) // =======================================================
(PID.TID 0000.0001) %MON time_tsnumber                =                    43
(PID.TID 0000.0001) %MON time_secondsf                =   3.7152000000000E+06
(PID.TID 0000.0001) %MON dynstat_eta_max              =   8.1671558357497E-01
(PID.TID 0000.0001) %MON dynstat_eta_min              =  -1.6406157791334E+00
(PID.TID 0000.0001) %MON dynstat_eta_mean             =  -3.2519816666972E-03
(PID.TID 0000.0001) %MON dynstat_eta_sd               =   5.6583942722063E-01
(PID.TID 0000.0001) %MON dynstat_eta_del2             =   2.1653764484703E-03
(PID.TID 0000.0001) %MON dynstat_uvel_max             =   1.5773707932400E-01
(PID.TID 0000.0001) %MON dynstat_uvel_min             =  -1.4000426756949E-01
(PID.TID 0000.0001) %MON dynstat_uvel_mean            =   1.7203762669705E-03
(PID.TID 0000.0001) %MON dynstat_uvel_sd              =   1.4080730256690E-02
(PID.TID 0000.0001) %MON dynstat_uvel_del2            =   8.5806381354605E-05
(PID.TID 0000.0001) %MON dynstat_vvel_max             =   1.1054092258499E-01
(PID.TID 0000.0001) %MON dynstat_vvel_min             =  -1.1320177169370E-01
(PID.TID 0000.0001) %MON dynstat_vvel_mean            =   6.1013203545797E-05
(PID.TID 0000.0001) %MON dynstat_vvel_sd              =   8.7717473148307E-03
(PID.TID 0000.0001) %MON dynstat_vvel_del2            =   7.5685773489174E-05
(PID.TID 0000.0001) %MON dynstat_wvel_max             =   1.0262229340778E-04
(PID.TID 0000.0001) %MON dynstat_wvel_min             =  -1.1334196420976E-04
(PID.TID 0000.0001) %MON dynstat_wvel_mean            =  -2.0450560442727E-22
(PID.TID 0000.0001) %MON dynstat_wvel_sd              =   1.3387818631700E-05
(PID.TID 0000.0001) %MON dynstat_wvel_del2            =   1.3594472313637E-07
(PID.TID 0000.0001) %MON dynstat_theta_max            =   2.9919398598996E+01
(PID.TID 0000.0001) %MON dynstat_theta_min            =  -1.9636619118531E+00
(PID.TID 0000.0001) %MON dynstat_theta_mean           =   3.6204631649212E+00
(PID.TID 0000.0001) %MON dynstat_theta_sd             =   4.4171618396686E+00
(PID.TID 0000.0001) %MON dynstat_theta_del2           =   4.6360965294246E-03
(PID.TID 0000.0001) %MON dynstat_salt_max             =   3.7452262741401E+01
(PID.TID 0000.0001) %MON dynstat_salt_min             =   2.9812857066732E+01
(PID.TID 0000.0001) %MON dynstat_salt_mean            =   3.4717283917833E+01
(PID.TID 0000.0001) %MON dynstat_salt_sd              =   2.9619681302453E-01
(PID.TID 0000.0001) %MON dynstat_salt_del2            =   9.7178400969581E-04
(PID.TID 0000.0001) %MON dynstat_sst_max              =   2.9919398598996E+01
(PID.TID 0000.0001) %MON dynstat_sst_min              =  -1.9636619118531E+00
(PID.TID 0000.0001) %MON dynstat_sst_mean             =   1.8737506156476E+01
(PID.TID 0000.0001) %MON dynstat_sst_sd               =   9.0735180205082E+00
(PID.TID 0000.0001) %MON dynstat_sst_del2             =   2.4761989008462E-02
(PID.TID 0000.0001) %MON dynstat_sss_max              =   3.7401348504228E+01
(PID.TID 0000.0001) %MON dynstat_sss_min              =   2.9812857066732E+01
(PID.TID 0000.0001) %MON dynstat_sss_mean             =   3.4843500121454E+01
(PID.TID 0000.0001) %MON dynstat_sss_sd               =   9.7520245005469E-01
(PID.TID 0000.0001) %MON dynstat_sss_del2             =   7.6487893541549E-03
(PID.TID 0000.0001) %MON forcing_qnet_max             =   3.6251486816406E+02
(PID.TID 0000.0001) %MON forcing_qnet_min             =  -1.7355252685547E+02
(PID.TID 0000.0001) %MON forcing_qnet_mean            =  -1.4219978481153E+01
(PID.TID 0000.0001) %MON forcing_qnet_sd              =   8.2371696760825E+01
(PID.TID 0000.0001) %MON forcing_qnet_del2            =   9.5171455231292E-01
(PID.TID 0000.0001) %MON forcing_qsw_max              =   0.0000000000000E+00
(PID.TID 0000.0001) %MON forcing_qsw_min              =   0.0000000000000E+00
(PID.TID 0000.0001) %MON forcing_qsw_mean             =   0.0000000000000E+00
(PID.TID 0000.0001) %MON forcing_qsw_sd               =   0.0000000000000E+00
(PID.TID 0000.0001) %MON forcing_qsw_del2             =   0.0000000000000E+00
(PID.TID 0000.0001) %MON forcing_empmr_max            =   7.3693816204923E-05
(PID.TID 0000.0001) %MON forcing_empmr_min            =  -7.8306351269930E-05
(PID.TID 0000.0001) %MON forcing_empmr_mean           =   9.4136178812951E-07
(PID.TID 0000.0001) %MON forcing_empmr_sd             =   2.7989109089205E-05
(PID.TID 0000.0001) %MON forcing_empmr_del2           =   3.5476172595568E-07
(PID.TID 0000.0001) %MON forcing_fu_max               =   3.0047405064106E-01
(PID.TID 0000.0001) %MON forcing_fu_min               =  -2.1116244494915E-01
(PID.TID 0000.0001) %MON forcing_fu_mean              =   1.7467840970229E-02
(PID.TID 0000.0001) %MON forcing_fu_sd                =   9.2128273679121E-02
(PID.TID 0000.0001) %MON forcing_fu_del2              =   7.2179649985701E-04
(PID.TID 0000.0001) %MON forcing_fv_max               =   1.9524907022715E-01
(PID.TID 0000.0001) %MON forcing_fv_min               =  -1.9016355872154E-01
(PID.TID 0000.0001) %MON forcing_fv_mean              =  -7.0209422208148E-03
(PID.TID 0000.0001) %MON forcing_fv_sd                =   4.4736678888232E-02
(PID.TID 0000.0001) %MON forcing_fv_del2              =   5.1897923714387E-04
(PID.TID 0000.0001) %MON trAdv_CFL_u_max              =   5.0913844565626E-02
(PID.TID 0000.0001) %MON trAdv_CFL_v_max              =   2.5405142265392E-02
(PID.TID 0000.0001) %MON trAdv_CFL_w_max              =   2.9735701955256E-02
(PID.TID 0000.0001) %MON advcfl_uvel_max              =   5.1180737173639E-02
(PID.TID 0000.0001) %MON advcfl_vvel_max              =   2.1993288701942E-02
(PID.TID 0000.0001) %MON advcfl_wvel_max              =   3.6057577716208E-02
(PID.TID 0000.0001) %MON advcfl_W_hf_max              =   4.3269093259450E-02
(PID.TID 0000.0001) %MON pe_b_mean                    =   4.0971508632901E-04
(PID.TID 0000.0001) %MON ke_max                       =   1.2874004552670E-02
(PID.TID 0000.0001) %MON ke_mean                      =   1.2596532064799E-04
(PID.TID 0000.0001) %MON ke_vol                       =   1.3226782436723E+18
(PID.TID 0000.0001) %MON vort_r_min                   =  -4.7621728614699E-07
(PID.TID 0000.0001) %MON vort_r_max                   =   3.8769451772612E-07
(PID.TID 0000.0001) %MON vort_a_mean                  =  -2.5274807102275E-05
(PID.TID 0000.0001) %MON vort_a_sd                    =   7.3604597578703E-05
(PID.TID 0000.0001) %MON vort_p_mean                  =  -3.1845655427558E-05
(PID.TID 0000.0001) %MON vort_p_sd                    =   1.3162420599717E-04
(PID.TID 0000.0001) %MON surfExpan_theta_mean         =   8.6834749097473E-08
(PID.TID 0000.0001) %MON surfExpan_salt_mean          =   6.7455478023504E-08
(PID.TID 0000.0001) // =======================================================
(PID.TID 0000.0001) // End MONITOR dynamic field statistics
(PID.TID 0000.0001) // =======================================================
 EXTERNAL_FIELDS_LOAD,        43 : iP,iLd,i0,i1=    1    2    1    2 ; Wght=  0.0666666667  0.9333333333
 EXTERNAL_FIELDS_LOAD: (fu0,1),fu,fv= -3.5633E-02 -1.4435E-02 -1.5848E-02 -2.0277E-02
 EXTERNAL_FIELDS_LOAD: SST,SSS,Q,E-P= -4.3250E-01  3.4441E+01  2.4217E+02  8.5945E-06
DEBUG_STATS_RL:          Uvel (THERMODYNAMICS)  min= -1.40004267569490E-01
DEBUG_STATS_RL:          Uvel (THERMODYNAMICS)  max=  1.57737079323997E-01
DEBUG_STATS_RL:          Uvel (THERMODYNAMICS) mean=  4.59649661490678E-03
DEBUG_STATS_RL:          Uvel (THERMODYNAMICS) S.D.=  2.38485966981187E-02
DEBUG_STATS_RL:          Vvel (THERMODYNAMICS)  min= -1.13201771693699E-01
DEBUG_STATS_RL:          Vvel (THERMODYNAMICS)  max=  1.10540922584986E-01
DEBUG_STATS_RL:          Vvel (THERMODYNAMICS) mean=  5.15670612196306E-04
DEBUG_STATS_RL:          Vvel (THERMODYNAMICS) S.D.=  1.37568701914881E-02
DEBUG_STATS_RL:          Wvel (THERMODYNAMICS)  min= -1.13341964209763E-04
DEBUG_STATS_RL:          Wvel (THERMODYNAMICS)  max=  1.02622293407779E-04
DEBUG_STATS_RL:          Wvel (THERMODYNAMICS) mean= -2.36167372217634E-07
DEBUG_STATS_RL:          Wvel (THERMODYNAMICS) S.D.=  1.16763047086339E-05
DEBUG_STATS_RL:         Theta (THERMODYNAMICS)  min= -1.96215611833404E+00
DEBUG_STATS_RL:         Theta (THERMODYNAMICS)  max=  2.99247005897017E+01
DEBUG_STATS_RL:         Theta (THERMODYNAMICS) mean=  3.21011161704789E+00
DEBUG_STATS_RL:         Theta (THERMODYNAMICS) S.D.=  5.85911728228929E+00
DEBUG_STATS_RL:          Salt (THERMODYNAMICS)  min= -6.86242378085645E-04
DEBUG_STATS_RL:          Salt (THERMODYNAMICS)  max=  3.74521345883792E+01
DEBUG_STATS_RL:          Salt (THERMODYNAMICS) mean=  1.88441538801094E+01
DEBUG_STATS_RL:          Salt (THERMODYNAMICS) S.D.=  1.73003582749297E+01
DEBUG_STATS_RL:         GtNm1 (THERMODYNAMICS)  min= -2.40021483226350E-06
DEBUG_STATS_RL:         GtNm1 (THERMODYNAMICS)  max=  2.88792710086732E-06
DEBUG_STATS_RL:         GtNm1 (THERMODYNAMICS) mean=  9.53059654043507E-09
DEBUG_STATS_RL:         GtNm1 (THERMODYNAMICS) S.D.=  1.76504450246405E-07
DEBUG_STATS_RL:         GsNm1 (THERMODYNAMICS)  min= -3.27120932193362E-07
DEBUG_STATS_RL:         GsNm1 (THERMODYNAMICS)  max=  3.78421786079094E-07
DEBUG_STATS_RL:         GsNm1 (THERMODYNAMICS) mean=  2.43500585844960E-10
DEBUG_STATS_RL:         GsNm1 (THERMODYNAMICS) S.D.=  1.72733075397481E-08
DEBUG_STATS_RL:                EtaN (DYNAMICS)  min= -1.64061577913344E+00
DEBUG_STATS_RL:                EtaN (DYNAMICS)  max=  8.16715583574967E-01
DEBUG_STATS_RL:                EtaN (DYNAMICS) mean= -1.71755423702227E-01
DEBUG_STATS_RL:                EtaN (DYNAMICS) S.D.=  6.55444762968095E-01
DEBUG_STATS_RL:                Uvel (DYNAMICS)  min= -1.40004267569490E-01
DEBUG_STATS_RL:                Uvel (DYNAMICS)  max=  1.57737079323997E-01
DEBUG_STATS_RL:                Uvel (DYNAMICS) mean=  4.59649661490678E-03
DEBUG_STATS_RL:                Uvel (DYNAMICS) S.D.=  2.38485966981187E-02
DEBUG_STATS_RL:                Vvel (DYNAMICS)  min= -1.13201771693699E-01
DEBUG_STATS_RL:                Vvel (DYNAMICS)  max=  1.10540922584986E-01
DEBUG_STATS_RL:                Vvel (DYNAMICS) mean=  5.15670612196306E-04
DEBUG_STATS_RL:                Vvel (DYNAMICS) S.D.=  1.37568701914881E-02
DEBUG_STATS_RL:                Wvel (DYNAMICS)  min= -1.13341964209763E-04
DEBUG_STATS_RL:                Wvel (DYNAMICS)  max=  1.02622293407779E-04
DEBUG_STATS_RL:                Wvel (DYNAMICS) mean= -2.36167372217634E-07
DEBUG_STATS_RL:                Wvel (DYNAMICS) S.D.=  1.16763047086339E-05
DEBUG_STATS_RL:               Theta (DYNAMICS)  min= -1.96215611833404E+00
DEBUG_STATS_RL:               Theta (DYNAMICS)  max=  2.99247005897017E+01
DEBUG_STATS_RL:               Theta (DYNAMICS) mean=  3.21011161704789E+00
DEBUG_STATS_RL:               Theta (DYNAMICS) S.D.=  5.85911728228929E+00
DEBUG_STATS_RL:                Salt (DYNAMICS)  min= -6.86242378085645E-04
DEBUG_STATS_RL:                Salt (DYNAMICS)  max=  3.74521345883792E+01
DEBUG_STATS_RL:                Salt (DYNAMICS) mean=  1.88441538801094E+01
DEBUG_STATS_RL:                Salt (DYNAMICS) S.D.=  1.73003582749297E+01
DEBUG_STATS_RL:                  Gu (DYNAMICS)  min= -1.39094400933269E-01
DEBUG_STATS_RL:                  Gu (DYNAMICS)  max=  1.64160703750526E-01
DEBUG_STATS_RL:                  Gu (DYNAMICS) mean=  4.63964727448864E-03
DEBUG_STATS_RL:                  Gu (DYNAMICS) S.D.=  2.44366873431331E-02
DEBUG_STATS_RL:                  Gv (DYNAMICS)  min= -1.08432656282390E-01
DEBUG_STATS_RL:                  Gv (DYNAMICS)  max=  1.15358472225164E-01
DEBUG_STATS_RL:                  Gv (DYNAMICS) mean=  3.10692820063838E-03
DEBUG_STATS_RL:                  Gv (DYNAMICS) S.D.=  1.44136540396829E-02
DEBUG_STATS_RL:               GuNm1 (DYNAMICS)  min= -8.58151469784794E-06
DEBUG_STATS_RL:               GuNm1 (DYNAMICS)  max=  8.48570190865332E-06
DEBUG_STATS_RL:               GuNm1 (DYNAMICS) mean= -1.72265109763859E-08
DEBUG_STATS_RL:               GuNm1 (DYNAMICS) S.D.=  1.16544577869823E-06
DEBUG_STATS_RL:               GvNm1 (DYNAMICS)  min= -9.76646464897487E-06
DEBUG_STATS_RL:               GvNm1 (DYNAMICS)  max=  1.63317746800695E-05
DEBUG_STATS_RL:               GvNm1 (DYNAMICS) mean=  7.50414453046755E-07
DEBUG_STATS_RL:               GvNm1 (DYNAMICS) S.D.=  2.58190520094595E-06
DEBUG_STATS_RL:               GtNm1 (DYNAMICS)  min= -2.40021483226350E-06
DEBUG_STATS_RL:               GtNm1 (DYNAMICS)  max=  2.88792710086732E-06
DEBUG_STATS_RL:               GtNm1 (DYNAMICS) mean=  9.53059654043507E-09
DEBUG_STATS_RL:               GtNm1 (DYNAMICS) S.D.=  1.76504450246405E-07
DEBUG_STATS_RL:               GsNm1 (DYNAMICS)  min= -3.27120932193362E-07
DEBUG_STATS_RL:               GsNm1 (DYNAMICS)  max=  3.78421786079094E-07
DEBUG_STATS_RL:               GsNm1 (DYNAMICS) mean=  2.43500585844960E-10
DEBUG_STATS_RL:               GsNm1 (DYNAMICS) S.D.=  1.72733075397481E-08
DEBUG_STATS_RL:    cg2d_b (SOLVE_FOR_PRESSURE)  min= -1.88850493796743E+04
DEBUG_STATS_RL:    cg2d_b (SOLVE_FOR_PRESSURE)  max=  2.27439489301105E+04
DEBUG_STATS_RL:    cg2d_b (SOLVE_FOR_PRESSURE) mean=  3.19215878445348E+00
DEBUG_STATS_RL:    cg2d_b (SOLVE_FOR_PRESSURE) S.D.=  3.59674283107816E+03
 cg2d: Sum(rhs),rhsMax =   3.24914886536134E-01  1.49388346096331E+00
(PID.TID 0000.0001)  cg2d: iter=     1 ; resid.=  9.16123811091872E-02
(PID.TID 0000.0001)  cg2d: iter=     2 ; resid.=  4.94336430945502E-02
(PID.TID 0000.0001)  cg2d: iter=     3 ; resid.=  5.24868257065313E-02
(PID.TID 0000.0001)  cg2d: iter=     4 ; resid.=  5.52161465190407E-02
(PID.TID 0000.0001)  cg2d: iter=     5 ; resid.=  4.80045774790413E-02
(PID.TID 0000.0001)  cg2d: iter=     6 ; resid.=  4.02933915628456E-02
(PID.TID 0000.0001)  cg2d: iter=     7 ; resid.=  3.18039387969897E-02
(PID.TID 0000.0001)  cg2d: iter=     8 ; resid.=  2.76590642029813E-02
(PID.TID 0000.0001)  cg2d: iter=     9 ; resid.=  2.36105152056169E-02
(PID.TID 0000.0001)  cg2d: iter=    10 ; resid.=  1.97323899476783E-02
(PID.TID 0000.0001)  cg2d: iter=    11 ; resid.=  1.61304596572696E-02
(PID.TID 0000.0001)  cg2d: iter=    12 ; resid.=  1.26454072642706E-02
(PID.TID 0000.0001)  cg2d: iter=    13 ; resid.=  9.82825637180151E-03
(PID.TID 0000.0001)  cg2d: iter=    14 ; resid.=  7.76006985026258E-03
(PID.TID 0000.0001)  cg2d: iter=    15 ; resid.=  6.75654603705930E-03
(PID.TID 0000.0001)  cg2d: iter=    16 ; resid.=  6.18487914747567E-03
(PID.TID 0000.0001)  cg2d: iter=    17 ; resid.=  5.98394996376333E-03
(PID.TID 0000.0001)  cg2d: iter=    18 ; resid.=  5.00745111038273E-03
(PID.TID 0000.0001)  cg2d: iter=    19 ; resid.=  4.20415416157401E-03
(PID.TID 0000.0001)  cg2d: iter=    20 ; resid.=  3.47724207311112E-03
(PID.TID 0000.0001)  cg2d: iter=    21 ; resid.=  2.89241749106988E-03
(PID.TID 0000.0001)  cg2d: iter=    22 ; resid.=  2.67575506366839E-03
(PID.TID 0000.0001)  cg2d: iter=    23 ; resid.=  2.31008260786827E-03
(PID.TID 0000.0001)  cg2d: iter=    24 ; resid.=  1.83376018958317E-03
(PID.TID 0000.0001)  cg2d: iter=    25 ; resid.=  1.43379153902608E-03
(PID.TID 0000.0001)  cg2d: iter=    26 ; resid.=  1.11408149539105E-03
(PID.TID 0000.0001)  cg2d: iter=    27 ; resid.=  9.22136592991348E-04
(PID.TID 0000.0001)  cg2d: iter=    28 ; resid.=  7.96180213841010E-04
(PID.TID 0000.0001)  cg2d: iter=    29 ; resid.=  6.69565002640062E-04
(PID.TID 0000.0001)  cg2d: iter=    30 ; resid.=  5.25166041065085E-04
(PID.TID 0000.0001)  cg2d: iter=    31 ; resid.=  4.49230186444789E-04
(PID.TID 0000.0001)  cg2d: iter=    32 ; resid.=  3.92339440208854E-04
(PID.TID 0000.0001)  cg2d: iter=    33 ; resid.=  3.38345501879291E-04
(PID.TID 0000.0001)  cg2d: iter=    34 ; resid.=  2.72486259038978E-04
(PID.TID 0000.0001)  cg2d: iter=    35 ; resid.=  2.27167846284741E-04
(PID.TID 0000.0001)  cg2d: iter=    36 ; resid.=  2.02156812301629E-04
(PID.TID 0000.0001)  cg2d: iter=    37 ; resid.=  1.70111432846503E-04
(PID.TID 0000.0001)  cg2d: iter=    38 ; resid.=  1.42016101322701E-04
(PID.TID 0000.0001)  cg2d: iter=    39 ; resid.=  1.19019642427738E-04
(PID.TID 0000.0001)  cg2d: iter=    40 ; resid.=  1.05030393157739E-04
(PID.TID 0000.0001)  cg2d: iter=    41 ; resid.=  9.38243430920541E-05
(PID.TID 0000.0001)  cg2d: iter=    42 ; resid.=  7.32805592680671E-05
(PID.TID 0000.0001)  cg2d: iter=    43 ; resid.=  5.57247074357762E-05
(PID.TID 0000.0001)  cg2d: iter=    44 ; resid.=  4.41481676455042E-05
(PID.TID 0000.0001)  cg2d: iter=    45 ; resid.=  3.40151044932084E-05
(PID.TID 0000.0001)  cg2d: iter=    46 ; resid.=  2.49342359116378E-05
(PID.TID 0000.0001)  cg2d: iter=    47 ; resid.=  1.88525113856094E-05
(PID.TID 0000.0001)  cg2d: iter=    48 ; resid.=  1.62619702919542E-05
(PID.TID 0000.0001)  cg2d: iter=    49 ; resid.=  1.37611092889371E-05
(PID.TID 0000.0001)  cg2d: iter=    50 ; resid.=  1.11290116749401E-05
(PID.TID 0000.0001)  cg2d: iter=    51 ; resid.=  8.60260973728980E-06
(PID.TID 0000.0001)  cg2d: iter=    52 ; resid.=  7.35136014557118E-06
(PID.TID 0000.0001)  cg2d: iter=    53 ; resid.=  6.81476886916088E-06
(PID.TID 0000.0001)  cg2d: iter=    54 ; resid.=  5.95858182566709E-06
(PID.TID 0000.0001)  cg2d: iter=    55 ; resid.=  4.58242056536517E-06
(PID.TID 0000.0001)  cg2d: iter=    56 ; resid.=  3.55999052372244E-06
(PID.TID 0000.0001)  cg2d: iter=    57 ; resid.=  3.14749295225498E-06
(PID.TID 0000.0001)  cg2d: iter=    58 ; resid.=  2.61894803392643E-06
(PID.TID 0000.0001)  cg2d: iter=    59 ; resid.=  1.92707946766295E-06
(PID.TID 0000.0001)  cg2d: iter=    60 ; resid.=  1.32494664960994E-06
(PID.TID 0000.0001)  cg2d: iter=    61 ; resid.=  1.03166700440493E-06
(PID.TID 0000.0001)  cg2d: iter=    62 ; resid.=  8.57655975466032E-07
(PID.TID 0000.0001)  cg2d: iter=    63 ; resid.=  6.44631621772775E-07
(PID.TID 0000.0001)  cg2d: iter=    64 ; resid.=  5.12851138243320E-07
(PID.TID 0000.0001)  cg2d: iter=    65 ; resid.=  4.14101543980291E-07
(PID.TID 0000.0001)  cg2d: iter=    66 ; resid.=  3.52567119496148E-07
(PID.TID 0000.0001)  cg2d: iter=    67 ; resid.=  2.77763248068415E-07
(PID.TID 0000.0001)  cg2d: iter=    68 ; resid.=  2.03969256831322E-07
(PID.TID 0000.0001)  cg2d: iter=    69 ; resid.=  1.55377970072937E-07
(PID.TID 0000.0001)  cg2d: iter=    70 ; resid.=  1.34387771438855E-07
(PID.TID 0000.0001)  cg2d: iter=    71 ; resid.=  1.13127567016733E-07
(PID.TID 0000.0001)  cg2d: iter=    72 ; resid.=  8.51338045008690E-08
(PID.TID 0000.0001)  cg2d: iter=    73 ; resid.=  6.44657385806327E-08
(PID.TID 0000.0001)  cg2d: iter=    74 ; resid.=  5.08519440351169E-08
(PID.TID 0000.0001)  cg2d: iter=    75 ; resid.=  3.89627883790530E-08
(PID.TID 0000.0001)  cg2d: iter=    76 ; resid.=  2.75392304986810E-08
(PID.TID 0000.0001)  cg2d: iter=    77 ; resid.=  1.90960715703979E-08
(PID.TID 0000.0001)  cg2d: iter=    78 ; resid.=  1.41087331965482E-08
(PID.TID 0000.0001)  cg2d: iter=    79 ; resid.=  1.15273878958543E-08
(PID.TID 0000.0001)  cg2d: iter=    80 ; resid.=  9.51289481982807E-09
(PID.TID 0000.0001)  cg2d: iter=    81 ; resid.=  7.78534034951317E-09
(PID.TID 0000.0001)  cg2d: iter=    82 ; resid.=  6.75901584878603E-09
(PID.TID 0000.0001)  cg2d: iter=    83 ; resid.=  6.37129851993666E-09
(PID.TID 0000.0001)  cg2d: iter=    84 ; resid.=  5.78773423972472E-09
(PID.TID 0000.0001)  cg2d: iter=    85 ; resid.=  4.91350782492320E-09
(PID.TID 0000.0001)  cg2d: iter=    86 ; resid.=  3.94007936194777E-09
(PID.TID 0000.0001)  cg2d: iter=    87 ; resid.=  3.46741886923851E-09
(PID.TID 0000.0001)  cg2d: iter=    88 ; resid.=  2.81530622937781E-09
(PID.TID 0000.0001)  cg2d: iter=    89 ; resid.=  2.22784146270963E-09
(PID.TID 0000.0001)  cg2d: iter=    90 ; resid.=  1.76920556907823E-09
(PID.TID 0000.0001)  cg2d: iter=    91 ; resid.=  1.44873396145018E-09
(PID.TID 0000.0001)  cg2d: iter=    92 ; resid.=  1.17480673619554E-09
(PID.TID 0000.0001)  cg2d: iter=    93 ; resid.=  9.13854107161932E-10
(PID.TID 0000.0001)  cg2d: iter=    94 ; resid.=  6.92826047267262E-10
(PID.TID 0000.0001)  cg2d: iter=    95 ; resid.=  5.55133903054986E-10
(PID.TID 0000.0001)  cg2d: iter=    96 ; resid.=  4.75393388545232E-10
(PID.TID 0000.0001)  cg2d: iter=    97 ; resid.=  4.29268866384473E-10
(PID.TID 0000.0001)  cg2d: iter=    98 ; resid.=  3.84054904136770E-10
(PID.TID 0000.0001)  cg2d: iter=    99 ; resid.=  3.17754157602909E-10
(PID.TID 0000.0001)  cg2d: iter=   100 ; resid.=  2.79010941648676E-10
(PID.TID 0000.0001)  cg2d: iter=   101 ; resid.=  2.33049820731746E-10
(PID.TID 0000.0001)  cg2d: iter=   102 ; resid.=  1.89860145633263E-10
(PID.TID 0000.0001)  cg2d: iter=   103 ; resid.=  1.45533947160499E-10
(PID.TID 0000.0001)  cg2d: iter=   104 ; resid.=  1.23318128231199E-10
(PID.TID 0000.0001)  cg2d: iter=   105 ; resid.=  1.02859532170617E-10
(PID.TID 0000.0001)  cg2d: iter=   106 ; resid.=  8.11253966322248E-11
(PID.TID 0000.0001)  cg2d: iter=   107 ; resid.=  6.22198534660681E-11
(PID.TID 0000.0001)  cg2d: iter=   108 ; resid.=  4.97407333247958E-11
(PID.TID 0000.0001)  cg2d: iter=   109 ; resid.=  4.00156882298081E-11
(PID.TID 0000.0001)  cg2d: iter=   110 ; resid.=  3.08232651376791E-11
(PID.TID 0000.0001)  cg2d: iter=   111 ; resid.=  2.54340418615253E-11
(PID.TID 0000.0001)  cg2d: iter=   112 ; resid.=  2.05306016584462E-11
(PID.TID 0000.0001)  cg2d: iter=   113 ; resid.=  1.49424016254160E-11
(PID.TID 0000.0001)  cg2d: iter=   114 ; resid.=  1.01453647721511E-11
(PID.TID 0000.0001)  cg2d: iter=   115 ; resid.=  7.08188668109680E-12
(PID.TID 0000.0001)  cg2d: iter=   116 ; resid.=  4.94312562347767E-12
(PID.TID 0000.0001)  cg2d: iter=   117 ; resid.=  3.79613380183953E-12
(PID.TID 0000.0001)  cg2d: iter=   118 ; resid.=  2.80679695804532E-12
(PID.TID 0000.0001)  cg2d: iter=   119 ; resid.=  1.99767166613871E-12
(PID.TID 0000.0001)  cg2d: iter=   120 ; resid.=  1.45533882919079E-12
(PID.TID 0000.0001)  cg2d: iter=   121 ; resid.=  1.10972218604212E-12
(PID.TID 0000.0001)  cg2d: iter=   122 ; resid.=  8.38893401070066E-13
(PID.TID 0000.0001)  cg2d: iter=   123 ; resid.=  6.37377560514817E-13
(PID.TID 0000.0001)  cg2d: iter=   124 ; resid.=  5.09048817552187E-13
(PID.TID 0000.0001)  cg2d: iter=   125 ; resid.=  4.22664956431815E-13
(PID.TID 0000.0001)  cg2d: iter=   126 ; resid.=  3.37057961239700E-13
(PID.TID 0000.0001)  cg2d: iter=   127 ; resid.=  2.29409103273043E-13
(PID.TID 0000.0001)  cg2d: iter=   128 ; resid.=  1.57088071103739E-13
(PID.TID 0000.0001)  cg2d: iter=   129 ; resid.=  1.16287189868886E-13
(PID.TID 0000.0001)  cg2d: iter=   130 ; resid.=  9.13211023432683E-14
DEBUG_STATS_RL:    cg2d_x (SOLVE_FOR_PRESSURE)  min= -1.63263168004935E+01
DEBUG_STATS_RL:    cg2d_x (SOLVE_FOR_PRESSURE)  max=  7.86791385658586E+00
DEBUG_STATS_RL:    cg2d_x (SOLVE_FOR_PRESSURE) mean= -1.68318606957207E+00
DEBUG_STATS_RL:    cg2d_x (SOLVE_FOR_PRESSURE) S.D.=  6.43985520162020E+00
(PID.TID 0000.0001)      cg2d_init_res =   3.43613547919705E-01
(PID.TID 0000.0001)      cg2d_iters(min,last) =      -1     130
(PID.TID 0000.0001)      cg2d_last_res =   9.13211023432683E-14
(PID.TID 0000.0001) // =======================================================
(PID.TID 0000.0001) // Begin MONITOR dynamic field statistics
(PID.TID 0000.0001) // =======================================================
(PID.TID 0000.0001) %MON time_tsnumber                =                    44
(PID.TID 0000.0001) %MON time_secondsf                =   3.8016000000000E+06
(PID.TID 0000.0001) %MON dynstat_eta_max              =   8.0202995479982E-01
(PID.TID 0000.0001) %MON dynstat_eta_min              =  -1.6642524771146E+00
(PID.TID 0000.0001) %MON dynstat_eta_mean             =  -3.3306218769554E-03
(PID.TID 0000.0001) %MON dynstat_eta_sd               =   5.6598266218209E-01
(PID.TID 0000.0001) %MON dynstat_eta_del2             =   2.1726303068624E-03
(PID.TID 0000.0001) %MON dynstat_uvel_max             =   1.6281321005197E-01
(PID.TID 0000.0001) %MON dynstat_uvel_min             =  -1.3885479168817E-01
(PID.TID 0000.0001) %MON dynstat_uvel_mean            =   1.7462187405501E-03
(PID.TID 0000.0001) %MON dynstat_uvel_sd              =   1.4273666342331E-02
(PID.TID 0000.0001) %MON dynstat_uvel_del2            =   8.6252811097202E-05
(PID.TID 0000.0001) %MON dynstat_vvel_max             =   1.1404087488570E-01
(PID.TID 0000.0001) %MON dynstat_vvel_min             =  -1.1189908081817E-01
(PID.TID 0000.0001) %MON dynstat_vvel_mean            =   6.3710021992782E-05
(PID.TID 0000.0001) %MON dynstat_vvel_sd              =   8.7210336715421E-03
(PID.TID 0000.0001) %MON dynstat_vvel_del2            =   7.5523892509725E-05
(PID.TID 0000.0001) %MON dynstat_wvel_max             =   1.0232506566363E-04
(PID.TID 0000.0001) %MON dynstat_wvel_min             =  -1.0878875319574E-04
(PID.TID 0000.0001) %MON dynstat_wvel_mean            =   4.0575416580512E-23
(PID.TID 0000.0001) %MON dynstat_wvel_sd              =   1.3248451385155E-05
(PID.TID 0000.0001) %MON dynstat_wvel_del2            =   1.3409896739288E-07
(PID.TID 0000.0001) %MON dynstat_theta_max            =   2.9924700589702E+01
(PID.TID 0000.0001) %MON dynstat_theta_min            =  -1.9621561183340E+00
(PID.TID 0000.0001) %MON dynstat_theta_mean           =   3.6205179508469E+00
(PID.TID 0000.0001) %MON dynstat_theta_sd             =   4.4173335925512E+00
(PID.TID 0000.0001) %MON dynstat_theta_del2           =   4.6350600156763E-03
(PID.TID 0000.0001) %MON dynstat_salt_max             =   3.7452134588379E+01
(PID.TID 0000.0001) %MON dynstat_salt_min             =   2.9814919330221E+01
(PID.TID 0000.0001) %MON dynstat_salt_mean            =   3.4717283984794E+01
(PID.TID 0000.0001) %MON dynstat_salt_sd              =   2.9619696780789E-01
(PID.TID 0000.0001) %MON dynstat_salt_del2            =   9.7132232574617E-04
(PID.TID 0000.0001) %MON dynstat_sst_max              =   2.9924700589702E+01
(PID.TID 0000.0001) %MON dynstat_sst_min              =  -1.9621561183340E+00
(PID.TID 0000.0001) %MON dynstat_sst_mean             =   1.8744448369740E+01
(PID.TID 0000.0001) %MON dynstat_sst_sd               =   9.0748475262038E+00
(PID.TID 0000.0001) %MON dynstat_sst_del2             =   2.4753755508445E-02
(PID.TID 0000.0001) %MON dynstat_sss_max              =   3.7399739917400E+01
(PID.TID 0000.0001) %MON dynstat_sss_min              =   2.9814919330221E+01
(PID.TID 0000.0001) %MON dynstat_sss_mean             =   3.4843529602624E+01
(PID.TID 0000.0001) %MON dynstat_sss_sd               =   9.7520918281486E-01
(PID.TID 0000.0001) %MON dynstat_sss_del2             =   7.6444717208189E-03
(PID.TID 0000.0001) %MON forcing_qnet_max             =   3.6116065877279E+02
(PID.TID 0000.0001) %MON forcing_qnet_min             =  -1.7331300760905E+02
(PID.TID 0000.0001) %MON forcing_qnet_mean            =  -1.4135069313750E+01
(PID.TID 0000.0001) %MON forcing_qnet_sd              =   8.1439639696185E+01
(PID.TID 0000.0001) %MON forcing_qnet_del2            =   9.5075858077314E-01
(PID.TID 0000.0001) %MON forcing_qsw_max              =   0.0000000000000E+00
(PID.TID 0000.0001) %MON forcing_qsw_min              =   0.0000000000000E+00
(PID.TID 0000.0001) %MON forcing_qsw_mean             =   0.0000000000000E+00
(PID.TID 0000.0001) %MON forcing_qsw_sd               =   0.0000000000000E+00
(PID.TID 0000.0001) %MON forcing_qsw_del2             =   0.0000000000000E+00
(PID.TID 0000.0001) %MON forcing_empmr_max            =   7.3379726472922E-05
(PID.TID 0000.0001) %MON forcing_empmr_min            =  -7.8385995531486E-05
(PID.TID 0000.0001) %MON forcing_empmr_mean           =   9.4204418538947E-07
(PID.TID 0000.0001) %MON forcing_empmr_sd             =   2.7984746342061E-05
(PID.TID 0000.0001) %MON forcing_empmr_del2           =   3.5513748337795E-07
(PID.TID 0000.0001) %MON forcing_fu_max               =   3.0186120867729E-01
(PID.TID 0000.0001) %MON forcing_fu_min               =  -2.1399418314298E-01
(PID.TID 0000.0001) %MON forcing_fu_mean              =   1.7522141185698E-02
(PID.TID 0000.0001) %MON forcing_fu_sd                =   9.2407469002415E-02
(PID.TID 0000.0001) %MON forcing_fu_del2              =   7.2980579013269E-04
(PID.TID 0000.0001) %MON forcing_fv_max               =   1.9736103514830E-01
(PID.TID 0000.0001) %MON forcing_fv_min               =  -1.9333545764287E-01
(PID.TID 0000.0001) %MON forcing_fv_mean              =  -7.0862031275300E-03
(PID.TID 0000.0001) %MON forcing_fv_sd                =   4.4825947766004E-02
(PID.TID 0000.0001) %MON forcing_fv_del2              =   5.2614803750806E-04
(PID.TID 0000.0001) %MON trAdv_CFL_u_max              =   5.1191132347409E-02
(PID.TID 0000.0001) %MON trAdv_CFL_v_max              =   2.6256623995017E-02
(PID.TID 0000.0001) %MON trAdv_CFL_w_max              =   3.0906495185321E-02
(PID.TID 0000.0001) %MON advcfl_uvel_max              =   5.0849168376587E-02
(PID.TID 0000.0001) %MON advcfl_vvel_max              =   2.2156312994551E-02
(PID.TID 0000.0001) %MON advcfl_wvel_max              =   3.7062626533045E-02
(PID.TID 0000.0001) %MON advcfl_W_hf_max              =   4.4475151839654E-02
(PID.TID 0000.0001) %MON pe_b_mean                    =   4.0992319632756E-04
(PID.TID 0000.0001) %MON ke_max                       =   1.3360671946997E-02
(PID.TID 0000.0001) %MON ke_mean                      =   1.2809327352630E-04
(PID.TID 0000.0001) %MON ke_vol                       =   1.3226782436723E+18
(PID.TID 0000.0001) %MON vort_r_min                   =  -4.8161881367261E-07
(PID.TID 0000.0001) %MON vort_r_max                   =   3.8143411346888E-07
(PID.TID 0000.0001) %MON vort_a_mean                  =  -2.5274807146095E-05
(PID.TID 0000.0001) %MON vort_a_sd                    =   7.3604598028844E-05
(PID.TID 0000.0001) %MON vort_p_mean                  =  -3.1845655482769E-05
(PID.TID 0000.0001) %MON vort_p_sd                    =   1.3162421318113E-04
(PID.TID 0000.0001) %MON surfExpan_theta_mean         =   7.7413631896883E-08
(PID.TID 0000.0001) %MON surfExpan_salt_mean          =   5.7031322972776E-08
(PID.TID 0000.0001) // =======================================================
(PID.TID 0000.0001) // End MONITOR dynamic field statistics
(PID.TID 0000.0001) // =======================================================
 EXTERNAL_FIELDS_LOAD,        44 : iP,iLd,i0,i1=    1    2    1    2 ; Wght=  0.0333333333  0.9666666667
 EXTERNAL_FIELDS_LOAD: (fu0,1),fu,fv= -3.5633E-02 -1.4435E-02 -1.5141E-02 -1.8956E-02
 EXTERNAL_FIELDS_LOAD: SST,SSS,Q,E-P= -4.8218E-01  3.4431E+01  2.4132E+02  8.4859E-06
DEBUG_STATS_RL:          Uvel (THERMODYNAMICS)  min= -1.38854791688167E-01
DEBUG_STATS_RL:          Uvel (THERMODYNAMICS)  max=  1.62813210051968E-01
DEBUG_STATS_RL:          Uvel (THERMODYNAMICS) mean=  4.79315628904756E-03
DEBUG_STATS_RL:          Uvel (THERMODYNAMICS) S.D.=  2.41211970410391E-02
DEBUG_STATS_RL:          Vvel (THERMODYNAMICS)  min= -1.11899080818170E-01
DEBUG_STATS_RL:          Vvel (THERMODYNAMICS)  max=  1.14040874885699E-01
DEBUG_STATS_RL:          Vvel (THERMODYNAMICS) mean=  7.17537887611602E-04
DEBUG_STATS_RL:          Vvel (THERMODYNAMICS) S.D.=  1.37983144761711E-02
DEBUG_STATS_RL:          Wvel (THERMODYNAMICS)  min= -1.08788753195735E-04
DEBUG_STATS_RL:          Wvel (THERMODYNAMICS)  max=  1.02325065663632E-04
DEBUG_STATS_RL:          Wvel (THERMODYNAMICS) mean= -1.87162618044818E-07
DEBUG_STATS_RL:          Wvel (THERMODYNAMICS) S.D.=  1.15839062634522E-05
DEBUG_STATS_RL:         Theta (THERMODYNAMICS)  min= -1.96072245224198E+00
DEBUG_STATS_RL:         Theta (THERMODYNAMICS)  max=  2.99288054387105E+01
DEBUG_STATS_RL:         Theta (THERMODYNAMICS) mean=  3.21044570970736E+00
DEBUG_STATS_RL:         Theta (THERMODYNAMICS) S.D.=  5.85974688582531E+00
DEBUG_STATS_RL:          Salt (THERMODYNAMICS)  min= -6.86242378085645E-04
DEBUG_STATS_RL:          Salt (THERMODYNAMICS)  max=  3.74521040590054E+01
DEBUG_STATS_RL:          Salt (THERMODYNAMICS) mean=  1.88441680556498E+01
DEBUG_STATS_RL:          Salt (THERMODYNAMICS) S.D.=  1.73003715628090E+01
DEBUG_STATS_RL:         GtNm1 (THERMODYNAMICS)  min= -2.52541358017338E-06
DEBUG_STATS_RL:         GtNm1 (THERMODYNAMICS)  max=  2.12484029321555E-06
DEBUG_STATS_RL:         GtNm1 (THERMODYNAMICS) mean=  8.64871987588422E-09
DEBUG_STATS_RL:         GtNm1 (THERMODYNAMICS) S.D.=  1.74896325820615E-07
DEBUG_STATS_RL:         GsNm1 (THERMODYNAMICS)  min= -4.20136254610380E-07
DEBUG_STATS_RL:         GsNm1 (THERMODYNAMICS)  max=  3.53920313311094E-07
DEBUG_STATS_RL:         GsNm1 (THERMODYNAMICS) mean=  2.63311032780713E-10
DEBUG_STATS_RL:         GsNm1 (THERMODYNAMICS) S.D.=  1.72941531860874E-08
DEBUG_STATS_RL:                EtaN (DYNAMICS)  min= -1.66425247711456E+00
DEBUG_STATS_RL:                EtaN (DYNAMICS)  max=  8.02029954799825E-01
DEBUG_STATS_RL:                EtaN (DYNAMICS) mean= -1.71578600364127E-01
DEBUG_STATS_RL:                EtaN (DYNAMICS) S.D.=  6.56458226464853E-01
DEBUG_STATS_RL:                Uvel (DYNAMICS)  min= -1.38854791688167E-01
DEBUG_STATS_RL:                Uvel (DYNAMICS)  max=  1.62813210051968E-01
DEBUG_STATS_RL:                Uvel (DYNAMICS) mean=  4.79315628904756E-03
DEBUG_STATS_RL:                Uvel (DYNAMICS) S.D.=  2.41211970410391E-02
DEBUG_STATS_RL:                Vvel (DYNAMICS)  min= -1.11899080818170E-01
DEBUG_STATS_RL:                Vvel (DYNAMICS)  max=  1.14040874885699E-01
DEBUG_STATS_RL:                Vvel (DYNAMICS) mean=  7.17537887611602E-04
DEBUG_STATS_RL:                Vvel (DYNAMICS) S.D.=  1.37983144761711E-02
DEBUG_STATS_RL:                Wvel (DYNAMICS)  min= -1.08788753195735E-04
DEBUG_STATS_RL:                Wvel (DYNAMICS)  max=  1.02325065663632E-04
DEBUG_STATS_RL:                Wvel (DYNAMICS) mean= -1.87162618044818E-07
DEBUG_STATS_RL:                Wvel (DYNAMICS) S.D.=  1.15839062634522E-05
DEBUG_STATS_RL:               Theta (DYNAMICS)  min= -1.96072245224198E+00
DEBUG_STATS_RL:               Theta (DYNAMICS)  max=  2.99288054387105E+01
DEBUG_STATS_RL:               Theta (DYNAMICS) mean=  3.21044570970736E+00
DEBUG_STATS_RL:               Theta (DYNAMICS) S.D.=  5.85974688582531E+00
DEBUG_STATS_RL:                Salt (DYNAMICS)  min= -6.86242378085645E-04
DEBUG_STATS_RL:                Salt (DYNAMICS)  max=  3.74521040590054E+01
DEBUG_STATS_RL:                Salt (DYNAMICS) mean=  1.88441680556498E+01
DEBUG_STATS_RL:                Salt (DYNAMICS) S.D.=  1.73003715628090E+01
DEBUG_STATS_RL:                  Gu (DYNAMICS)  min= -1.37684662523510E-01
DEBUG_STATS_RL:                  Gu (DYNAMICS)  max=  1.67354419078710E-01
DEBUG_STATS_RL:                  Gu (DYNAMICS) mean=  4.80825366625153E-03
DEBUG_STATS_RL:                  Gu (DYNAMICS) S.D.=  2.46049423132921E-02
DEBUG_STATS_RL:                  Gv (DYNAMICS)  min= -1.06998054150113E-01
DEBUG_STATS_RL:                  Gv (DYNAMICS)  max=  1.18639671302223E-01
DEBUG_STATS_RL:                  Gv (DYNAMICS) mean=  3.32332662236905E-03
DEBUG_STATS_RL:                  Gv (DYNAMICS) S.D.=  1.46038143770342E-02
DEBUG_STATS_RL:               GuNm1 (DYNAMICS)  min= -8.69611259620380E-06
DEBUG_STATS_RL:               GuNm1 (DYNAMICS)  max=  8.54997042666914E-06
DEBUG_STATS_RL:               GuNm1 (DYNAMICS) mean= -1.61614772429307E-08
DEBUG_STATS_RL:               GuNm1 (DYNAMICS) S.D.=  1.16624296111310E-06
DEBUG_STATS_RL:               GvNm1 (DYNAMICS)  min= -9.70178018425556E-06
DEBUG_STATS_RL:               GvNm1 (DYNAMICS)  max=  1.63383641944423E-05
DEBUG_STATS_RL:               GvNm1 (DYNAMICS) mean=  7.50085762114974E-07
DEBUG_STATS_RL:               GvNm1 (DYNAMICS) S.D.=  2.58143365155003E-06
DEBUG_STATS_RL:               GtNm1 (DYNAMICS)  min= -2.52541358017338E-06
DEBUG_STATS_RL:               GtNm1 (DYNAMICS)  max=  2.12484029321555E-06
DEBUG_STATS_RL:               GtNm1 (DYNAMICS) mean=  8.64871987588422E-09
DEBUG_STATS_RL:               GtNm1 (DYNAMICS) S.D.=  1.74896325820615E-07
DEBUG_STATS_RL:               GsNm1 (DYNAMICS)  min= -4.20136254610380E-07
DEBUG_STATS_RL:               GsNm1 (DYNAMICS)  max=  3.53920313311094E-07
DEBUG_STATS_RL:               GsNm1 (DYNAMICS) mean=  2.63311032780713E-10
DEBUG_STATS_RL:               GsNm1 (DYNAMICS) S.D.=  1.72941531860874E-08
DEBUG_STATS_RL:    cg2d_b (SOLVE_FOR_PRESSURE)  min= -1.89353275328503E+04
DEBUG_STATS_RL:    cg2d_b (SOLVE_FOR_PRESSURE)  max=  2.32794959996077E+04
DEBUG_STATS_RL:    cg2d_b (SOLVE_FOR_PRESSURE) mean=  3.26758430247071E+00
DEBUG_STATS_RL:    cg2d_b (SOLVE_FOR_PRESSURE) S.D.=  3.60197672277469E+03
 cg2d: Sum(rhs),rhsMax =   3.24940783097055E-01  1.52905962637538E+00
(PID.TID 0000.0001)  cg2d: iter=     1 ; resid.=  8.85490759489569E-02
(PID.TID 0000.0001)  cg2d: iter=     2 ; resid.=  4.59876193578287E-02
(PID.TID 0000.0001)  cg2d: iter=     3 ; resid.=  4.56806482862441E-02
(PID.TID 0000.0001)  cg2d: iter=     4 ; resid.=  4.62869478815211E-02
(PID.TID 0000.0001)  cg2d: iter=     5 ; resid.=  4.05120013648287E-02
(PID.TID 0000.0001)  cg2d: iter=     6 ; resid.=  3.43159967829811E-02
(PID.TID 0000.0001)  cg2d: iter=     7 ; resid.=  2.73387942456384E-02
(PID.TID 0000.0001)  cg2d: iter=     8 ; resid.=  2.45894078581125E-02
(PID.TID 0000.0001)  cg2d: iter=     9 ; resid.=  2.16974647021809E-02
(PID.TID 0000.0001)  cg2d: iter=    10 ; resid.=  1.84525600002154E-02
(PID.TID 0000.0001)  cg2d: iter=    11 ; resid.=  1.54904806587191E-02
(PID.TID 0000.0001)  cg2d: iter=    12 ; resid.=  1.24720076001667E-02
(PID.TID 0000.0001)  cg2d: iter=    13 ; resid.=  9.62506972134662E-03
(PID.TID 0000.0001)  cg2d: iter=    14 ; resid.=  7.47461618708946E-03
(PID.TID 0000.0001)  cg2d: iter=    15 ; resid.=  6.55654322695256E-03
(PID.TID 0000.0001)  cg2d: iter=    16 ; resid.=  5.87930704184465E-03
(PID.TID 0000.0001)  cg2d: iter=    17 ; resid.=  5.55374101921426E-03
(PID.TID 0000.0001)  cg2d: iter=    18 ; resid.=  4.64480698792866E-03
(PID.TID 0000.0001)  cg2d: iter=    19 ; resid.=  3.95500765123709E-03
(PID.TID 0000.0001)  cg2d: iter=    20 ; resid.=  3.23953111429668E-03
(PID.TID 0000.0001)  cg2d: iter=    21 ; resid.=  2.67493548471963E-03
(PID.TID 0000.0001)  cg2d: iter=    22 ; resid.=  2.46217664167837E-03
(PID.TID 0000.0001)  cg2d: iter=    23 ; resid.=  2.11766770662243E-03
(PID.TID 0000.0001)  cg2d: iter=    24 ; resid.=  1.67625008479468E-03
(PID.TID 0000.0001)  cg2d: iter=    25 ; resid.=  1.31716754463087E-03
(PID.TID 0000.0001)  cg2d: iter=    26 ; resid.=  1.03160414591074E-03
(PID.TID 0000.0001)  cg2d: iter=    27 ; resid.=  8.70534385082071E-04
(PID.TID 0000.0001)  cg2d: iter=    28 ; resid.=  7.56792521653148E-04
(PID.TID 0000.0001)  cg2d: iter=    29 ; resid.=  6.30299726399624E-04
(PID.TID 0000.0001)  cg2d: iter=    30 ; resid.=  4.83332780709315E-04
(PID.TID 0000.0001)  cg2d: iter=    31 ; resid.=  4.18650044020554E-04
(PID.TID 0000.0001)  cg2d: iter=    32 ; resid.=  3.71347201264287E-04
(PID.TID 0000.0001)  cg2d: iter=    33 ; resid.=  3.17808263215160E-04
(PID.TID 0000.0001)  cg2d: iter=    34 ; resid.=  2.56087460224223E-04
(PID.TID 0000.0001)  cg2d: iter=    35 ; resid.=  2.09684970589410E-04
(PID.TID 0000.0001)  cg2d: iter=    36 ; resid.=  1.83245964216830E-04
(PID.TID 0000.0001)  cg2d: iter=    37 ; resid.=  1.54048007823468E-04
(PID.TID 0000.0001)  cg2d: iter=    38 ; resid.=  1.28334861758290E-04
(PID.TID 0000.0001)  cg2d: iter=    39 ; resid.=  1.07567328668259E-04
(PID.TID 0000.0001)  cg2d: iter=    40 ; resid.=  9.79315471092208E-05
(PID.TID 0000.0001)  cg2d: iter=    41 ; resid.=  8.82508769617870E-05
(PID.TID 0000.0001)  cg2d: iter=    42 ; resid.=  6.86405584653090E-05
(PID.TID 0000.0001)  cg2d: iter=    43 ; resid.=  5.25239600445888E-05
(PID.TID 0000.0001)  cg2d: iter=    44 ; resid.=  4.27551255062809E-05
(PID.TID 0000.0001)  cg2d: iter=    45 ; resid.=  3.36284592737141E-05
(PID.TID 0000.0001)  cg2d: iter=    46 ; resid.=  2.45075599561949E-05
(PID.TID 0000.0001)  cg2d: iter=    47 ; resid.=  1.80900104410299E-05
(PID.TID 0000.0001)  cg2d: iter=    48 ; resid.=  1.52486758985418E-05
(PID.TID 0000.0001)  cg2d: iter=    49 ; resid.=  1.26225334319167E-05
(PID.TID 0000.0001)  cg2d: iter=    50 ; resid.=  1.01261352531213E-05
(PID.TID 0000.0001)  cg2d: iter=    51 ; resid.=  7.78759010544667E-06
(PID.TID 0000.0001)  cg2d: iter=    52 ; resid.=  6.52139356930752E-06
(PID.TID 0000.0001)  cg2d: iter=    53 ; resid.=  6.01693914301840E-06
(PID.TID 0000.0001)  cg2d: iter=    54 ; resid.=  5.29154849931561E-06
(PID.TID 0000.0001)  cg2d: iter=    55 ; resid.=  4.08211476118682E-06
(PID.TID 0000.0001)  cg2d: iter=    56 ; resid.=  3.29676303421646E-06
(PID.TID 0000.0001)  cg2d: iter=    57 ; resid.=  3.06579170555870E-06
(PID.TID 0000.0001)  cg2d: iter=    58 ; resid.=  2.62870450670353E-06
(PID.TID 0000.0001)  cg2d: iter=    59 ; resid.=  1.97998204082577E-06
(PID.TID 0000.0001)  cg2d: iter=    60 ; resid.=  1.41134513727920E-06
(PID.TID 0000.0001)  cg2d: iter=    61 ; resid.=  1.16301861029281E-06
(PID.TID 0000.0001)  cg2d: iter=    62 ; resid.=  1.00462954925155E-06
(PID.TID 0000.0001)  cg2d: iter=    63 ; resid.=  7.71834183909598E-07
(PID.TID 0000.0001)  cg2d: iter=    64 ; resid.=  6.37651098953170E-07
(PID.TID 0000.0001)  cg2d: iter=    65 ; resid.=  5.41179547816288E-07
(PID.TID 0000.0001)  cg2d: iter=    66 ; resid.=  4.71426978518817E-07
(PID.TID 0000.0001)  cg2d: iter=    67 ; resid.=  3.75382815312156E-07
(PID.TID 0000.0001)  cg2d: iter=    68 ; resid.=  2.88562909367902E-07
(PID.TID 0000.0001)  cg2d: iter=    69 ; resid.=  2.42267659218305E-07
(PID.TID 0000.0001)  cg2d: iter=    70 ; resid.=  2.31674489370090E-07
(PID.TID 0000.0001)  cg2d: iter=    71 ; resid.=  2.00482178090856E-07
(PID.TID 0000.0001)  cg2d: iter=    72 ; resid.=  1.55319437807339E-07
(PID.TID 0000.0001)  cg2d: iter=    73 ; resid.=  1.26703661365746E-07
(PID.TID 0000.0001)  cg2d: iter=    74 ; resid.=  1.09770270570426E-07
(PID.TID 0000.0001)  cg2d: iter=    75 ; resid.=  9.16912174472843E-08
(PID.TID 0000.0001)  cg2d: iter=    76 ; resid.=  7.32258147199862E-08
(PID.TID 0000.0001)  cg2d: iter=    77 ; resid.=  6.10022887049348E-08
(PID.TID 0000.0001)  cg2d: iter=    78 ; resid.=  5.56137125129172E-08
(PID.TID 0000.0001)  cg2d: iter=    79 ; resid.=  4.99232435781284E-08
(PID.TID 0000.0001)  cg2d: iter=    80 ; resid.=  4.07156300273759E-08
(PID.TID 0000.0001)  cg2d: iter=    81 ; resid.=  3.18773170361735E-08
(PID.TID 0000.0001)  cg2d: iter=    82 ; resid.=  2.50344202462380E-08
(PID.TID 0000.0001)  cg2d: iter=    83 ; resid.=  1.99447824543893E-08
(PID.TID 0000.0001)  cg2d: iter=    84 ; resid.=  1.47699741362014E-08
(PID.TID 0000.0001)  cg2d: iter=    85 ; resid.=  1.03659441339339E-08
(PID.TID 0000.0001)  cg2d: iter=    86 ; resid.=  7.39910529922115E-09
(PID.TID 0000.0001)  cg2d: iter=    87 ; resid.=  5.98802325198727E-09
(PID.TID 0000.0001)  cg2d: iter=    88 ; resid.=  4.53988353115642E-09
(PID.TID 0000.0001)  cg2d: iter=    89 ; resid.=  3.46188097714640E-09
(PID.TID 0000.0001)  cg2d: iter=    90 ; resid.=  2.69277300606128E-09
(PID.TID 0000.0001)  cg2d: iter=    91 ; resid.=  2.18926944359769E-09
(PID.TID 0000.0001)  cg2d: iter=    92 ; resid.=  1.73446019230023E-09
(PID.TID 0000.0001)  cg2d: iter=    93 ; resid.=  1.32529584626421E-09
(PID.TID 0000.0001)  cg2d: iter=    94 ; resid.=  1.01078879421850E-09
(PID.TID 0000.0001)  cg2d: iter=    95 ; resid.=  8.19555493538533E-10
(PID.TID 0000.0001)  cg2d: iter=    96 ; resid.=  6.73193391286108E-10
(PID.TID 0000.0001)  cg2d: iter=    97 ; resid.=  5.63652072651949E-10
(PID.TID 0000.0001)  cg2d: iter=    98 ; resid.=  4.63985527999127E-10
(PID.TID 0000.0001)  cg2d: iter=    99 ; resid.=  3.56315360365247E-10
(PID.TID 0000.0001)  cg2d: iter=   100 ; resid.=  2.95582357663224E-10
(PID.TID 0000.0001)  cg2d: iter=   101 ; resid.=  2.40464377508066E-10
(PID.TID 0000.0001)  cg2d: iter=   102 ; resid.=  1.94611487141509E-10
(PID.TID 0000.0001)  cg2d: iter=   103 ; resid.=  1.52902104905430E-10
(PID.TID 0000.0001)  cg2d: iter=   104 ; resid.=  1.32982485075968E-10
(PID.TID 0000.0001)  cg2d: iter=   105 ; resid.=  1.14929574211388E-10
(PID.TID 0000.0001)  cg2d: iter=   106 ; resid.=  9.36322747624855E-11
(PID.TID 0000.0001)  cg2d: iter=   107 ; resid.=  7.39986953162785E-11
(PID.TID 0000.0001)  cg2d: iter=   108 ; resid.=  6.10205007717230E-11
(PID.TID 0000.0001)  cg2d: iter=   109 ; resid.=  4.95360022084987E-11
(PID.TID 0000.0001)  cg2d: iter=   110 ; resid.=  3.88959799041396E-11
(PID.TID 0000.0001)  cg2d: iter=   111 ; resid.=  3.09393418507092E-11
(PID.TID 0000.0001)  cg2d: iter=   112 ; resid.=  2.37804925841136E-11
(PID.TID 0000.0001)  cg2d: iter=   113 ; resid.=  1.66938405477592E-11
(PID.TID 0000.0001)  cg2d: iter=   114 ; resid.=  1.09542898715794E-11
(PID.TID 0000.0001)  cg2d: iter=   115 ; resid.=  7.46895280161230E-12
(PID.TID 0000.0001)  cg2d: iter=   116 ; resid.=  5.13706387191299E-12
(PID.TID 0000.0001)  cg2d: iter=   117 ; resid.=  3.86223227572831E-12
(PID.TID 0000.0001)  cg2d: iter=   118 ; resid.=  2.79384370495994E-12
(PID.TID 0000.0001)  cg2d: iter=   119 ; resid.=  1.97051619641196E-12
(PID.TID 0000.0001)  cg2d: iter=   120 ; resid.=  1.42425360236976E-12
(PID.TID 0000.0001)  cg2d: iter=   121 ; resid.=  1.07154869183194E-12
(PID.TID 0000.0001)  cg2d: iter=   122 ; resid.=  7.99008511999164E-13
(PID.TID 0000.0001)  cg2d: iter=   123 ; resid.=  6.09063571197045E-13
(PID.TID 0000.0001)  cg2d: iter=   124 ; resid.=  4.96545159662179E-13
(PID.TID 0000.0001)  cg2d: iter=   125 ; resid.=  4.21232716964796E-13
(PID.TID 0000.0001)  cg2d: iter=   126 ; resid.=  3.49231587215529E-13
(PID.TID 0000.0001)  cg2d: iter=   127 ; resid.=  2.50557620878952E-13
(PID.TID 0000.0001)  cg2d: iter=   128 ; resid.=  1.77265668549875E-13
(PID.TID 0000.0001)  cg2d: iter=   129 ; resid.=  1.37703424104421E-13
(PID.TID 0000.0001)  cg2d: iter=   130 ; resid.=  1.11521297559881E-13
(PID.TID 0000.0001)  cg2d: iter=   131 ; resid.=  8.38013898107740E-14
DEBUG_STATS_RL:    cg2d_x (SOLVE_FOR_PRESSURE)  min= -1.65847525858743E+01
DEBUG_STATS_RL:    cg2d_x (SOLVE_FOR_PRESSURE)  max=  7.75368151397287E+00
DEBUG_STATS_RL:    cg2d_x (SOLVE_FOR_PRESSURE) mean= -1.68247023300638E+00
DEBUG_STATS_RL:    cg2d_x (SOLVE_FOR_PRESSURE) S.D.=  6.45872733543621E+00
(PID.TID 0000.0001)      cg2d_init_res =   3.31787032172497E-01
(PID.TID 0000.0001)      cg2d_iters(min,last) =      -1     131
(PID.TID 0000.0001)      cg2d_last_res =   8.38013898107740E-14
(PID.TID 0000.0001) // =======================================================
(PID.TID 0000.0001) // Begin MONITOR dynamic field statistics
(PID.TID 0000.0001) // =======================================================
(PID.TID 0000.0001) %MON time_tsnumber                =                    45
(PID.TID 0000.0001) %MON time_secondsf                =   3.8880000000000E+06
(PID.TID 0000.0001) %MON dynstat_eta_max              =   7.9038547543048E-01
(PID.TID 0000.0001) %MON dynstat_eta_min              =  -1.6905965938711E+00
(PID.TID 0000.0001) %MON dynstat_eta_mean             =  -3.4093190525504E-03
(PID.TID 0000.0001) %MON dynstat_eta_sd               =   5.6707671944809E-01
(PID.TID 0000.0001) %MON dynstat_eta_del2             =   2.1821953804066E-03
(PID.TID 0000.0001) %MON dynstat_uvel_max             =   1.6584008747694E-01
(PID.TID 0000.0001) %MON dynstat_uvel_min             =  -1.3741421686818E-01
(PID.TID 0000.0001) %MON dynstat_uvel_mean            =   1.7745638208355E-03
(PID.TID 0000.0001) %MON dynstat_uvel_sd              =   1.4407573713443E-02
(PID.TID 0000.0001) %MON dynstat_uvel_del2            =   8.6472534757466E-05
(PID.TID 0000.0001) %MON dynstat_vvel_max             =   1.1718146861196E-01
(PID.TID 0000.0001) %MON dynstat_vvel_min             =  -1.1017972405381E-01
(PID.TID 0000.0001) %MON dynstat_vvel_mean            =   6.4272766299549E-05
(PID.TID 0000.0001) %MON dynstat_vvel_sd              =   8.6641754817622E-03
(PID.TID 0000.0001) %MON dynstat_vvel_del2            =   7.5329637096477E-05
(PID.TID 0000.0001) %MON dynstat_wvel_max             =   1.1243037120122E-04
(PID.TID 0000.0001) %MON dynstat_wvel_min             =  -1.0336204218399E-04
(PID.TID 0000.0001) %MON dynstat_wvel_mean            =   1.8248615845933E-22
(PID.TID 0000.0001) %MON dynstat_wvel_sd              =   1.3089150437509E-05
(PID.TID 0000.0001) %MON dynstat_wvel_del2            =   1.3234836816270E-07
(PID.TID 0000.0001) %MON dynstat_theta_max            =   2.9928805438711E+01
(PID.TID 0000.0001) %MON dynstat_theta_min            =  -1.9607224522420E+00
(PID.TID 0000.0001) %MON dynstat_theta_mean           =   3.6205715663994E+00
(PID.TID 0000.0001) %MON dynstat_theta_sd             =   4.4175055726748E+00
(PID.TID 0000.0001) %MON dynstat_theta_del2           =   4.6361979459706E-03
(PID.TID 0000.0001) %MON dynstat_salt_max             =   3.7452104059005E+01
(PID.TID 0000.0001) %MON dynstat_salt_min             =   2.9817298162114E+01
(PID.TID 0000.0001) %MON dynstat_salt_mean            =   3.4717284282111E+01
(PID.TID 0000.0001) %MON dynstat_salt_sd              =   2.9619740398567E-01
(PID.TID 0000.0001) %MON dynstat_salt_del2            =   9.7098261231043E-04
(PID.TID 0000.0001) %MON dynstat_sst_max              =   2.9928805438711E+01
(PID.TID 0000.0001) %MON dynstat_sst_min              =  -1.9607224522420E+00
(PID.TID 0000.0001) %MON dynstat_sst_mean             =   1.8751007160227E+01
(PID.TID 0000.0001) %MON dynstat_sst_sd               =   9.0769003778320E+00
(PID.TID 0000.0001) %MON dynstat_sst_del2             =   2.4747207980586E-02
(PID.TID 0000.0001) %MON dynstat_sss_max              =   3.7399096193405E+01
(PID.TID 0000.0001) %MON dynstat_sss_min              =   2.9817298162114E+01
(PID.TID 0000.0001) %MON dynstat_sss_mean             =   3.4843550226270E+01
(PID.TID 0000.0001) %MON dynstat_sss_sd               =   9.7524665516214E-01
(PID.TID 0000.0001) %MON dynstat_sss_del2             =   7.6409089597878E-03
(PID.TID 0000.0001) %MON forcing_qnet_max             =   3.5980644938151E+02
(PID.TID 0000.0001) %MON forcing_qnet_min             =  -1.7307348836263E+02
(PID.TID 0000.0001) %MON forcing_qnet_mean            =  -1.4050160146347E+01
(PID.TID 0000.0001) %MON forcing_qnet_sd              =   8.0515925311569E+01
(PID.TID 0000.0001) %MON forcing_qnet_del2            =   9.4993377104494E-01
(PID.TID 0000.0001) %MON forcing_qsw_max              =   0.0000000000000E+00
(PID.TID 0000.0001) %MON forcing_qsw_min              =   0.0000000000000E+00
(PID.TID 0000.0001) %MON forcing_qsw_mean             =   0.0000000000000E+00
(PID.TID 0000.0001) %MON forcing_qsw_sd               =   0.0000000000000E+00
(PID.TID 0000.0001) %MON forcing_qsw_del2             =   0.0000000000000E+00
(PID.TID 0000.0001) %MON forcing_empmr_max            =   7.3065636740921E-05
(PID.TID 0000.0001) %MON forcing_empmr_min            =  -7.8465639793042E-05
(PID.TID 0000.0001) %MON forcing_empmr_mean           =   9.4272658264943E-07
(PID.TID 0000.0001) %MON forcing_empmr_sd             =   2.7982248259518E-05
(PID.TID 0000.0001) %MON forcing_empmr_del2           =   3.5557407608614E-07
(PID.TID 0000.0001) %MON forcing_fu_max               =   3.0324836671352E-01
(PID.TID 0000.0001) %MON forcing_fu_min               =  -2.1682592133681E-01
(PID.TID 0000.0001) %MON forcing_fu_mean              =   1.7576441401167E-02
(PID.TID 0000.0001) %MON forcing_fu_sd                =   9.2702887616547E-02
(PID.TID 0000.0001) %MON forcing_fu_del2              =   7.3829863471251E-04
(PID.TID 0000.0001) %MON forcing_fv_max               =   1.9947300006946E-01
(PID.TID 0000.0001) %MON forcing_fv_min               =  -1.9650735656420E-01
(PID.TID 0000.0001) %MON forcing_fv_mean              =  -7.1514640342452E-03
(PID.TID 0000.0001) %MON forcing_fv_sd                =   4.4931010890769E-02
(PID.TID 0000.0001) %MON forcing_fv_del2              =   5.3367284187280E-04
(PID.TID 0000.0001) %MON trAdv_CFL_u_max              =   5.0859496206363E-02
(PID.TID 0000.0001) %MON trAdv_CFL_v_max              =   2.6953764178552E-02
(PID.TID 0000.0001) %MON trAdv_CFL_w_max              =   3.1767965599753E-02
(PID.TID 0000.0001) %MON advcfl_uvel_max              =   4.9955560134052E-02
(PID.TID 0000.0001) %MON advcfl_vvel_max              =   2.2766479986495E-02
(PID.TID 0000.0001) %MON advcfl_wvel_max              =   3.7691410826454E-02
(PID.TID 0000.0001) %MON advcfl_W_hf_max              =   4.5229692991745E-02
(PID.TID 0000.0001) %MON pe_b_mean                    =   4.1151013342410E-04
(PID.TID 0000.0001) %MON ke_max                       =   1.3977248595808E-02
(PID.TID 0000.0001) %MON ke_mean                      =   1.2943972397930E-04
(PID.TID 0000.0001) %MON ke_vol                       =   1.3226782436723E+18
(PID.TID 0000.0001) %MON vort_r_min                   =  -4.8545769580628E-07
(PID.TID 0000.0001) %MON vort_r_max                   =   3.7804992245078E-07
(PID.TID 0000.0001) %MON vort_a_mean                  =  -2.5274807174100E-05
(PID.TID 0000.0001) %MON vort_a_sd                    =   7.3604599117110E-05
(PID.TID 0000.0001) %MON vort_p_mean                  =  -3.1845655518056E-05
(PID.TID 0000.0001) %MON vort_p_sd                    =   1.3162424244270E-04
(PID.TID 0000.0001) %MON surfExpan_theta_mean         =   1.0240868440806E-07
(PID.TID 0000.0001) %MON surfExpan_salt_mean          =   4.5849892965180E-08
(PID.TID 0000.0001) // =======================================================
(PID.TID 0000.0001) // End MONITOR dynamic field statistics
(PID.TID 0000.0001) // =======================================================
 EXTERNAL_FIELDS_LOAD,        45 : iP,iLd,i0,i1=    1    2    2    3 ; Wght=  1.0000000000  0.0000000000
 EXTERNAL_FIELDS_LOAD, it=        45 : Reading new data, i0,i1=    2    3 (prev=    1    2 )
(PID.TID 0000.0001)  MDS_READ_FIELD: opening global file: trenberth_taux.bin
(PID.TID 0000.0001)  MDS_READ_FIELD: opening global file: trenberth_taux.bin
(PID.TID 0000.0001)  MDS_READ_FIELD: opening global file: trenberth_tauy.bin
(PID.TID 0000.0001)  MDS_READ_FIELD: opening global file: trenberth_tauy.bin
(PID.TID 0000.0001)  MDS_READ_FIELD: opening global file: ncep_qnet.bin
(PID.TID 0000.0001)  MDS_READ_FIELD: opening global file: ncep_qnet.bin
(PID.TID 0000.0001)  MDS_READ_FIELD: opening global file: ncep_emp.bin
(PID.TID 0000.0001)  MDS_READ_FIELD: opening global file: ncep_emp.bin
(PID.TID 0000.0001)  MDS_READ_FIELD: opening global file: lev_sst.bin
(PID.TID 0000.0001)  MDS_READ_FIELD: opening global file: lev_sst.bin
(PID.TID 0000.0001)  MDS_READ_FIELD: opening global file: lev_sss.bin
(PID.TID 0000.0001)  MDS_READ_FIELD: opening global file: lev_sss.bin
 EXTERNAL_FIELDS_LOAD: (fu0,1),fu,fv= -1.4435E-02 -2.7199E-02 -1.4435E-02 -1.7636E-02
 EXTERNAL_FIELDS_LOAD: SST,SSS,Q,E-P= -5.3186E-01  3.4421E+01  2.4048E+02  8.3772E-06
DEBUG_STATS_RL:          Uvel (THERMODYNAMICS)  min= -1.37414216868185E-01
DEBUG_STATS_RL:          Uvel (THERMODYNAMICS)  max=  1.65840087476938E-01
DEBUG_STATS_RL:          Uvel (THERMODYNAMICS) mean=  4.95624792967633E-03
DEBUG_STATS_RL:          Uvel (THERMODYNAMICS) S.D.=  2.42804518239264E-02
DEBUG_STATS_RL:          Vvel (THERMODYNAMICS)  min= -1.10179724053805E-01
DEBUG_STATS_RL:          Vvel (THERMODYNAMICS)  max=  1.17181468611955E-01
DEBUG_STATS_RL:          Vvel (THERMODYNAMICS) mean=  9.12917818703356E-04
DEBUG_STATS_RL:          Vvel (THERMODYNAMICS) S.D.=  1.38347885229056E-02
DEBUG_STATS_RL:          Wvel (THERMODYNAMICS)  min= -1.03362042183991E-04
DEBUG_STATS_RL:          Wvel (THERMODYNAMICS)  max=  1.12430371201221E-04
DEBUG_STATS_RL:          Wvel (THERMODYNAMICS) mean= -1.38640155265829E-07
DEBUG_STATS_RL:          Wvel (THERMODYNAMICS) S.D.=  1.14846908688032E-05
DEBUG_STATS_RL:         Theta (THERMODYNAMICS)  min= -1.95936199729506E+00
DEBUG_STATS_RL:         Theta (THERMODYNAMICS)  max=  2.99316685820823E+01
DEBUG_STATS_RL:         Theta (THERMODYNAMICS) mean=  3.21073326274146E+00
DEBUG_STATS_RL:         Theta (THERMODYNAMICS) S.D.=  5.86036409072382E+00
DEBUG_STATS_RL:          Salt (THERMODYNAMICS)  min= -6.86242378085645E-04
DEBUG_STATS_RL:          Salt (THERMODYNAMICS)  max=  3.74521822774899E+01
DEBUG_STATS_RL:          Salt (THERMODYNAMICS) mean=  1.88441822343175E+01
DEBUG_STATS_RL:          Salt (THERMODYNAMICS) S.D.=  1.73003848346948E+01
DEBUG_STATS_RL:         GtNm1 (THERMODYNAMICS)  min= -2.64184858585701E-06
DEBUG_STATS_RL:         GtNm1 (THERMODYNAMICS)  max=  2.43391682511522E-06
DEBUG_STATS_RL:         GtNm1 (THERMODYNAMICS) mean=  7.70345314133111E-09
DEBUG_STATS_RL:         GtNm1 (THERMODYNAMICS) S.D.=  1.75260858271217E-07
DEBUG_STATS_RL:         GsNm1 (THERMODYNAMICS)  min= -4.16874488393742E-07
DEBUG_STATS_RL:         GsNm1 (THERMODYNAMICS)  max=  3.85203135721713E-07
DEBUG_STATS_RL:         GsNm1 (THERMODYNAMICS) mean=  2.71420978857924E-10
DEBUG_STATS_RL:         GsNm1 (THERMODYNAMICS) S.D.=  1.74129440679622E-08
DEBUG_STATS_RL:                EtaN (DYNAMICS)  min= -1.69059659387107E+00
DEBUG_STATS_RL:                EtaN (DYNAMICS)  max=  7.90385475430484E-01
DEBUG_STATS_RL:                EtaN (DYNAMICS) mean= -1.71505630275880E-01
DEBUG_STATS_RL:                EtaN (DYNAMICS) S.D.=  6.58381991379835E-01
DEBUG_STATS_RL:                Uvel (DYNAMICS)  min= -1.37414216868185E-01
DEBUG_STATS_RL:                Uvel (DYNAMICS)  max=  1.65840087476938E-01
DEBUG_STATS_RL:                Uvel (DYNAMICS) mean=  4.95624792967633E-03
DEBUG_STATS_RL:                Uvel (DYNAMICS) S.D.=  2.42804518239264E-02
DEBUG_STATS_RL:                Vvel (DYNAMICS)  min= -1.10179724053805E-01
DEBUG_STATS_RL:                Vvel (DYNAMICS)  max=  1.17181468611955E-01
DEBUG_STATS_RL:                Vvel (DYNAMICS) mean=  9.12917818703356E-04
DEBUG_STATS_RL:                Vvel (DYNAMICS) S.D.=  1.38347885229056E-02
DEBUG_STATS_RL:                Wvel (DYNAMICS)  min= -1.03362042183991E-04
DEBUG_STATS_RL:                Wvel (DYNAMICS)  max=  1.12430371201221E-04
DEBUG_STATS_RL:                Wvel (DYNAMICS) mean= -1.38640155265829E-07
DEBUG_STATS_RL:                Wvel (DYNAMICS) S.D.=  1.14846908688032E-05
DEBUG_STATS_RL:               Theta (DYNAMICS)  min= -1.95936199729506E+00
DEBUG_STATS_RL:               Theta (DYNAMICS)  max=  2.99316685820823E+01
DEBUG_STATS_RL:               Theta (DYNAMICS) mean=  3.21073326274146E+00
DEBUG_STATS_RL:               Theta (DYNAMICS) S.D.=  5.86036409072382E+00
DEBUG_STATS_RL:                Salt (DYNAMICS)  min= -6.86242378085645E-04
DEBUG_STATS_RL:                Salt (DYNAMICS)  max=  3.74521822774899E+01
DEBUG_STATS_RL:                Salt (DYNAMICS) mean=  1.88441822343175E+01
DEBUG_STATS_RL:                Salt (DYNAMICS) S.D.=  1.73003848346948E+01
DEBUG_STATS_RL:                  Gu (DYNAMICS)  min= -1.35991500857312E-01
DEBUG_STATS_RL:                  Gu (DYNAMICS)  max=  1.68645468561028E-01
DEBUG_STATS_RL:                  Gu (DYNAMICS) mean=  4.94350379150117E-03
DEBUG_STATS_RL:                  Gu (DYNAMICS) S.D.=  2.46629919100080E-02
DEBUG_STATS_RL:                  Gv (DYNAMICS)  min= -1.05158667882824E-01
DEBUG_STATS_RL:                  Gv (DYNAMICS)  max=  1.21614837158044E-01
DEBUG_STATS_RL:                  Gv (DYNAMICS) mean=  3.52492195093288E-03
DEBUG_STATS_RL:                  Gv (DYNAMICS) S.D.=  1.47904534611343E-02
DEBUG_STATS_RL:               GuNm1 (DYNAMICS)  min= -8.81012703777529E-06
DEBUG_STATS_RL:               GuNm1 (DYNAMICS)  max=  8.61310604387913E-06
DEBUG_STATS_RL:               GuNm1 (DYNAMICS) mean= -1.50222465069226E-08
DEBUG_STATS_RL:               GuNm1 (DYNAMICS) S.D.=  1.16754569353616E-06
DEBUG_STATS_RL:               GvNm1 (DYNAMICS)  min= -9.64811483726665E-06
DEBUG_STATS_RL:               GvNm1 (DYNAMICS)  max=  1.63443308826652E-05
DEBUG_STATS_RL:               GvNm1 (DYNAMICS) mean=  7.49780591329013E-07
DEBUG_STATS_RL:               GvNm1 (DYNAMICS) S.D.=  2.58218146435810E-06
DEBUG_STATS_RL:               GtNm1 (DYNAMICS)  min= -2.64184858585701E-06
DEBUG_STATS_RL:               GtNm1 (DYNAMICS)  max=  2.43391682511522E-06
DEBUG_STATS_RL:               GtNm1 (DYNAMICS) mean=  7.70345314133111E-09
DEBUG_STATS_RL:               GtNm1 (DYNAMICS) S.D.=  1.75260858271217E-07
DEBUG_STATS_RL:               GsNm1 (DYNAMICS)  min= -4.16874488393742E-07
DEBUG_STATS_RL:               GsNm1 (DYNAMICS)  max=  3.85203135721713E-07
DEBUG_STATS_RL:               GsNm1 (DYNAMICS) mean=  2.71420978857924E-10
DEBUG_STATS_RL:               GsNm1 (DYNAMICS) S.D.=  1.74129440679622E-08
DEBUG_STATS_RL:    cg2d_b (SOLVE_FOR_PRESSURE)  min= -1.89968699101740E+04
DEBUG_STATS_RL:    cg2d_b (SOLVE_FOR_PRESSURE)  max=  2.37924799747478E+04
DEBUG_STATS_RL:    cg2d_b (SOLVE_FOR_PRESSURE) mean=  3.34306441761854E+00
DEBUG_STATS_RL:    cg2d_b (SOLVE_FOR_PRESSURE) S.D.=  3.61161114623745E+03
 cg2d: Sum(rhs),rhsMax =   3.25279001390351E-01  1.56275378733907E+00
(PID.TID 0000.0001)  cg2d: iter=     1 ; resid.=  8.58645269640774E-02
(PID.TID 0000.0001)  cg2d: iter=     2 ; resid.=  4.31365941172746E-02
(PID.TID 0000.0001)  cg2d: iter=     3 ; resid.=  3.99538652191699E-02
(PID.TID 0000.0001)  cg2d: iter=     4 ; resid.=  3.93121852630216E-02
(PID.TID 0000.0001)  cg2d: iter=     5 ; resid.=  3.48417003950802E-02
(PID.TID 0000.0001)  cg2d: iter=     6 ; resid.=  2.96973568002053E-02
(PID.TID 0000.0001)  cg2d: iter=     7 ; resid.=  2.37085630342584E-02
(PID.TID 0000.0001)  cg2d: iter=     8 ; resid.=  2.16891072978755E-02
(PID.TID 0000.0001)  cg2d: iter=     9 ; resid.=  1.98334893231233E-02
(PID.TID 0000.0001)  cg2d: iter=    10 ; resid.=  1.74435864975933E-02
(PID.TID 0000.0001)  cg2d: iter=    11 ; resid.=  1.51080145881838E-02
(PID.TID 0000.0001)  cg2d: iter=    12 ; resid.=  1.24964796095155E-02
(PID.TID 0000.0001)  cg2d: iter=    13 ; resid.=  9.61076788514826E-03
(PID.TID 0000.0001)  cg2d: iter=    14 ; resid.=  7.43672056817051E-03
(PID.TID 0000.0001)  cg2d: iter=    15 ; resid.=  6.58464961001305E-03
(PID.TID 0000.0001)  cg2d: iter=    16 ; resid.=  5.71790146109581E-03
(PID.TID 0000.0001)  cg2d: iter=    17 ; resid.=  5.15898976682774E-03
(PID.TID 0000.0001)  cg2d: iter=    18 ; resid.=  4.23568451930016E-03
(PID.TID 0000.0001)  cg2d: iter=    19 ; resid.=  3.60488057853884E-03
(PID.TID 0000.0001)  cg2d: iter=    20 ; resid.=  2.90259162210405E-03
(PID.TID 0000.0001)  cg2d: iter=    21 ; resid.=  2.34046388697992E-03
(PID.TID 0000.0001)  cg2d: iter=    22 ; resid.=  2.11884236366249E-03
(PID.TID 0000.0001)  cg2d: iter=    23 ; resid.=  1.83051300815400E-03
(PID.TID 0000.0001)  cg2d: iter=    24 ; resid.=  1.44517865990896E-03
(PID.TID 0000.0001)  cg2d: iter=    25 ; resid.=  1.14142902042121E-03
(PID.TID 0000.0001)  cg2d: iter=    26 ; resid.=  9.15560743889900E-04
(PID.TID 0000.0001)  cg2d: iter=    27 ; resid.=  7.99868881085568E-04
(PID.TID 0000.0001)  cg2d: iter=    28 ; resid.=  7.11891062983204E-04
(PID.TID 0000.0001)  cg2d: iter=    29 ; resid.=  5.97445520281492E-04
(PID.TID 0000.0001)  cg2d: iter=    30 ; resid.=  4.55134227249206E-04
(PID.TID 0000.0001)  cg2d: iter=    31 ; resid.=  3.98957674623591E-04
(PID.TID 0000.0001)  cg2d: iter=    32 ; resid.=  3.56806712830186E-04
(PID.TID 0000.0001)  cg2d: iter=    33 ; resid.=  3.01511082065116E-04
(PID.TID 0000.0001)  cg2d: iter=    34 ; resid.=  2.42193708588874E-04
(PID.TID 0000.0001)  cg2d: iter=    35 ; resid.=  1.92822840082835E-04
(PID.TID 0000.0001)  cg2d: iter=    36 ; resid.=  1.64590143399690E-04
(PID.TID 0000.0001)  cg2d: iter=    37 ; resid.=  1.38004347775032E-04
(PID.TID 0000.0001)  cg2d: iter=    38 ; resid.=  1.14443691317269E-04
(PID.TID 0000.0001)  cg2d: iter=    39 ; resid.=  9.57517122475040E-05
(PID.TID 0000.0001)  cg2d: iter=    40 ; resid.=  8.92690740683138E-05
(PID.TID 0000.0001)  cg2d: iter=    41 ; resid.=  8.12032221607332E-05
(PID.TID 0000.0001)  cg2d: iter=    42 ; resid.=  6.42421338046763E-05
(PID.TID 0000.0001)  cg2d: iter=    43 ; resid.=  5.02386264127651E-05
(PID.TID 0000.0001)  cg2d: iter=    44 ; resid.=  4.16481662485581E-05
(PID.TID 0000.0001)  cg2d: iter=    45 ; resid.=  3.33527220846404E-05
(PID.TID 0000.0001)  cg2d: iter=    46 ; resid.=  2.44036206063968E-05
(PID.TID 0000.0001)  cg2d: iter=    47 ; resid.=  1.77950814780495E-05
(PID.TID 0000.0001)  cg2d: iter=    48 ; resid.=  1.48371184695931E-05
(PID.TID 0000.0001)  cg2d: iter=    49 ; resid.=  1.22262509201038E-05
(PID.TID 0000.0001)  cg2d: iter=    50 ; resid.=  9.94324748562695E-06
(PID.TID 0000.0001)  cg2d: iter=    51 ; resid.=  7.79462605478033E-06
(PID.TID 0000.0001)  cg2d: iter=    52 ; resid.=  6.45896771757247E-06
(PID.TID 0000.0001)  cg2d: iter=    53 ; resid.=  5.89765938927469E-06
(PID.TID 0000.0001)  cg2d: iter=    54 ; resid.=  5.20169514583866E-06
(PID.TID 0000.0001)  cg2d: iter=    55 ; resid.=  4.06448465543251E-06
(PID.TID 0000.0001)  cg2d: iter=    56 ; resid.=  3.38284845234573E-06
(PID.TID 0000.0001)  cg2d: iter=    57 ; resid.=  3.17496571222107E-06
(PID.TID 0000.0001)  cg2d: iter=    58 ; resid.=  2.73948129766158E-06
(PID.TID 0000.0001)  cg2d: iter=    59 ; resid.=  2.11665815308607E-06
(PID.TID 0000.0001)  cg2d: iter=    60 ; resid.=  1.55811128769036E-06
(PID.TID 0000.0001)  cg2d: iter=    61 ; resid.=  1.31986407192536E-06
(PID.TID 0000.0001)  cg2d: iter=    62 ; resid.=  1.15717814028594E-06
(PID.TID 0000.0001)  cg2d: iter=    63 ; resid.=  8.92211402527058E-07
(PID.TID 0000.0001)  cg2d: iter=    64 ; resid.=  7.39648757151972E-07
(PID.TID 0000.0001)  cg2d: iter=    65 ; resid.=  6.26558732768339E-07
(PID.TID 0000.0001)  cg2d: iter=    66 ; resid.=  5.33145521437473E-07
(PID.TID 0000.0001)  cg2d: iter=    67 ; resid.=  4.13540088495306E-07
(PID.TID 0000.0001)  cg2d: iter=    68 ; resid.=  3.16319576099045E-07
(PID.TID 0000.0001)  cg2d: iter=    69 ; resid.=  2.64533699700766E-07
(PID.TID 0000.0001)  cg2d: iter=    70 ; resid.=  2.47795562970140E-07
(PID.TID 0000.0001)  cg2d: iter=    71 ; resid.=  2.08008370689014E-07
(PID.TID 0000.0001)  cg2d: iter=    72 ; resid.=  1.60669894760625E-07
(PID.TID 0000.0001)  cg2d: iter=    73 ; resid.=  1.29956808241231E-07
(PID.TID 0000.0001)  cg2d: iter=    74 ; resid.=  1.09740082989724E-07
(PID.TID 0000.0001)  cg2d: iter=    75 ; resid.=  9.08806603745017E-08
(PID.TID 0000.0001)  cg2d: iter=    76 ; resid.=  7.37246127494210E-08
(PID.TID 0000.0001)  cg2d: iter=    77 ; resid.=  6.12690522356375E-08
(PID.TID 0000.0001)  cg2d: iter=    78 ; resid.=  5.39096215275191E-08
(PID.TID 0000.0001)  cg2d: iter=    79 ; resid.=  4.67604945933012E-08
(PID.TID 0000.0001)  cg2d: iter=    80 ; resid.=  3.85340312761276E-08
(PID.TID 0000.0001)  cg2d: iter=    81 ; resid.=  3.06477683937950E-08
(PID.TID 0000.0001)  cg2d: iter=    82 ; resid.=  2.37277446510825E-08
(PID.TID 0000.0001)  cg2d: iter=    83 ; resid.=  1.85558690206909E-08
(PID.TID 0000.0001)  cg2d: iter=    84 ; resid.=  1.38129249158980E-08
(PID.TID 0000.0001)  cg2d: iter=    85 ; resid.=  9.93573818663134E-09
(PID.TID 0000.0001)  cg2d: iter=    86 ; resid.=  7.18474139479224E-09
(PID.TID 0000.0001)  cg2d: iter=    87 ; resid.=  5.82164298139387E-09
(PID.TID 0000.0001)  cg2d: iter=    88 ; resid.=  4.46945679085924E-09
(PID.TID 0000.0001)  cg2d: iter=    89 ; resid.=  3.50503427368336E-09
(PID.TID 0000.0001)  cg2d: iter=    90 ; resid.=  2.77915818385664E-09
(PID.TID 0000.0001)  cg2d: iter=    91 ; resid.=  2.25329385106278E-09
(PID.TID 0000.0001)  cg2d: iter=    92 ; resid.=  1.73474592323627E-09
(PID.TID 0000.0001)  cg2d: iter=    93 ; resid.=  1.28876882474806E-09
(PID.TID 0000.0001)  cg2d: iter=    94 ; resid.=  9.64643458793863E-10
(PID.TID 0000.0001)  cg2d: iter=    95 ; resid.=  7.53666948829808E-10
(PID.TID 0000.0001)  cg2d: iter=    96 ; resid.=  5.74199555331225E-10
(PID.TID 0000.0001)  cg2d: iter=    97 ; resid.=  4.46455940949172E-10
(PID.TID 0000.0001)  cg2d: iter=    98 ; resid.=  3.50182380615599E-10
(PID.TID 0000.0001)  cg2d: iter=    99 ; resid.=  2.53599049002112E-10
(PID.TID 0000.0001)  cg2d: iter=   100 ; resid.=  1.93902264583497E-10
(PID.TID 0000.0001)  cg2d: iter=   101 ; resid.=  1.47126780785911E-10
(PID.TID 0000.0001)  cg2d: iter=   102 ; resid.=  1.09901411554970E-10
(PID.TID 0000.0001)  cg2d: iter=   103 ; resid.=  7.89299637834081E-11
(PID.TID 0000.0001)  cg2d: iter=   104 ; resid.=  5.97044369327064E-11
(PID.TID 0000.0001)  cg2d: iter=   105 ; resid.=  4.74528211061926E-11
(PID.TID 0000.0001)  cg2d: iter=   106 ; resid.=  3.71945276133181E-11
(PID.TID 0000.0001)  cg2d: iter=   107 ; resid.=  2.80190129681373E-11
(PID.TID 0000.0001)  cg2d: iter=   108 ; resid.=  2.22741207069695E-11
(PID.TID 0000.0001)  cg2d: iter=   109 ; resid.=  1.84440691762475E-11
(PID.TID 0000.0001)  cg2d: iter=   110 ; resid.=  1.60368679976238E-11
(PID.TID 0000.0001)  cg2d: iter=   111 ; resid.=  1.44079770523486E-11
(PID.TID 0000.0001)  cg2d: iter=   112 ; resid.=  1.32189706147673E-11
(PID.TID 0000.0001)  cg2d: iter=   113 ; resid.=  1.11296174491749E-11
(PID.TID 0000.0001)  cg2d: iter=   114 ; resid.=  8.34135863903842E-12
(PID.TID 0000.0001)  cg2d: iter=   115 ; resid.=  6.21465650160837E-12
(PID.TID 0000.0001)  cg2d: iter=   116 ; resid.=  4.57342031049042E-12
(PID.TID 0000.0001)  cg2d: iter=   117 ; resid.=  3.62860873857233E-12
(PID.TID 0000.0001)  cg2d: iter=   118 ; resid.=  2.81751414341826E-12
(PID.TID 0000.0001)  cg2d: iter=   119 ; resid.=  2.18817187299061E-12
(PID.TID 0000.0001)  cg2d: iter=   120 ; resid.=  1.71826262997273E-12
(PID.TID 0000.0001)  cg2d: iter=   121 ; resid.=  1.34566232448797E-12
(PID.TID 0000.0001)  cg2d: iter=   122 ; resid.=  1.04169827629603E-12
(PID.TID 0000.0001)  cg2d: iter=   123 ; resid.=  8.36988967303500E-13
(PID.TID 0000.0001)  cg2d: iter=   124 ; resid.=  6.82675684935104E-13
(PID.TID 0000.0001)  cg2d: iter=   125 ; resid.=  5.42264405810481E-13
(PID.TID 0000.0001)  cg2d: iter=   126 ; resid.=  4.15169578681156E-13
(PID.TID 0000.0001)  cg2d: iter=   127 ; resid.=  2.85403474013840E-13
(PID.TID 0000.0001)  cg2d: iter=   128 ; resid.=  1.92475290313438E-13
(PID.TID 0000.0001)  cg2d: iter=   129 ; resid.=  1.42437707671574E-13
(PID.TID 0000.0001)  cg2d: iter=   130 ; resid.=  1.11175852210840E-13
(PID.TID 0000.0001)  cg2d: iter=   131 ; resid.=  8.32674748587235E-14
DEBUG_STATS_RL:    cg2d_x (SOLVE_FOR_PRESSURE)  min= -1.68563465056599E+01
DEBUG_STATS_RL:    cg2d_x (SOLVE_FOR_PRESSURE)  max=  7.67435936639846E+00
DEBUG_STATS_RL:    cg2d_x (SOLVE_FOR_PRESSURE) mean= -1.68360362587378E+00
DEBUG_STATS_RL:    cg2d_x (SOLVE_FOR_PRESSURE) S.D.=  6.48698498598550E+00
(PID.TID 0000.0001)      cg2d_init_res =   3.20271292946334E-01
(PID.TID 0000.0001)      cg2d_iters(min,last) =      -1     131
(PID.TID 0000.0001)      cg2d_last_res =   8.32674748587235E-14
(PID.TID 0000.0001) // =======================================================
(PID.TID 0000.0001) // Begin MONITOR dynamic field statistics
(PID.TID 0000.0001) // =======================================================
(PID.TID 0000.0001) %MON time_tsnumber                =                    46
(PID.TID 0000.0001) %MON time_secondsf                =   3.9744000000000E+06
(PID.TID 0000.0001) %MON dynstat_eta_max              =   7.8229962960226E-01
(PID.TID 0000.0001) %MON dynstat_eta_min              =  -1.7182820087319E+00
(PID.TID 0000.0001) %MON dynstat_eta_mean             =  -3.4880731934819E-03
(PID.TID 0000.0001) %MON dynstat_eta_sd               =   5.6917987905169E-01
(PID.TID 0000.0001) %MON dynstat_eta_del2             =   2.1938643285295E-03
(PID.TID 0000.0001) %MON dynstat_uvel_max             =   1.6710806714772E-01
(PID.TID 0000.0001) %MON dynstat_uvel_min             =  -1.3570410103450E-01
(PID.TID 0000.0001) %MON dynstat_uvel_mean            =   1.8051758417718E-03
(PID.TID 0000.0001) %MON dynstat_uvel_sd              =   1.4482155713544E-02
(PID.TID 0000.0001) %MON dynstat_uvel_del2            =   8.6477860224919E-05
(PID.TID 0000.0001) %MON dynstat_vvel_max             =   1.2078070423364E-01
(PID.TID 0000.0001) %MON dynstat_vvel_min             =  -1.0805606269363E-01
(PID.TID 0000.0001) %MON dynstat_vvel_mean            =   6.2674435927299E-05
(PID.TID 0000.0001) %MON dynstat_vvel_sd              =   8.6060847149627E-03
(PID.TID 0000.0001) %MON dynstat_vvel_del2            =   7.5088154359350E-05
(PID.TID 0000.0001) %MON dynstat_wvel_max             =   1.2097443485680E-04
(PID.TID 0000.0001) %MON dynstat_wvel_min             =  -9.7289958596985E-05
(PID.TID 0000.0001) %MON dynstat_wvel_mean            =   7.9809023172353E-23
(PID.TID 0000.0001) %MON dynstat_wvel_sd              =   1.2907493442629E-05
(PID.TID 0000.0001) %MON dynstat_wvel_del2            =   1.3059747146154E-07
(PID.TID 0000.0001) %MON dynstat_theta_max            =   2.9931668582082E+01
(PID.TID 0000.0001) %MON dynstat_theta_min            =  -1.9593619972951E+00
(PID.TID 0000.0001) %MON dynstat_theta_mean           =   3.6206234893711E+00
(PID.TID 0000.0001) %MON dynstat_theta_sd             =   4.4176759535738E+00
(PID.TID 0000.0001) %MON dynstat_theta_del2           =   4.6396761069167E-03
(PID.TID 0000.0001) %MON dynstat_salt_max             =   3.7452182277490E+01
(PID.TID 0000.0001) %MON dynstat_salt_min             =   2.9819909018273E+01
(PID.TID 0000.0001) %MON dynstat_salt_mean            =   3.4717284840740E+01
(PID.TID 0000.0001) %MON dynstat_salt_sd              =   2.9619821384086E-01
(PID.TID 0000.0001) %MON dynstat_salt_del2            =   9.7076433855361E-04
(PID.TID 0000.0001) %MON dynstat_sst_max              =   2.9931668582082E+01
(PID.TID 0000.0001) %MON dynstat_sst_min              =  -1.9593619972951E+00
(PID.TID 0000.0001) %MON dynstat_sst_mean             =   1.8757140702894E+01
(PID.TID 0000.0001) %MON dynstat_sst_sd               =   9.0796135138571E+00
(PID.TID 0000.0001) %MON dynstat_sst_del2             =   2.4750094324566E-02
(PID.TID 0000.0001) %MON dynstat_sss_max              =   3.7398376037255E+01
(PID.TID 0000.0001) %MON dynstat_sss_min              =   2.9819909018273E+01
(PID.TID 0000.0001) %MON dynstat_sss_mean             =   3.4843545625250E+01
(PID.TID 0000.0001) %MON dynstat_sss_sd               =   9.7529926153803E-01
(PID.TID 0000.0001) %MON dynstat_sss_del2             =   7.6381646738881E-03
(PID.TID 0000.0001) %MON forcing_qnet_max             =   3.5845223999023E+02
(PID.TID 0000.0001) %MON forcing_qnet_min             =  -1.7283396911621E+02
(PID.TID 0000.0001) %MON forcing_qnet_mean            =  -1.3965250978943E+01
(PID.TID 0000.0001) %MON forcing_qnet_sd              =   7.9600844041117E+01
(PID.TID 0000.0001) %MON forcing_qnet_del2            =   9.4924046503394E-01
(PID.TID 0000.0001) %MON forcing_qsw_max              =   0.0000000000000E+00
(PID.TID 0000.0001) %MON forcing_qsw_min              =   0.0000000000000E+00
(PID.TID 0000.0001) %MON forcing_qsw_mean             =   0.0000000000000E+00
(PID.TID 0000.0001) %MON forcing_qsw_sd               =   0.0000000000000E+00
(PID.TID 0000.0001) %MON forcing_qsw_del2             =   0.0000000000000E+00
(PID.TID 0000.0001) %MON forcing_empmr_max            =   7.2751547008920E-05
(PID.TID 0000.0001) %MON forcing_empmr_min            =  -7.8545284054599E-05
(PID.TID 0000.0001) %MON forcing_empmr_mean           =   9.4340897990939E-07
(PID.TID 0000.0001) %MON forcing_empmr_sd             =   2.7981615340984E-05
(PID.TID 0000.0001) %MON forcing_empmr_del2           =   3.5607128030285E-07
(PID.TID 0000.0001) %MON forcing_fu_max               =   3.0463552474976E-01
(PID.TID 0000.0001) %MON forcing_fu_min               =  -2.1965765953064E-01
(PID.TID 0000.0001) %MON forcing_fu_mean              =   1.7630741616636E-02
(PID.TID 0000.0001) %MON forcing_fu_sd                =   9.3014374943535E-02
(PID.TID 0000.0001) %MON forcing_fu_del2              =   7.4725854650669E-04
(PID.TID 0000.0001) %MON forcing_fv_max               =   2.0158496499062E-01
(PID.TID 0000.0001) %MON forcing_fv_min               =  -1.9967925548553E-01
(PID.TID 0000.0001) %MON forcing_fv_mean              =  -7.2167249409603E-03
(PID.TID 0000.0001) %MON forcing_fv_sd                =   4.5051757763558E-02
(PID.TID 0000.0001) %MON forcing_fv_del2              =   5.4153881017288E-04
(PID.TID 0000.0001) %MON trAdv_CFL_u_max              =   4.9965706465604E-02
(PID.TID 0000.0001) %MON trAdv_CFL_v_max              =   2.7494954328777E-02
(PID.TID 0000.0001) %MON trAdv_CFL_w_max              =   3.2306923565532E-02
(PID.TID 0000.0001) %MON advcfl_uvel_max              =   4.8571401431418E-02
(PID.TID 0000.0001) %MON advcfl_vvel_max              =   2.3465753742990E-02
(PID.TID 0000.0001) %MON advcfl_wvel_max              =   3.7953809940665E-02
(PID.TID 0000.0001) %MON advcfl_W_hf_max              =   4.5913181673199E-02
(PID.TID 0000.0001) %MON pe_b_mean                    =   4.1456877477891E-04
(PID.TID 0000.0001) %MON ke_max                       =   1.4356962795325E-02
(PID.TID 0000.0001) %MON ke_mean                      =   1.3001791034375E-04
(PID.TID 0000.0001) %MON ke_vol                       =   1.3226782436723E+18
(PID.TID 0000.0001) %MON vort_r_min                   =  -4.8772214086363E-07
(PID.TID 0000.0001) %MON vort_r_max                   =   3.8741814151603E-07
(PID.TID 0000.0001) %MON vort_a_mean                  =  -2.5274807191304E-05
(PID.TID 0000.0001) %MON vort_a_sd                    =   7.3604600791917E-05
(PID.TID 0000.0001) %MON vort_p_mean                  =  -3.1845655539732E-05
(PID.TID 0000.0001) %MON vort_p_sd                    =   1.3162429087633E-04
(PID.TID 0000.0001) %MON surfExpan_theta_mean         =   1.4535027980956E-07
(PID.TID 0000.0001) %MON surfExpan_salt_mean          =   3.3414021067910E-08
(PID.TID 0000.0001) // =======================================================
(PID.TID 0000.0001) // End MONITOR dynamic field statistics
(PID.TID 0000.0001) // =======================================================
 EXTERNAL_FIELDS_LOAD,        46 : iP,iLd,i0,i1=    2    3    2    3 ; Wght=  0.9666666667  0.0333333333
 EXTERNAL_FIELDS_LOAD: (fu0,1),fu,fv= -1.4435E-02 -2.7199E-02 -1.4860E-02 -1.7067E-02
 EXTERNAL_FIELDS_LOAD: SST,SSS,Q,E-P= -5.2026E-01  3.4426E+01  2.3964E+02  8.4007E-06
DEBUG_STATS_RL:          Uvel (THERMODYNAMICS)  min= -1.35704101034499E-01
DEBUG_STATS_RL:          Uvel (THERMODYNAMICS)  max=  1.67108067147719E-01
DEBUG_STATS_RL:          Uvel (THERMODYNAMICS) mean=  5.08543621511092E-03
DEBUG_STATS_RL:          Uvel (THERMODYNAMICS) S.D.=  2.43294427203357E-02
DEBUG_STATS_RL:          Vvel (THERMODYNAMICS)  min= -1.08056062693628E-01
DEBUG_STATS_RL:          Vvel (THERMODYNAMICS)  max=  1.20780704233645E-01
DEBUG_STATS_RL:          Vvel (THERMODYNAMICS) mean=  1.09381992253433E-03
DEBUG_STATS_RL:          Vvel (THERMODYNAMICS) S.D.=  1.38659767975942E-02
DEBUG_STATS_RL:          Wvel (THERMODYNAMICS)  min= -9.72899585969847E-05
DEBUG_STATS_RL:          Wvel (THERMODYNAMICS)  max=  1.20974434856801E-04
DEBUG_STATS_RL:          Wvel (THERMODYNAMICS) mean= -9.24951255686879E-08
DEBUG_STATS_RL:          Wvel (THERMODYNAMICS) S.D.=  1.13685433040263E-05
DEBUG_STATS_RL:         Theta (THERMODYNAMICS)  min= -1.95742714469523E+00
DEBUG_STATS_RL:         Theta (THERMODYNAMICS)  max=  2.99341527779682E+01
DEBUG_STATS_RL:         Theta (THERMODYNAMICS) mean=  3.21096198663303E+00
DEBUG_STATS_RL:         Theta (THERMODYNAMICS) S.D.=  5.86094586420356E+00
DEBUG_STATS_RL:          Salt (THERMODYNAMICS)  min= -6.86242378085645E-04
DEBUG_STATS_RL:          Salt (THERMODYNAMICS)  max=  3.74523764712461E+01
DEBUG_STATS_RL:          Salt (THERMODYNAMICS) mean=  1.88441955922096E+01
DEBUG_STATS_RL:          Salt (THERMODYNAMICS) S.D.=  1.73003973232781E+01
DEBUG_STATS_RL:         GtNm1 (THERMODYNAMICS)  min= -2.70502728901489E-06
DEBUG_STATS_RL:         GtNm1 (THERMODYNAMICS)  max=  2.28751223806369E-06
DEBUG_STATS_RL:         GtNm1 (THERMODYNAMICS) mean=  6.54648264461895E-09
DEBUG_STATS_RL:         GtNm1 (THERMODYNAMICS) S.D.=  1.71949096461457E-07
DEBUG_STATS_RL:         GsNm1 (THERMODYNAMICS)  min= -3.96666604454991E-07
DEBUG_STATS_RL:         GsNm1 (THERMODYNAMICS)  max=  3.35856220597862E-07
DEBUG_STATS_RL:         GsNm1 (THERMODYNAMICS) mean=  2.61346303993961E-10
DEBUG_STATS_RL:         GsNm1 (THERMODYNAMICS) S.D.=  1.72340483293220E-08
DEBUG_STATS_RL:                EtaN (DYNAMICS)  min= -1.71828200873194E+00
DEBUG_STATS_RL:                EtaN (DYNAMICS)  max=  7.82299629602264E-01
DEBUG_STATS_RL:                EtaN (DYNAMICS) mean= -1.71621164717002E-01
DEBUG_STATS_RL:                EtaN (DYNAMICS) S.D.=  6.61262485829306E-01
DEBUG_STATS_RL:                Uvel (DYNAMICS)  min= -1.35704101034499E-01
DEBUG_STATS_RL:                Uvel (DYNAMICS)  max=  1.67108067147719E-01
DEBUG_STATS_RL:                Uvel (DYNAMICS) mean=  5.08543621511092E-03
DEBUG_STATS_RL:                Uvel (DYNAMICS) S.D.=  2.43294427203357E-02
DEBUG_STATS_RL:                Vvel (DYNAMICS)  min= -1.08056062693628E-01
DEBUG_STATS_RL:                Vvel (DYNAMICS)  max=  1.20780704233645E-01
DEBUG_STATS_RL:                Vvel (DYNAMICS) mean=  1.09381992253433E-03
DEBUG_STATS_RL:                Vvel (DYNAMICS) S.D.=  1.38659767975942E-02
DEBUG_STATS_RL:                Wvel (DYNAMICS)  min= -9.72899585969847E-05
DEBUG_STATS_RL:                Wvel (DYNAMICS)  max=  1.20974434856801E-04
DEBUG_STATS_RL:                Wvel (DYNAMICS) mean= -9.24951255686879E-08
DEBUG_STATS_RL:                Wvel (DYNAMICS) S.D.=  1.13685433040263E-05
DEBUG_STATS_RL:               Theta (DYNAMICS)  min= -1.95742714469523E+00
DEBUG_STATS_RL:               Theta (DYNAMICS)  max=  2.99341527779682E+01
DEBUG_STATS_RL:               Theta (DYNAMICS) mean=  3.21096198663303E+00
DEBUG_STATS_RL:               Theta (DYNAMICS) S.D.=  5.86094586420356E+00
DEBUG_STATS_RL:                Salt (DYNAMICS)  min= -6.86242378085645E-04
DEBUG_STATS_RL:                Salt (DYNAMICS)  max=  3.74523764712461E+01
DEBUG_STATS_RL:                Salt (DYNAMICS) mean=  1.88441955922096E+01
DEBUG_STATS_RL:                Salt (DYNAMICS) S.D.=  1.73003973232781E+01
DEBUG_STATS_RL:                  Gu (DYNAMICS)  min= -1.34078503457985E-01
DEBUG_STATS_RL:                  Gu (DYNAMICS)  max=  1.74805834941103E-01
DEBUG_STATS_RL:                  Gu (DYNAMICS) mean=  5.04644574374627E-03
DEBUG_STATS_RL:                  Gu (DYNAMICS) S.D.=  2.46196642290924E-02
DEBUG_STATS_RL:                  Gv (DYNAMICS)  min= -1.02935078092930E-01
DEBUG_STATS_RL:                  Gv (DYNAMICS)  max=  1.25472903336030E-01
DEBUG_STATS_RL:                  Gv (DYNAMICS) mean=  3.70457839759039E-03
DEBUG_STATS_RL:                  Gv (DYNAMICS) S.D.=  1.49651082230708E-02
DEBUG_STATS_RL:               GuNm1 (DYNAMICS)  min= -8.92149007973594E-06
DEBUG_STATS_RL:               GuNm1 (DYNAMICS)  max=  8.67545111067141E-06
DEBUG_STATS_RL:               GuNm1 (DYNAMICS) mean= -1.38274557418772E-08
DEBUG_STATS_RL:               GuNm1 (DYNAMICS) S.D.=  1.16839217075747E-06
DEBUG_STATS_RL:               GvNm1 (DYNAMICS)  min= -9.60584452492690E-06
DEBUG_STATS_RL:               GvNm1 (DYNAMICS)  max=  1.63662624740618E-05
DEBUG_STATS_RL:               GvNm1 (DYNAMICS) mean=  7.49540686524462E-07
DEBUG_STATS_RL:               GvNm1 (DYNAMICS) S.D.=  2.58372156953829E-06
DEBUG_STATS_RL:               GtNm1 (DYNAMICS)  min= -2.70502728901489E-06
DEBUG_STATS_RL:               GtNm1 (DYNAMICS)  max=  2.28751223806369E-06
DEBUG_STATS_RL:               GtNm1 (DYNAMICS) mean=  6.54648264461895E-09
DEBUG_STATS_RL:               GtNm1 (DYNAMICS) S.D.=  1.71949096461457E-07
DEBUG_STATS_RL:               GsNm1 (DYNAMICS)  min= -3.96666604454991E-07
DEBUG_STATS_RL:               GsNm1 (DYNAMICS)  max=  3.35856220597862E-07
DEBUG_STATS_RL:               GsNm1 (DYNAMICS) mean=  2.61346303993961E-10
DEBUG_STATS_RL:               GsNm1 (DYNAMICS) S.D.=  1.72340483293220E-08
DEBUG_STATS_RL:    cg2d_b (SOLVE_FOR_PRESSURE)  min= -1.90661495554856E+04
DEBUG_STATS_RL:    cg2d_b (SOLVE_FOR_PRESSURE)  max=  2.42698522668276E+04
DEBUG_STATS_RL:    cg2d_b (SOLVE_FOR_PRESSURE) mean=  3.41749723566486E+00
DEBUG_STATS_RL:    cg2d_b (SOLVE_FOR_PRESSURE) S.D.=  3.62498287192731E+03
 cg2d: Sum(rhs),rhsMax =   3.25980810001776E-01  1.59410887761171E+00
(PID.TID 0000.0001)  cg2d: iter=     1 ; resid.=  8.38135130396865E-02
(PID.TID 0000.0001)  cg2d: iter=     2 ; resid.=  4.14898433973875E-02
(PID.TID 0000.0001)  cg2d: iter=     3 ; resid.=  3.66866391170515E-02
(PID.TID 0000.0001)  cg2d: iter=     4 ; resid.=  3.57933493955383E-02
(PID.TID 0000.0001)  cg2d: iter=     5 ; resid.=  3.22787682310203E-02
(PID.TID 0000.0001)  cg2d: iter=     6 ; resid.=  2.77997225876527E-02
(PID.TID 0000.0001)  cg2d: iter=     7 ; resid.=  2.23712758292253E-02
(PID.TID 0000.0001)  cg2d: iter=     8 ; resid.=  2.04273831063920E-02
(PID.TID 0000.0001)  cg2d: iter=     9 ; resid.=  1.90098923251710E-02
(PID.TID 0000.0001)  cg2d: iter=    10 ; resid.=  1.71599014304850E-02
(PID.TID 0000.0001)  cg2d: iter=    11 ; resid.=  1.50927813779166E-02
(PID.TID 0000.0001)  cg2d: iter=    12 ; resid.=  1.26226973377279E-02
(PID.TID 0000.0001)  cg2d: iter=    13 ; resid.=  9.61920179851542E-03
(PID.TID 0000.0001)  cg2d: iter=    14 ; resid.=  7.42919531748535E-03
(PID.TID 0000.0001)  cg2d: iter=    15 ; resid.=  6.61506797006818E-03
(PID.TID 0000.0001)  cg2d: iter=    16 ; resid.=  5.55352517119072E-03
(PID.TID 0000.0001)  cg2d: iter=    17 ; resid.=  4.75318585242518E-03
(PID.TID 0000.0001)  cg2d: iter=    18 ; resid.=  3.81938415624051E-03
(PID.TID 0000.0001)  cg2d: iter=    19 ; resid.=  3.24143176614946E-03
(PID.TID 0000.0001)  cg2d: iter=    20 ; resid.=  2.57636830427952E-03
(PID.TID 0000.0001)  cg2d: iter=    21 ; resid.=  2.01653001607243E-03
(PID.TID 0000.0001)  cg2d: iter=    22 ; resid.=  1.77926955250249E-03
(PID.TID 0000.0001)  cg2d: iter=    23 ; resid.=  1.55526353213151E-03
(PID.TID 0000.0001)  cg2d: iter=    24 ; resid.=  1.22575799653402E-03
(PID.TID 0000.0001)  cg2d: iter=    25 ; resid.=  9.66202980811773E-04
(PID.TID 0000.0001)  cg2d: iter=    26 ; resid.=  7.99250672086403E-04
(PID.TID 0000.0001)  cg2d: iter=    27 ; resid.=  7.30925204362409E-04
(PID.TID 0000.0001)  cg2d: iter=    28 ; resid.=  6.75360083069089E-04
(PID.TID 0000.0001)  cg2d: iter=    29 ; resid.=  5.81842859357890E-04
(PID.TID 0000.0001)  cg2d: iter=    30 ; resid.=  4.47572703175610E-04
(PID.TID 0000.0001)  cg2d: iter=    31 ; resid.=  3.95772249220828E-04
(PID.TID 0000.0001)  cg2d: iter=    32 ; resid.=  3.54077798559508E-04
(PID.TID 0000.0001)  cg2d: iter=    33 ; resid.=  2.92898037586249E-04
(PID.TID 0000.0001)  cg2d: iter=    34 ; resid.=  2.31237310234845E-04
(PID.TID 0000.0001)  cg2d: iter=    35 ; resid.=  1.76274490972018E-04
(PID.TID 0000.0001)  cg2d: iter=    36 ; resid.=  1.44807193297077E-04
(PID.TID 0000.0001)  cg2d: iter=    37 ; resid.=  1.18857338425797E-04
(PID.TID 0000.0001)  cg2d: iter=    38 ; resid.=  9.62140642425631E-05
(PID.TID 0000.0001)  cg2d: iter=    39 ; resid.=  7.85468444337790E-05
(PID.TID 0000.0001)  cg2d: iter=    40 ; resid.=  7.31529529369203E-05
(PID.TID 0000.0001)  cg2d: iter=    41 ; resid.=  6.81037567076908E-05
(PID.TID 0000.0001)  cg2d: iter=    42 ; resid.=  5.73440718462683E-05
(PID.TID 0000.0001)  cg2d: iter=    43 ; resid.=  4.76861627877225E-05
(PID.TID 0000.0001)  cg2d: iter=    44 ; resid.=  4.08450541309713E-05
(PID.TID 0000.0001)  cg2d: iter=    45 ; resid.=  3.37664515564254E-05
(PID.TID 0000.0001)  cg2d: iter=    46 ; resid.=  2.53888114857659E-05
(PID.TID 0000.0001)  cg2d: iter=    47 ; resid.=  1.87422142566084E-05
(PID.TID 0000.0001)  cg2d: iter=    48 ; resid.=  1.56869784297951E-05
(PID.TID 0000.0001)  cg2d: iter=    49 ; resid.=  1.29303489152976E-05
(PID.TID 0000.0001)  cg2d: iter=    50 ; resid.=  1.06498847707492E-05
(PID.TID 0000.0001)  cg2d: iter=    51 ; resid.=  8.51811160851140E-06
(PID.TID 0000.0001)  cg2d: iter=    52 ; resid.=  6.90140995585663E-06
(PID.TID 0000.0001)  cg2d: iter=    53 ; resid.=  6.00399045022605E-06
(PID.TID 0000.0001)  cg2d: iter=    54 ; resid.=  5.10379239978360E-06
(PID.TID 0000.0001)  cg2d: iter=    55 ; resid.=  3.90635604478947E-06
(PID.TID 0000.0001)  cg2d: iter=    56 ; resid.=  3.15733435769141E-06
(PID.TID 0000.0001)  cg2d: iter=    57 ; resid.=  2.80315899715058E-06
(PID.TID 0000.0001)  cg2d: iter=    58 ; resid.=  2.35870975315159E-06
(PID.TID 0000.0001)  cg2d: iter=    59 ; resid.=  1.85213352806230E-06
(PID.TID 0000.0001)  cg2d: iter=    60 ; resid.=  1.39073632128884E-06
(PID.TID 0000.0001)  cg2d: iter=    61 ; resid.=  1.18261019550562E-06
(PID.TID 0000.0001)  cg2d: iter=    62 ; resid.=  1.04853724726526E-06
(PID.TID 0000.0001)  cg2d: iter=    63 ; resid.=  8.18975471429985E-07
(PID.TID 0000.0001)  cg2d: iter=    64 ; resid.=  6.91105686210828E-07
(PID.TID 0000.0001)  cg2d: iter=    65 ; resid.=  5.94193280737916E-07
(PID.TID 0000.0001)  cg2d: iter=    66 ; resid.=  5.06617640977638E-07
(PID.TID 0000.0001)  cg2d: iter=    67 ; resid.=  3.94758093911121E-07
(PID.TID 0000.0001)  cg2d: iter=    68 ; resid.=  3.05377164018936E-07
(PID.TID 0000.0001)  cg2d: iter=    69 ; resid.=  2.53198706635275E-07
(PID.TID 0000.0001)  cg2d: iter=    70 ; resid.=  2.32152936271875E-07
(PID.TID 0000.0001)  cg2d: iter=    71 ; resid.=  1.93157426492009E-07
(PID.TID 0000.0001)  cg2d: iter=    72 ; resid.=  1.52181188250747E-07
(PID.TID 0000.0001)  cg2d: iter=    73 ; resid.=  1.23518734746029E-07
(PID.TID 0000.0001)  cg2d: iter=    74 ; resid.=  1.00916335611866E-07
(PID.TID 0000.0001)  cg2d: iter=    75 ; resid.=  8.33662416431760E-08
(PID.TID 0000.0001)  cg2d: iter=    76 ; resid.=  6.97529035440598E-08
(PID.TID 0000.0001)  cg2d: iter=    77 ; resid.=  5.78187407387686E-08
(PID.TID 0000.0001)  cg2d: iter=    78 ; resid.=  4.79932164046037E-08
(PID.TID 0000.0001)  cg2d: iter=    79 ; resid.=  3.95506120446037E-08
(PID.TID 0000.0001)  cg2d: iter=    80 ; resid.=  3.31300273433786E-08
(PID.TID 0000.0001)  cg2d: iter=    81 ; resid.=  2.70897197539183E-08
(PID.TID 0000.0001)  cg2d: iter=    82 ; resid.=  2.07159874876980E-08
(PID.TID 0000.0001)  cg2d: iter=    83 ; resid.=  1.57413920638125E-08
(PID.TID 0000.0001)  cg2d: iter=    84 ; resid.=  1.18279572946106E-08
(PID.TID 0000.0001)  cg2d: iter=    85 ; resid.=  8.89541127824327E-09
(PID.TID 0000.0001)  cg2d: iter=    86 ; resid.=  6.52826627712162E-09
(PID.TID 0000.0001)  cg2d: iter=    87 ; resid.=  5.28776175195659E-09
(PID.TID 0000.0001)  cg2d: iter=    88 ; resid.=  4.16036996159407E-09
(PID.TID 0000.0001)  cg2d: iter=    89 ; resid.=  3.43397144990987E-09
(PID.TID 0000.0001)  cg2d: iter=    90 ; resid.=  2.85593386339252E-09
(PID.TID 0000.0001)  cg2d: iter=    91 ; resid.=  2.36173922018678E-09
(PID.TID 0000.0001)  cg2d: iter=    92 ; resid.=  1.80022715717531E-09
(PID.TID 0000.0001)  cg2d: iter=    93 ; resid.=  1.31830826379253E-09
(PID.TID 0000.0001)  cg2d: iter=    94 ; resid.=  9.94476358364051E-10
(PID.TID 0000.0001)  cg2d: iter=    95 ; resid.=  7.96978882581808E-10
(PID.TID 0000.0001)  cg2d: iter=    96 ; resid.=  6.13596411466048E-10
(PID.TID 0000.0001)  cg2d: iter=    97 ; resid.=  4.83213241222911E-10
(PID.TID 0000.0001)  cg2d: iter=    98 ; resid.=  3.95770251929370E-10
(PID.TID 0000.0001)  cg2d: iter=    99 ; resid.=  3.07926717448523E-10
(PID.TID 0000.0001)  cg2d: iter=   100 ; resid.=  2.58267331968452E-10
(PID.TID 0000.0001)  cg2d: iter=   101 ; resid.=  2.16702009877929E-10
(PID.TID 0000.0001)  cg2d: iter=   102 ; resid.=  1.77927387476247E-10
(PID.TID 0000.0001)  cg2d: iter=   103 ; resid.=  1.41029502743972E-10
(PID.TID 0000.0001)  cg2d: iter=   104 ; resid.=  1.19882052803089E-10
(PID.TID 0000.0001)  cg2d: iter=   105 ; resid.=  1.04938889430410E-10
(PID.TID 0000.0001)  cg2d: iter=   106 ; resid.=  8.68386818714857E-11
(PID.TID 0000.0001)  cg2d: iter=   107 ; resid.=  6.74000175751884E-11
(PID.TID 0000.0001)  cg2d: iter=   108 ; resid.=  5.48757277723787E-11
(PID.TID 0000.0001)  cg2d: iter=   109 ; resid.=  4.48016860543157E-11
(PID.TID 0000.0001)  cg2d: iter=   110 ; resid.=  3.65648449883213E-11
(PID.TID 0000.0001)  cg2d: iter=   111 ; resid.=  2.74035672848461E-11
(PID.TID 0000.0001)  cg2d: iter=   112 ; resid.=  2.06187884631759E-11
(PID.TID 0000.0001)  cg2d: iter=   113 ; resid.=  1.52691054020673E-11
(PID.TID 0000.0001)  cg2d: iter=   114 ; resid.=  1.06854753086334E-11
(PID.TID 0000.0001)  cg2d: iter=   115 ; resid.=  7.64823182783116E-12
(PID.TID 0000.0001)  cg2d: iter=   116 ; resid.=  5.51845537522517E-12
(PID.TID 0000.0001)  cg2d: iter=   117 ; resid.=  4.39363639459362E-12
(PID.TID 0000.0001)  cg2d: iter=   118 ; resid.=  3.50529072751006E-12
(PID.TID 0000.0001)  cg2d: iter=   119 ; resid.=  2.84319479430175E-12
(PID.TID 0000.0001)  cg2d: iter=   120 ; resid.=  2.23714035268035E-12
(PID.TID 0000.0001)  cg2d: iter=   121 ; resid.=  1.66696508537092E-12
(PID.TID 0000.0001)  cg2d: iter=   122 ; resid.=  1.23993402541713E-12
(PID.TID 0000.0001)  cg2d: iter=   123 ; resid.=  9.80844837190242E-13
(PID.TID 0000.0001)  cg2d: iter=   124 ; resid.=  7.66260450764868E-13
(PID.TID 0000.0001)  cg2d: iter=   125 ; resid.=  5.71521603183980E-13
(PID.TID 0000.0001)  cg2d: iter=   126 ; resid.=  4.16111010762262E-13
(PID.TID 0000.0001)  cg2d: iter=   127 ; resid.=  2.83979788334838E-13
(PID.TID 0000.0001)  cg2d: iter=   128 ; resid.=  1.88310579003209E-13
(PID.TID 0000.0001)  cg2d: iter=   129 ; resid.=  1.35504615347869E-13
(PID.TID 0000.0001)  cg2d: iter=   130 ; resid.=  1.04222880327341E-13
(PID.TID 0000.0001)  cg2d: iter=   131 ; resid.=  8.00666029906521E-14
DEBUG_STATS_RL:    cg2d_x (SOLVE_FOR_PRESSURE)  min= -1.71286892303397E+01
DEBUG_STATS_RL:    cg2d_x (SOLVE_FOR_PRESSURE)  max=  7.63480430247414E+00
DEBUG_STATS_RL:    cg2d_x (SOLVE_FOR_PRESSURE) mean= -1.68710934985863E+00
DEBUG_STATS_RL:    cg2d_x (SOLVE_FOR_PRESSURE) S.D.=  6.52403390653262E+00
(PID.TID 0000.0001)      cg2d_init_res =   3.09756684145709E-01
(PID.TID 0000.0001)      cg2d_iters(min,last) =      -1     131
(PID.TID 0000.0001)      cg2d_last_res =   8.00666029906521E-14
(PID.TID 0000.0001) // =======================================================
(PID.TID 0000.0001) // Begin MONITOR dynamic field statistics
(PID.TID 0000.0001) // =======================================================
(PID.TID 0000.0001) %MON time_tsnumber                =                    47
(PID.TID 0000.0001) %MON time_secondsf                =   4.0608000000000E+06
(PID.TID 0000.0001) %MON dynstat_eta_max              =   7.7826751299432E-01
(PID.TID 0000.0001) %MON dynstat_eta_min              =  -1.7460437543669E+00
(PID.TID 0000.0001) %MON dynstat_eta_mean             =  -3.5657346097495E-03
(PID.TID 0000.0001) %MON dynstat_eta_sd               =   5.7225160698654E-01
(PID.TID 0000.0001) %MON dynstat_eta_del2             =   2.2073310316885E-03
(PID.TID 0000.0001) %MON dynstat_uvel_max             =   1.7291045034639E-01
(PID.TID 0000.0001) %MON dynstat_uvel_min             =  -1.3378778540831E-01
(PID.TID 0000.0001) %MON dynstat_uvel_mean            =   1.8378195039892E-03
(PID.TID 0000.0001) %MON dynstat_uvel_sd              =   1.4500303051457E-02
(PID.TID 0000.0001) %MON dynstat_uvel_del2            =   8.6284792287510E-05
(PID.TID 0000.0001) %MON dynstat_vvel_max             =   1.2460975199765E-01
(PID.TID 0000.0001) %MON dynstat_vvel_min             =  -1.0555441349829E-01
(PID.TID 0000.0001) %MON dynstat_vvel_mean            =   5.8764493039641E-05
(PID.TID 0000.0001) %MON dynstat_vvel_sd              =   8.5500158580520E-03
(PID.TID 0000.0001) %MON dynstat_vvel_del2            =   7.4782521434237E-05
(PID.TID 0000.0001) %MON dynstat_wvel_max             =   1.2772554101498E-04
(PID.TID 0000.0001) %MON dynstat_wvel_min             =  -9.0807463027660E-05
(PID.TID 0000.0001) %MON dynstat_wvel_mean            =   1.2969683044347E-22
(PID.TID 0000.0001) %MON dynstat_wvel_sd              =   1.2703782413115E-05
(PID.TID 0000.0001) %MON dynstat_wvel_del2            =   1.2880406291927E-07
(PID.TID 0000.0001) %MON dynstat_theta_max            =   2.9934152777968E+01
(PID.TID 0000.0001) %MON dynstat_theta_min            =  -1.9574271446952E+00
(PID.TID 0000.0001) %MON dynstat_theta_mean           =   3.6206716369759E+00
(PID.TID 0000.0001) %MON dynstat_theta_sd             =   4.4178387709348E+00
(PID.TID 0000.0001) %MON dynstat_theta_del2           =   4.6451812217807E-03
(PID.TID 0000.0001) %MON dynstat_salt_max             =   3.7452376471246E+01
(PID.TID 0000.0001) %MON dynstat_salt_min             =   2.9822646390904E+01
(PID.TID 0000.0001) %MON dynstat_salt_mean            =   3.4717285674566E+01
(PID.TID 0000.0001) %MON dynstat_salt_sd              =   2.9619965935494E-01
(PID.TID 0000.0001) %MON dynstat_salt_del2            =   9.7066412330091E-04
(PID.TID 0000.0001) %MON dynstat_sst_max              =   2.9934152777968E+01
(PID.TID 0000.0001) %MON dynstat_sst_min              =  -1.9574271446952E+00
(PID.TID 0000.0001) %MON dynstat_sst_mean             =   1.8762586758207E+01
(PID.TID 0000.0001) %MON dynstat_sst_sd               =   9.0830464552503E+00
(PID.TID 0000.0001) %MON dynstat_sst_del2             =   2.4752959831045E-02
(PID.TID 0000.0001) %MON dynstat_sss_max              =   3.7397783310029E+01
(PID.TID 0000.0001) %MON dynstat_sss_min              =   2.9822646390904E+01
(PID.TID 0000.0001) %MON dynstat_sss_mean             =   3.4843503607429E+01
(PID.TID 0000.0001) %MON dynstat_sss_sd               =   9.7536134564704E-01
(PID.TID 0000.0001) %MON dynstat_sss_del2             =   7.6366328330350E-03
(PID.TID 0000.0001) %MON forcing_qnet_max             =   3.5565408833822E+02
(PID.TID 0000.0001) %MON forcing_qnet_min             =  -1.7253468983968E+02
(PID.TID 0000.0001) %MON forcing_qnet_mean            =  -1.3741911479317E+01
(PID.TID 0000.0001) %MON forcing_qnet_sd              =   7.8173808417116E+01
(PID.TID 0000.0001) %MON forcing_qnet_del2            =   9.4361086901404E-01
(PID.TID 0000.0001) %MON forcing_qsw_max              =   0.0000000000000E+00
(PID.TID 0000.0001) %MON forcing_qsw_min              =   0.0000000000000E+00
(PID.TID 0000.0001) %MON forcing_qsw_mean             =   0.0000000000000E+00
(PID.TID 0000.0001) %MON forcing_qsw_sd               =   0.0000000000000E+00
(PID.TID 0000.0001) %MON forcing_qsw_del2             =   0.0000000000000E+00
(PID.TID 0000.0001) %MON forcing_empmr_max            =   7.1917854664131E-05
(PID.TID 0000.0001) %MON forcing_empmr_min            =  -7.7443707032406E-05
(PID.TID 0000.0001) %MON forcing_empmr_mean           =   9.3031904903503E-07
(PID.TID 0000.0001) %MON forcing_empmr_sd             =   2.7892298564578E-05
(PID.TID 0000.0001) %MON forcing_empmr_del2           =   3.5549806318694E-07
(PID.TID 0000.0001) %MON forcing_fu_max               =   3.0595987737179E-01
(PID.TID 0000.0001) %MON forcing_fu_min               =  -2.2111698041360E-01
(PID.TID 0000.0001) %MON forcing_fu_mean              =   1.7724941206094E-02
(PID.TID 0000.0001) %MON forcing_fu_sd                =   9.3018818826085E-02
(PID.TID 0000.0001) %MON forcing_fu_del2              =   7.3973840042027E-04
(PID.TID 0000.0001) %MON forcing_fv_max               =   1.9589827271799E-01
(PID.TID 0000.0001) %MON forcing_fv_min               =  -1.9819321930408E-01
(PID.TID 0000.0001) %MON forcing_fv_mean              =  -7.2271532909298E-03
(PID.TID 0000.0001) %MON forcing_fv_sd                =   4.4730626914368E-02
(PID.TID 0000.0001) %MON forcing_fv_del2              =   5.3371170048375E-04
(PID.TID 0000.0001) %MON trAdv_CFL_u_max              =   4.8581266630437E-02
(PID.TID 0000.0001) %MON trAdv_CFL_v_max              =   2.7879990258231E-02
(PID.TID 0000.0001) %MON trAdv_CFL_w_max              =   3.2531837091999E-02
(PID.TID 0000.0001) %MON advcfl_uvel_max              =   4.7044413581849E-02
(PID.TID 0000.0001) %MON advcfl_vvel_max              =   2.4209676312993E-02
(PID.TID 0000.0001) %MON advcfl_wvel_max              =   4.0671221913979E-02
(PID.TID 0000.0001) %MON advcfl_W_hf_max              =   4.9386483752688E-02
(PID.TID 0000.0001) %MON pe_b_mean                    =   4.1905603902708E-04
(PID.TID 0000.0001) %MON ke_max                       =   1.5342819638344E-02
(PID.TID 0000.0001) %MON ke_mean                      =   1.2987882434547E-04
(PID.TID 0000.0001) %MON ke_vol                       =   1.3226782436723E+18
(PID.TID 0000.0001) %MON vort_r_min                   =  -4.8842875198073E-07
(PID.TID 0000.0001) %MON vort_r_max                   =   3.9464117836792E-07
(PID.TID 0000.0001) %MON vort_a_mean                  =  -2.5274807192680E-05
(PID.TID 0000.0001) %MON vort_a_sd                    =   7.3604603090704E-05
(PID.TID 0000.0001) %MON vort_p_mean                  =  -3.1845655541466E-05
(PID.TID 0000.0001) %MON vort_p_sd                    =   1.3162435579527E-04
(PID.TID 0000.0001) %MON surfExpan_theta_mean         =   1.9472556346306E-07
(PID.TID 0000.0001) %MON surfExpan_salt_mean          =   1.9805759895897E-08
(PID.TID 0000.0001) // =======================================================
(PID.TID 0000.0001) // End MONITOR dynamic field statistics
(PID.TID 0000.0001) // =======================================================
 EXTERNAL_FIELDS_LOAD,        47 : iP,iLd,i0,i1=    2    3    2    3 ; Wght=  0.9333333333  0.0666666667
 EXTERNAL_FIELDS_LOAD: (fu0,1),fu,fv= -1.4435E-02 -2.7199E-02 -1.5286E-02 -1.6498E-02
 EXTERNAL_FIELDS_LOAD: SST,SSS,Q,E-P= -5.0866E-01  3.4432E+01  2.3881E+02  8.4241E-06
DEBUG_STATS_RL:          Uvel (THERMODYNAMICS)  min= -1.33787785408308E-01
DEBUG_STATS_RL:          Uvel (THERMODYNAMICS)  max=  1.72910450346393E-01
DEBUG_STATS_RL:          Uvel (THERMODYNAMICS) mean=  5.18201275835824E-03
DEBUG_STATS_RL:          Uvel (THERMODYNAMICS) S.D.=  2.42771976057919E-02
DEBUG_STATS_RL:          Vvel (THERMODYNAMICS)  min= -1.05554413498294E-01
DEBUG_STATS_RL:          Vvel (THERMODYNAMICS)  max=  1.24609751997652E-01
DEBUG_STATS_RL:          Vvel (THERMODYNAMICS) mean=  1.25329719212361E-03
DEBUG_STATS_RL:          Vvel (THERMODYNAMICS) S.D.=  1.38895171370192E-02
DEBUG_STATS_RL:          Wvel (THERMODYNAMICS)  min= -9.08074630276599E-05
DEBUG_STATS_RL:          Wvel (THERMODYNAMICS)  max=  1.27725541014976E-04
DEBUG_STATS_RL:          Wvel (THERMODYNAMICS) mean= -5.04358276877572E-08
DEBUG_STATS_RL:          Wvel (THERMODYNAMICS) S.D.=  1.12287695310606E-05
DEBUG_STATS_RL:         Theta (THERMODYNAMICS)  min= -1.95575264113514E+00
DEBUG_STATS_RL:         Theta (THERMODYNAMICS)  max=  2.99358537588381E+01
DEBUG_STATS_RL:         Theta (THERMODYNAMICS) mean=  3.21113742586406E+00
DEBUG_STATS_RL:         Theta (THERMODYNAMICS) S.D.=  5.86149742136501E+00
DEBUG_STATS_RL:          Salt (THERMODYNAMICS)  min= -6.86242378085645E-04
DEBUG_STATS_RL:          Salt (THERMODYNAMICS)  max=  3.74526898943994E+01
DEBUG_STATS_RL:          Salt (THERMODYNAMICS) mean=  1.88442077425436E+01
DEBUG_STATS_RL:          Salt (THERMODYNAMICS) S.D.=  1.73004087035716E+01
DEBUG_STATS_RL:         GtNm1 (THERMODYNAMICS)  min= -2.75036129414971E-06
DEBUG_STATS_RL:         GtNm1 (THERMODYNAMICS)  max=  2.40778663950105E-06
DEBUG_STATS_RL:         GtNm1 (THERMODYNAMICS) mean=  5.41625289328568E-09
DEBUG_STATS_RL:         GtNm1 (THERMODYNAMICS) S.D.=  1.71194386856079E-07
DEBUG_STATS_RL:         GsNm1 (THERMODYNAMICS)  min= -4.04359513937679E-07
DEBUG_STATS_RL:         GsNm1 (THERMODYNAMICS)  max=  3.63803302859827E-07
DEBUG_STATS_RL:         GsNm1 (THERMODYNAMICS) mean=  2.40069512411430E-10
DEBUG_STATS_RL:         GsNm1 (THERMODYNAMICS) S.D.=  1.71851490191284E-08
DEBUG_STATS_RL:                EtaN (DYNAMICS)  min= -1.74604375436690E+00
DEBUG_STATS_RL:                EtaN (DYNAMICS)  max=  7.78267512994318E-01
DEBUG_STATS_RL:                EtaN (DYNAMICS) mean= -1.71978526998842E-01
DEBUG_STATS_RL:                EtaN (DYNAMICS) S.D.=  6.65039134203118E-01
DEBUG_STATS_RL:                Uvel (DYNAMICS)  min= -1.33787785408308E-01
DEBUG_STATS_RL:                Uvel (DYNAMICS)  max=  1.72910450346393E-01
DEBUG_STATS_RL:                Uvel (DYNAMICS) mean=  5.18201275835824E-03
DEBUG_STATS_RL:                Uvel (DYNAMICS) S.D.=  2.42771976057919E-02
DEBUG_STATS_RL:                Vvel (DYNAMICS)  min= -1.05554413498294E-01
DEBUG_STATS_RL:                Vvel (DYNAMICS)  max=  1.24609751997652E-01
DEBUG_STATS_RL:                Vvel (DYNAMICS) mean=  1.25329719212361E-03
DEBUG_STATS_RL:                Vvel (DYNAMICS) S.D.=  1.38895171370192E-02
DEBUG_STATS_RL:                Wvel (DYNAMICS)  min= -9.08074630276599E-05
DEBUG_STATS_RL:                Wvel (DYNAMICS)  max=  1.27725541014976E-04
DEBUG_STATS_RL:                Wvel (DYNAMICS) mean= -5.04358276877572E-08
DEBUG_STATS_RL:                Wvel (DYNAMICS) S.D.=  1.12287695310606E-05
DEBUG_STATS_RL:               Theta (DYNAMICS)  min= -1.95575264113514E+00
DEBUG_STATS_RL:               Theta (DYNAMICS)  max=  2.99358537588381E+01
DEBUG_STATS_RL:               Theta (DYNAMICS) mean=  3.21113742586406E+00
DEBUG_STATS_RL:               Theta (DYNAMICS) S.D.=  5.86149742136501E+00
DEBUG_STATS_RL:                Salt (DYNAMICS)  min= -6.86242378085645E-04
DEBUG_STATS_RL:                Salt (DYNAMICS)  max=  3.74526898943994E+01
DEBUG_STATS_RL:                Salt (DYNAMICS) mean=  1.88442077425436E+01
DEBUG_STATS_RL:                Salt (DYNAMICS) S.D.=  1.73004087035716E+01
DEBUG_STATS_RL:                  Gu (DYNAMICS)  min= -1.31984644292044E-01
DEBUG_STATS_RL:                  Gu (DYNAMICS)  max=  1.81816798477789E-01
DEBUG_STATS_RL:                  Gu (DYNAMICS) mean=  5.11963414565967E-03
DEBUG_STATS_RL:                  Gu (DYNAMICS) S.D.=  2.44832814114182E-02
DEBUG_STATS_RL:                  Gv (DYNAMICS)  min= -1.00716002536754E-01
DEBUG_STATS_RL:                  Gv (DYNAMICS)  max=  1.29053987599671E-01
DEBUG_STATS_RL:                  Gv (DYNAMICS) mean=  3.85621715188731E-03
DEBUG_STATS_RL:                  Gv (DYNAMICS) S.D.=  1.51198418173191E-02
DEBUG_STATS_RL:               GuNm1 (DYNAMICS)  min= -9.02859627744432E-06
DEBUG_STATS_RL:               GuNm1 (DYNAMICS)  max=  8.73711308893298E-06
DEBUG_STATS_RL:               GuNm1 (DYNAMICS) mean= -1.26040667341091E-08
DEBUG_STATS_RL:               GuNm1 (DYNAMICS) S.D.=  1.16958267595266E-06
DEBUG_STATS_RL:               GvNm1 (DYNAMICS)  min= -9.57529632079804E-06
DEBUG_STATS_RL:               GvNm1 (DYNAMICS)  max=  1.63780037529515E-05
DEBUG_STATS_RL:               GvNm1 (DYNAMICS) mean=  7.49295282437140E-07
DEBUG_STATS_RL:               GvNm1 (DYNAMICS) S.D.=  2.58625912974071E-06
DEBUG_STATS_RL:               GtNm1 (DYNAMICS)  min= -2.75036129414971E-06
DEBUG_STATS_RL:               GtNm1 (DYNAMICS)  max=  2.40778663950105E-06
DEBUG_STATS_RL:               GtNm1 (DYNAMICS) mean=  5.41625289328568E-09
DEBUG_STATS_RL:               GtNm1 (DYNAMICS) S.D.=  1.71194386856079E-07
DEBUG_STATS_RL:               GsNm1 (DYNAMICS)  min= -4.04359513937679E-07
DEBUG_STATS_RL:               GsNm1 (DYNAMICS)  max=  3.63803302859827E-07
DEBUG_STATS_RL:               GsNm1 (DYNAMICS) mean=  2.40069512411430E-10
DEBUG_STATS_RL:               GsNm1 (DYNAMICS) S.D.=  1.71851490191284E-08
DEBUG_STATS_RL:    cg2d_b (SOLVE_FOR_PRESSURE)  min= -1.92601453954136E+04
DEBUG_STATS_RL:    cg2d_b (SOLVE_FOR_PRESSURE)  max=  2.47005315738068E+04
DEBUG_STATS_RL:    cg2d_b (SOLVE_FOR_PRESSURE) mean=  3.49088275661218E+00
DEBUG_STATS_RL:    cg2d_b (SOLVE_FOR_PRESSURE) S.D.=  3.64151769613460E+03
 cg2d: Sum(rhs),rhsMax =   3.27174885180453E-01  1.62239704760596E+00
(PID.TID 0000.0001)  cg2d: iter=     1 ; resid.=  8.24010443879901E-02
(PID.TID 0000.0001)  cg2d: iter=     2 ; resid.=  4.13874679699684E-02
(PID.TID 0000.0001)  cg2d: iter=     3 ; resid.=  3.70212342429646E-02
(PID.TID 0000.0001)  cg2d: iter=     4 ; resid.=  3.71204961307719E-02
(PID.TID 0000.0001)  cg2d: iter=     5 ; resid.=  3.41743794610590E-02
(PID.TID 0000.0001)  cg2d: iter=     6 ; resid.=  2.98417675577474E-02
(PID.TID 0000.0001)  cg2d: iter=     7 ; resid.=  2.44222488739656E-02
(PID.TID 0000.0001)  cg2d: iter=     8 ; resid.=  2.17883359639440E-02
(PID.TID 0000.0001)  cg2d: iter=     9 ; resid.=  1.97227734811257E-02
(PID.TID 0000.0001)  cg2d: iter=    10 ; resid.=  1.76113347357802E-02
(PID.TID 0000.0001)  cg2d: iter=    11 ; resid.=  1.52093880719000E-02
(PID.TID 0000.0001)  cg2d: iter=    12 ; resid.=  1.24739112904954E-02
(PID.TID 0000.0001)  cg2d: iter=    13 ; resid.=  9.34374573295605E-03
(PID.TID 0000.0001)  cg2d: iter=    14 ; resid.=  7.28272871962675E-03
(PID.TID 0000.0001)  cg2d: iter=    15 ; resid.=  6.59762226358577E-03
(PID.TID 0000.0001)  cg2d: iter=    16 ; resid.=  5.48301557826593E-03
(PID.TID 0000.0001)  cg2d: iter=    17 ; resid.=  4.60143265213182E-03
(PID.TID 0000.0001)  cg2d: iter=    18 ; resid.=  3.74845152987913E-03
(PID.TID 0000.0001)  cg2d: iter=    19 ; resid.=  3.28134841772726E-03
(PID.TID 0000.0001)  cg2d: iter=    20 ; resid.=  2.65793094287559E-03
(PID.TID 0000.0001)  cg2d: iter=    21 ; resid.=  2.08541550464605E-03
(PID.TID 0000.0001)  cg2d: iter=    22 ; resid.=  1.85499189001009E-03
(PID.TID 0000.0001)  cg2d: iter=    23 ; resid.=  1.64269967597403E-03
(PID.TID 0000.0001)  cg2d: iter=    24 ; resid.=  1.28567790320396E-03
(PID.TID 0000.0001)  cg2d: iter=    25 ; resid.=  1.00739365061415E-03
(PID.TID 0000.0001)  cg2d: iter=    26 ; resid.=  8.48159088630973E-04
(PID.TID 0000.0001)  cg2d: iter=    27 ; resid.=  7.85804654079729E-04
(PID.TID 0000.0001)  cg2d: iter=    28 ; resid.=  7.16963382289769E-04
(PID.TID 0000.0001)  cg2d: iter=    29 ; resid.=  6.06931152066672E-04
(PID.TID 0000.0001)  cg2d: iter=    30 ; resid.=  4.58824530313384E-04
(PID.TID 0000.0001)  cg2d: iter=    31 ; resid.=  3.95119165365996E-04
(PID.TID 0000.0001)  cg2d: iter=    32 ; resid.=  3.42414672065548E-04
(PID.TID 0000.0001)  cg2d: iter=    33 ; resid.=  2.74197960229874E-04
(PID.TID 0000.0001)  cg2d: iter=    34 ; resid.=  2.15285088496158E-04
(PID.TID 0000.0001)  cg2d: iter=    35 ; resid.=  1.63300938487570E-04
(PID.TID 0000.0001)  cg2d: iter=    36 ; resid.=  1.34516953484139E-04
(PID.TID 0000.0001)  cg2d: iter=    37 ; resid.=  1.13883416562487E-04
(PID.TID 0000.0001)  cg2d: iter=    38 ; resid.=  9.62813444495759E-05
(PID.TID 0000.0001)  cg2d: iter=    39 ; resid.=  8.14334417093444E-05
(PID.TID 0000.0001)  cg2d: iter=    40 ; resid.=  7.71885944538600E-05
(PID.TID 0000.0001)  cg2d: iter=    41 ; resid.=  7.21558262743151E-05
(PID.TID 0000.0001)  cg2d: iter=    42 ; resid.=  6.32982359014984E-05
(PID.TID 0000.0001)  cg2d: iter=    43 ; resid.=  5.45976850228647E-05
(PID.TID 0000.0001)  cg2d: iter=    44 ; resid.=  4.54881462852406E-05
(PID.TID 0000.0001)  cg2d: iter=    45 ; resid.=  3.62927772538600E-05
(PID.TID 0000.0001)  cg2d: iter=    46 ; resid.=  2.70427860718753E-05
(PID.TID 0000.0001)  cg2d: iter=    47 ; resid.=  1.98947058115712E-05
(PID.TID 0000.0001)  cg2d: iter=    48 ; resid.=  1.62591777123157E-05
(PID.TID 0000.0001)  cg2d: iter=    49 ; resid.=  1.29314148598621E-05
(PID.TID 0000.0001)  cg2d: iter=    50 ; resid.=  1.05840803290813E-05
(PID.TID 0000.0001)  cg2d: iter=    51 ; resid.=  8.61697759264712E-06
(PID.TID 0000.0001)  cg2d: iter=    52 ; resid.=  6.83201161998474E-06
(PID.TID 0000.0001)  cg2d: iter=    53 ; resid.=  5.60153929289488E-06
(PID.TID 0000.0001)  cg2d: iter=    54 ; resid.=  4.50544215197174E-06
(PID.TID 0000.0001)  cg2d: iter=    55 ; resid.=  3.35115362249500E-06
(PID.TID 0000.0001)  cg2d: iter=    56 ; resid.=  2.61517936877785E-06
(PID.TID 0000.0001)  cg2d: iter=    57 ; resid.=  2.17062082890503E-06
(PID.TID 0000.0001)  cg2d: iter=    58 ; resid.=  1.74935492452031E-06
(PID.TID 0000.0001)  cg2d: iter=    59 ; resid.=  1.38602583477862E-06
(PID.TID 0000.0001)  cg2d: iter=    60 ; resid.=  1.05294065358876E-06
(PID.TID 0000.0001)  cg2d: iter=    61 ; resid.=  8.89293339197183E-07
(PID.TID 0000.0001)  cg2d: iter=    62 ; resid.=  7.91433774229988E-07
(PID.TID 0000.0001)  cg2d: iter=    63 ; resid.=  6.26087956468127E-07
(PID.TID 0000.0001)  cg2d: iter=    64 ; resid.=  5.37857675964439E-07
(PID.TID 0000.0001)  cg2d: iter=    65 ; resid.=  4.75589300458730E-07
(PID.TID 0000.0001)  cg2d: iter=    66 ; resid.=  4.12047389188652E-07
(PID.TID 0000.0001)  cg2d: iter=    67 ; resid.=  3.22713603189266E-07
(PID.TID 0000.0001)  cg2d: iter=    68 ; resid.=  2.48036121987989E-07
(PID.TID 0000.0001)  cg2d: iter=    69 ; resid.=  2.00299269588296E-07
(PID.TID 0000.0001)  cg2d: iter=    70 ; resid.=  1.77702497691981E-07
(PID.TID 0000.0001)  cg2d: iter=    71 ; resid.=  1.47020743770737E-07
(PID.TID 0000.0001)  cg2d: iter=    72 ; resid.=  1.18736743397387E-07
(PID.TID 0000.0001)  cg2d: iter=    73 ; resid.=  9.65365075536320E-08
(PID.TID 0000.0001)  cg2d: iter=    74 ; resid.=  7.71625491384269E-08
(PID.TID 0000.0001)  cg2d: iter=    75 ; resid.=  6.44915255450818E-08
(PID.TID 0000.0001)  cg2d: iter=    76 ; resid.=  5.58819732653142E-08
(PID.TID 0000.0001)  cg2d: iter=    77 ; resid.=  4.65897897658581E-08
(PID.TID 0000.0001)  cg2d: iter=    78 ; resid.=  3.71834349586988E-08
(PID.TID 0000.0001)  cg2d: iter=    79 ; resid.=  2.95022637214603E-08
(PID.TID 0000.0001)  cg2d: iter=    80 ; resid.=  2.51416313980790E-08
(PID.TID 0000.0001)  cg2d: iter=    81 ; resid.=  2.14259517506613E-08
(PID.TID 0000.0001)  cg2d: iter=    82 ; resid.=  1.63810795996407E-08
(PID.TID 0000.0001)  cg2d: iter=    83 ; resid.=  1.23851774889806E-08
(PID.TID 0000.0001)  cg2d: iter=    84 ; resid.=  9.56827501025933E-09
(PID.TID 0000.0001)  cg2d: iter=    85 ; resid.=  7.58215677733342E-09
(PID.TID 0000.0001)  cg2d: iter=    86 ; resid.=  5.66329284979895E-09
(PID.TID 0000.0001)  cg2d: iter=    87 ; resid.=  4.56541862110943E-09
(PID.TID 0000.0001)  cg2d: iter=    88 ; resid.=  3.67505481021934E-09
(PID.TID 0000.0001)  cg2d: iter=    89 ; resid.=  3.19688685035891E-09
(PID.TID 0000.0001)  cg2d: iter=    90 ; resid.=  2.79705669852912E-09
(PID.TID 0000.0001)  cg2d: iter=    91 ; resid.=  2.38470509473022E-09
(PID.TID 0000.0001)  cg2d: iter=    92 ; resid.=  1.81008291571876E-09
(PID.TID 0000.0001)  cg2d: iter=    93 ; resid.=  1.28097449877694E-09
(PID.TID 0000.0001)  cg2d: iter=    94 ; resid.=  9.32240767404170E-10
(PID.TID 0000.0001)  cg2d: iter=    95 ; resid.=  7.49517664223708E-10
(PID.TID 0000.0001)  cg2d: iter=    96 ; resid.=  5.84437937653830E-10
(PID.TID 0000.0001)  cg2d: iter=    97 ; resid.=  4.53463368893820E-10
(PID.TID 0000.0001)  cg2d: iter=    98 ; resid.=  3.71226536779391E-10
(PID.TID 0000.0001)  cg2d: iter=    99 ; resid.=  3.05432244330842E-10
(PID.TID 0000.0001)  cg2d: iter=   100 ; resid.=  2.76684476208520E-10
(PID.TID 0000.0001)  cg2d: iter=   101 ; resid.=  2.46489331200390E-10
(PID.TID 0000.0001)  cg2d: iter=   102 ; resid.=  2.00287744015232E-10
(PID.TID 0000.0001)  cg2d: iter=   103 ; resid.=  1.51486411291499E-10
(PID.TID 0000.0001)  cg2d: iter=   104 ; resid.=  1.21579845813500E-10
(PID.TID 0000.0001)  cg2d: iter=   105 ; resid.=  1.03551241867514E-10
(PID.TID 0000.0001)  cg2d: iter=   106 ; resid.=  8.38188477778357E-11
(PID.TID 0000.0001)  cg2d: iter=   107 ; resid.=  6.21883597537112E-11
(PID.TID 0000.0001)  cg2d: iter=   108 ; resid.=  4.80266510136271E-11
(PID.TID 0000.0001)  cg2d: iter=   109 ; resid.=  3.86513283220517E-11
(PID.TID 0000.0001)  cg2d: iter=   110 ; resid.=  3.26240245589525E-11
(PID.TID 0000.0001)  cg2d: iter=   111 ; resid.=  2.44236597695133E-11
(PID.TID 0000.0001)  cg2d: iter=   112 ; resid.=  1.82874040188416E-11
(PID.TID 0000.0001)  cg2d: iter=   113 ; resid.=  1.40182064457709E-11
(PID.TID 0000.0001)  cg2d: iter=   114 ; resid.=  1.03139899664393E-11
(PID.TID 0000.0001)  cg2d: iter=   115 ; resid.=  7.56979641293760E-12
(PID.TID 0000.0001)  cg2d: iter=   116 ; resid.=  5.46141945651698E-12
(PID.TID 0000.0001)  cg2d: iter=   117 ; resid.=  4.29120590679805E-12
(PID.TID 0000.0001)  cg2d: iter=   118 ; resid.=  3.45478174840441E-12
(PID.TID 0000.0001)  cg2d: iter=   119 ; resid.=  2.89288615072749E-12
(PID.TID 0000.0001)  cg2d: iter=   120 ; resid.=  2.28573674907931E-12
(PID.TID 0000.0001)  cg2d: iter=   121 ; resid.=  1.64084126244632E-12
(PID.TID 0000.0001)  cg2d: iter=   122 ; resid.=  1.16731343934427E-12
(PID.TID 0000.0001)  cg2d: iter=   123 ; resid.=  9.13127933497922E-13
(PID.TID 0000.0001)  cg2d: iter=   124 ; resid.=  7.23786264257630E-13
(PID.TID 0000.0001)  cg2d: iter=   125 ; resid.=  5.46822029322199E-13
(PID.TID 0000.0001)  cg2d: iter=   126 ; resid.=  3.95416496403872E-13
(PID.TID 0000.0001)  cg2d: iter=   127 ; resid.=  2.69239001878717E-13
(PID.TID 0000.0001)  cg2d: iter=   128 ; resid.=  1.76061245953890E-13
(PID.TID 0000.0001)  cg2d: iter=   129 ; resid.=  1.24856642185432E-13
(PID.TID 0000.0001)  cg2d: iter=   130 ; resid.=  9.60492303531187E-14
DEBUG_STATS_RL:    cg2d_x (SOLVE_FOR_PRESSURE)  min= -1.73899700346295E+01
DEBUG_STATS_RL:    cg2d_x (SOLVE_FOR_PRESSURE)  max=  7.63853501615607E+00
DEBUG_STATS_RL:    cg2d_x (SOLVE_FOR_PRESSURE) mean= -1.69321313443520E+00
DEBUG_STATS_RL:    cg2d_x (SOLVE_FOR_PRESSURE) S.D.=  6.56874537333452E+00
(PID.TID 0000.0001)      cg2d_init_res =   3.00014243818589E-01
(PID.TID 0000.0001)      cg2d_iters(min,last) =      -1     130
(PID.TID 0000.0001)      cg2d_last_res =   9.60492303531187E-14
(PID.TID 0000.0001) // =======================================================
(PID.TID 0000.0001) // Begin MONITOR dynamic field statistics
(PID.TID 0000.0001) // =======================================================
(PID.TID 0000.0001) %MON time_tsnumber                =                    48
(PID.TID 0000.0001) %MON time_secondsf                =   4.1472000000000E+06
(PID.TID 0000.0001) %MON dynstat_eta_max              =   7.7864781000571E-01
(PID.TID 0000.0001) %MON dynstat_eta_min              =  -1.7726778832447E+00
(PID.TID 0000.0001) %MON dynstat_eta_mean             =  -3.6423033013525E-03
(PID.TID 0000.0001) %MON dynstat_eta_sd               =   5.7621061199650E-01
(PID.TID 0000.0001) %MON dynstat_eta_del2             =   2.2219809764369E-03
(PID.TID 0000.0001) %MON dynstat_uvel_max             =   1.7785127132077E-01
(PID.TID 0000.0001) %MON dynstat_uvel_min             =  -1.3217128350178E-01
(PID.TID 0000.0001) %MON dynstat_uvel_mean            =   1.8722080423319E-03
(PID.TID 0000.0001) %MON dynstat_uvel_sd              =   1.4465848559898E-02
(PID.TID 0000.0001) %MON dynstat_uvel_del2            =   8.5915310654366E-05
(PID.TID 0000.0001) %MON dynstat_vvel_max             =   1.2813618643903E-01
(PID.TID 0000.0001) %MON dynstat_vvel_min             =  -1.0269565833705E-01
(PID.TID 0000.0001) %MON dynstat_vvel_mean            =   5.2424544206210E-05
(PID.TID 0000.0001) %MON dynstat_vvel_sd              =   8.4979319828903E-03
(PID.TID 0000.0001) %MON dynstat_vvel_del2            =   7.4409120646244E-05
(PID.TID 0000.0001) %MON dynstat_wvel_max             =   1.3253971637641E-04
(PID.TID 0000.0001) %MON dynstat_wvel_min             =  -8.6878516353362E-05
(PID.TID 0000.0001) %MON dynstat_wvel_mean            =   2.5371677247334E-22
(PID.TID 0000.0001) %MON dynstat_wvel_sd              =   1.2481974185079E-05
(PID.TID 0000.0001) %MON dynstat_wvel_del2            =   1.2698711722389E-07
(PID.TID 0000.0001) %MON dynstat_theta_max            =   2.9935853758838E+01
(PID.TID 0000.0001) %MON dynstat_theta_min            =  -1.9557526411351E+00
(PID.TID 0000.0001) %MON dynstat_theta_mean           =   3.6207169412342E+00
(PID.TID 0000.0001) %MON dynstat_theta_sd             =   4.4179965077274E+00
(PID.TID 0000.0001) %MON dynstat_theta_del2           =   4.6524101846928E-03
(PID.TID 0000.0001) %MON dynstat_salt_max             =   3.7452689894399E+01
(PID.TID 0000.0001) %MON dynstat_salt_min             =   2.9825410523251E+01
(PID.TID 0000.0001) %MON dynstat_salt_mean            =   3.4717286820999E+01
(PID.TID 0000.0001) %MON dynstat_salt_sd              =   2.9620177892562E-01
(PID.TID 0000.0001) %MON dynstat_salt_del2            =   9.7061236319117E-04
(PID.TID 0000.0001) %MON dynstat_sst_max              =   2.9935853758838E+01
(PID.TID 0000.0001) %MON dynstat_sst_min              =  -1.9557526411351E+00
(PID.TID 0000.0001) %MON dynstat_sst_mean             =   1.8767485164315E+01
(PID.TID 0000.0001) %MON dynstat_sst_sd               =   9.0871029555555E+00
(PID.TID 0000.0001) %MON dynstat_sst_del2             =   2.4760173776920E-02
(PID.TID 0000.0001) %MON dynstat_sss_max              =   3.7397240967728E+01
(PID.TID 0000.0001) %MON dynstat_sss_min              =   2.9825410523251E+01
(PID.TID 0000.0001) %MON dynstat_sss_mean             =   3.4843430706671E+01
(PID.TID 0000.0001) %MON dynstat_sss_sd               =   9.7544476637650E-01
(PID.TID 0000.0001) %MON dynstat_sss_del2             =   7.6354824921693E-03
(PID.TID 0000.0001) %MON forcing_qnet_max             =   3.5285593668620E+02
(PID.TID 0000.0001) %MON forcing_qnet_min             =  -1.7223541056315E+02
(PID.TID 0000.0001) %MON forcing_qnet_mean            =  -1.3518571979690E+01
(PID.TID 0000.0001) %MON forcing_qnet_sd              =   7.6758869987334E+01
(PID.TID 0000.0001) %MON forcing_qnet_del2            =   9.3812538915250E-01
(PID.TID 0000.0001) %MON forcing_qsw_max              =   0.0000000000000E+00
(PID.TID 0000.0001) %MON forcing_qsw_min              =   0.0000000000000E+00
(PID.TID 0000.0001) %MON forcing_qsw_mean             =   0.0000000000000E+00
(PID.TID 0000.0001) %MON forcing_qsw_sd               =   0.0000000000000E+00
(PID.TID 0000.0001) %MON forcing_qsw_del2             =   0.0000000000000E+00
(PID.TID 0000.0001) %MON forcing_empmr_max            =   7.1084162319342E-05
(PID.TID 0000.0001) %MON forcing_empmr_min            =  -7.6342130010213E-05
(PID.TID 0000.0001) %MON forcing_empmr_mean           =   9.1722911816067E-07
(PID.TID 0000.0001) %MON forcing_empmr_sd             =   2.7805085834175E-05
(PID.TID 0000.0001) %MON forcing_empmr_del2           =   3.5498793147611E-07
(PID.TID 0000.0001) %MON forcing_fu_max               =   3.0728422999382E-01
(PID.TID 0000.0001) %MON forcing_fu_min               =  -2.2650160988172E-01
(PID.TID 0000.0001) %MON forcing_fu_mean              =   1.7819140795553E-02
(PID.TID 0000.0001) %MON forcing_fu_sd                =   9.3044945573839E-02
(PID.TID 0000.0001) %MON forcing_fu_del2              =   7.3292093358534E-04
(PID.TID 0000.0001) %MON forcing_fv_max               =   1.9021158044537E-01
(PID.TID 0000.0001) %MON forcing_fv_min               =  -1.9670718312263E-01
(PID.TID 0000.0001) %MON forcing_fv_mean              =  -7.2375816408993E-03
(PID.TID 0000.0001) %MON forcing_fv_sd                =   4.4424183443592E-02
(PID.TID 0000.0001) %MON forcing_fv_del2              =   5.2624207752019E-04
(PID.TID 0000.0001) %MON trAdv_CFL_u_max              =   4.7053968638714E-02
(PID.TID 0000.0001) %MON trAdv_CFL_v_max              =   2.8102708660279E-02
(PID.TID 0000.0001) %MON trAdv_CFL_w_max              =   3.4570538626882E-02
(PID.TID 0000.0001) %MON advcfl_uvel_max              =   4.6814757675255E-02
(PID.TID 0000.0001) %MON advcfl_vvel_max              =   2.4894805967744E-02
(PID.TID 0000.0001) %MON advcfl_wvel_max              =   4.2912252792501E-02
(PID.TID 0000.0001) %MON advcfl_W_hf_max              =   5.2107735533751E-02
(PID.TID 0000.0001) %MON pe_b_mean                    =   4.2487488254217E-04
(PID.TID 0000.0001) %MON ke_max                       =   1.6155550790908E-02
(PID.TID 0000.0001) %MON ke_mean                      =   1.2908442997581E-04
(PID.TID 0000.0001) %MON ke_vol                       =   1.3226782436723E+18
(PID.TID 0000.0001) %MON vort_r_min                   =  -4.8760852271308E-07
(PID.TID 0000.0001) %MON vort_r_max                   =   3.9957137524238E-07
(PID.TID 0000.0001) %MON vort_a_mean                  =  -2.5274807183987E-05
(PID.TID 0000.0001) %MON vort_a_sd                    =   7.3604605928279E-05
(PID.TID 0000.0001) %MON vort_p_mean                  =  -3.1845655530513E-05
(PID.TID 0000.0001) %MON vort_p_sd                    =   1.3162443366871E-04
(PID.TID 0000.0001) %MON surfExpan_theta_mean         =   2.4425109705244E-07
(PID.TID 0000.0001) %MON surfExpan_salt_mean          =   5.6910407794257E-09
(PID.TID 0000.0001) // =======================================================
(PID.TID 0000.0001) // End MONITOR dynamic field statistics
(PID.TID 0000.0001) // =======================================================
 EXTERNAL_FIELDS_LOAD,        48 : iP,iLd,i0,i1=    2    3    2    3 ; Wght=  0.9000000000  0.1000000000
 EXTERNAL_FIELDS_LOAD: (fu0,1),fu,fv= -1.4435E-02 -2.7199E-02 -1.5711E-02 -1.5930E-02
 EXTERNAL_FIELDS_LOAD: SST,SSS,Q,E-P= -4.9706E-01  3.4437E+01  2.3797E+02  8.4476E-06
DEBUG_STATS_RL:          Uvel (THERMODYNAMICS)  min= -1.32171283501782E-01
DEBUG_STATS_RL:          Uvel (THERMODYNAMICS)  max=  1.77851271320773E-01
DEBUG_STATS_RL:          Uvel (THERMODYNAMICS) mean=  5.24877183002782E-03
DEBUG_STATS_RL:          Uvel (THERMODYNAMICS) S.D.=  2.41323160612599E-02
DEBUG_STATS_RL:          Vvel (THERMODYNAMICS)  min= -1.02695658337052E-01
DEBUG_STATS_RL:          Vvel (THERMODYNAMICS)  max=  1.28136186439031E-01
DEBUG_STATS_RL:          Vvel (THERMODYNAMICS) mean=  1.38560269304563E-03
DEBUG_STATS_RL:          Vvel (THERMODYNAMICS) S.D.=  1.39026470364906E-02
DEBUG_STATS_RL:          Wvel (THERMODYNAMICS)  min= -8.68785163533624E-05
DEBUG_STATS_RL:          Wvel (THERMODYNAMICS)  max=  1.32539716376411E-04
DEBUG_STATS_RL:          Wvel (THERMODYNAMICS) mean= -1.39474682514354E-08
DEBUG_STATS_RL:          Wvel (THERMODYNAMICS) S.D.=  1.10639310750331E-05
DEBUG_STATS_RL:         Theta (THERMODYNAMICS)  min= -1.95409835768652E+00
DEBUG_STATS_RL:         Theta (THERMODYNAMICS)  max=  2.99367249973648E+01
DEBUG_STATS_RL:         Theta (THERMODYNAMICS) mean=  3.21126558333204E+00
DEBUG_STATS_RL:         Theta (THERMODYNAMICS) S.D.=  5.86201378463326E+00
DEBUG_STATS_RL:          Salt (THERMODYNAMICS)  min= -6.86242378085645E-04
DEBUG_STATS_RL:          Salt (THERMODYNAMICS)  max=  3.74531167499716E+01
DEBUG_STATS_RL:          Salt (THERMODYNAMICS) mean=  1.88442185326604E+01
DEBUG_STATS_RL:          Salt (THERMODYNAMICS) S.D.=  1.73004188376777E+01
DEBUG_STATS_RL:         GtNm1 (THERMODYNAMICS)  min= -2.77528858669524E-06
DEBUG_STATS_RL:         GtNm1 (THERMODYNAMICS)  max=  2.43013730057190E-06
DEBUG_STATS_RL:         GtNm1 (THERMODYNAMICS) mean=  4.27877779409334E-09
DEBUG_STATS_RL:         GtNm1 (THERMODYNAMICS) S.D.=  1.68138293331382E-07
DEBUG_STATS_RL:         GsNm1 (THERMODYNAMICS)  min= -3.77832487221017E-07
DEBUG_STATS_RL:         GsNm1 (THERMODYNAMICS)  max=  3.21477531385066E-07
DEBUG_STATS_RL:         GsNm1 (THERMODYNAMICS) mean=  2.03301016245037E-10
DEBUG_STATS_RL:         GsNm1 (THERMODYNAMICS) S.D.=  1.69818779986611E-08
DEBUG_STATS_RL:                EtaN (DYNAMICS)  min= -1.77267788324466E+00
DEBUG_STATS_RL:                EtaN (DYNAMICS)  max=  7.78647810005707E-01
DEBUG_STATS_RL:                EtaN (DYNAMICS) mean= -1.72600727261488E-01
DEBUG_STATS_RL:                EtaN (DYNAMICS) S.D.=  6.69596878015747E-01
DEBUG_STATS_RL:                Uvel (DYNAMICS)  min= -1.32171283501782E-01
DEBUG_STATS_RL:                Uvel (DYNAMICS)  max=  1.77851271320773E-01
DEBUG_STATS_RL:                Uvel (DYNAMICS) mean=  5.24877183002782E-03
DEBUG_STATS_RL:                Uvel (DYNAMICS) S.D.=  2.41323160612599E-02
DEBUG_STATS_RL:                Vvel (DYNAMICS)  min= -1.02695658337052E-01
DEBUG_STATS_RL:                Vvel (DYNAMICS)  max=  1.28136186439031E-01
DEBUG_STATS_RL:                Vvel (DYNAMICS) mean=  1.38560269304563E-03
DEBUG_STATS_RL:                Vvel (DYNAMICS) S.D.=  1.39026470364906E-02
DEBUG_STATS_RL:                Wvel (DYNAMICS)  min= -8.68785163533624E-05
DEBUG_STATS_RL:                Wvel (DYNAMICS)  max=  1.32539716376411E-04
DEBUG_STATS_RL:                Wvel (DYNAMICS) mean= -1.39474682514354E-08
DEBUG_STATS_RL:                Wvel (DYNAMICS) S.D.=  1.10639310750331E-05
DEBUG_STATS_RL:               Theta (DYNAMICS)  min= -1.95409835768652E+00
DEBUG_STATS_RL:               Theta (DYNAMICS)  max=  2.99367249973648E+01
DEBUG_STATS_RL:               Theta (DYNAMICS) mean=  3.21126558333204E+00
DEBUG_STATS_RL:               Theta (DYNAMICS) S.D.=  5.86201378463326E+00
DEBUG_STATS_RL:                Salt (DYNAMICS)  min= -6.86242378085645E-04
DEBUG_STATS_RL:                Salt (DYNAMICS)  max=  3.74531167499716E+01
DEBUG_STATS_RL:                Salt (DYNAMICS) mean=  1.88442185326604E+01
DEBUG_STATS_RL:                Salt (DYNAMICS) S.D.=  1.73004188376777E+01
DEBUG_STATS_RL:                  Gu (DYNAMICS)  min= -1.30720179441396E-01
DEBUG_STATS_RL:                  Gu (DYNAMICS)  max=  1.87172001918607E-01
DEBUG_STATS_RL:                  Gu (DYNAMICS) mean=  5.16674503787740E-03
DEBUG_STATS_RL:                  Gu (DYNAMICS) S.D.=  2.42652162288566E-02
DEBUG_STATS_RL:                  Gv (DYNAMICS)  min= -9.97451150443015E-02
DEBUG_STATS_RL:                  Gv (DYNAMICS)  max=  1.32326894717824E-01
DEBUG_STATS_RL:                  Gv (DYNAMICS) mean=  3.97536584914539E-03
DEBUG_STATS_RL:                  Gv (DYNAMICS) S.D.=  1.52482577711573E-02
DEBUG_STATS_RL:               GuNm1 (DYNAMICS)  min= -9.12981752909824E-06
DEBUG_STATS_RL:               GuNm1 (DYNAMICS)  max=  8.79822131583685E-06
DEBUG_STATS_RL:               GuNm1 (DYNAMICS) mean= -1.13830526777122E-08
DEBUG_STATS_RL:               GuNm1 (DYNAMICS) S.D.=  1.17100525600302E-06
DEBUG_STATS_RL:               GvNm1 (DYNAMICS)  min= -9.55631171284869E-06
DEBUG_STATS_RL:               GvNm1 (DYNAMICS)  max=  1.63786566684475E-05
DEBUG_STATS_RL:               GvNm1 (DYNAMICS) mean=  7.49020506931380E-07
DEBUG_STATS_RL:               GvNm1 (DYNAMICS) S.D.=  2.58961892280837E-06
DEBUG_STATS_RL:               GtNm1 (DYNAMICS)  min= -2.77528858669524E-06
DEBUG_STATS_RL:               GtNm1 (DYNAMICS)  max=  2.43013730057190E-06
DEBUG_STATS_RL:               GtNm1 (DYNAMICS) mean=  4.27877779409334E-09
DEBUG_STATS_RL:               GtNm1 (DYNAMICS) S.D.=  1.68138293331382E-07
DEBUG_STATS_RL:               GsNm1 (DYNAMICS)  min= -3.77832487221017E-07
DEBUG_STATS_RL:               GsNm1 (DYNAMICS)  max=  3.21477531385066E-07
DEBUG_STATS_RL:               GsNm1 (DYNAMICS) mean=  2.03301016245037E-10
DEBUG_STATS_RL:               GsNm1 (DYNAMICS) S.D.=  1.69818779986611E-08
DEBUG_STATS_RL:    cg2d_b (SOLVE_FOR_PRESSURE)  min= -1.94101913407222E+04
DEBUG_STATS_RL:    cg2d_b (SOLVE_FOR_PRESSURE)  max=  2.50745279073660E+04
DEBUG_STATS_RL:    cg2d_b (SOLVE_FOR_PRESSURE) mean=  3.56322098045622E+00
DEBUG_STATS_RL:    cg2d_b (SOLVE_FOR_PRESSURE) S.D.=  3.66040109790549E+03
 cg2d: Sum(rhs),rhsMax =   3.28973554366829E-01  1.64696212814153E+00
(PID.TID 0000.0001)  cg2d: iter=     1 ; resid.=  8.17335846349108E-02
(PID.TID 0000.0001)  cg2d: iter=     2 ; resid.=  4.28569976222548E-02
(PID.TID 0000.0001)  cg2d: iter=     3 ; resid.=  4.13479402965446E-02
(PID.TID 0000.0001)  cg2d: iter=     4 ; resid.=  4.34274376232584E-02
(PID.TID 0000.0001)  cg2d: iter=     5 ; resid.=  4.00685484175465E-02
(PID.TID 0000.0001)  cg2d: iter=     6 ; resid.=  3.50259219245137E-02
(PID.TID 0000.0001)  cg2d: iter=     7 ; resid.=  2.89368206202909E-02
(PID.TID 0000.0001)  cg2d: iter=     8 ; resid.=  2.45516957825979E-02
(PID.TID 0000.0001)  cg2d: iter=     9 ; resid.=  2.08465658470788E-02
(PID.TID 0000.0001)  cg2d: iter=    10 ; resid.=  1.80300227533596E-02
(PID.TID 0000.0001)  cg2d: iter=    11 ; resid.=  1.51310720313829E-02
(PID.TID 0000.0001)  cg2d: iter=    12 ; resid.=  1.21332501235914E-02
(PID.TID 0000.0001)  cg2d: iter=    13 ; resid.=  9.03384396685852E-03
(PID.TID 0000.0001)  cg2d: iter=    14 ; resid.=  7.23028378721032E-03
(PID.TID 0000.0001)  cg2d: iter=    15 ; resid.=  6.67995674369056E-03
(PID.TID 0000.0001)  cg2d: iter=    16 ; resid.=  5.55986042736777E-03
(PID.TID 0000.0001)  cg2d: iter=    17 ; resid.=  4.72320298622636E-03
(PID.TID 0000.0001)  cg2d: iter=    18 ; resid.=  4.00452226830792E-03
(PID.TID 0000.0001)  cg2d: iter=    19 ; resid.=  3.60991913586122E-03
(PID.TID 0000.0001)  cg2d: iter=    20 ; resid.=  2.94816098966613E-03
(PID.TID 0000.0001)  cg2d: iter=    21 ; resid.=  2.32082822181143E-03
(PID.TID 0000.0001)  cg2d: iter=    22 ; resid.=  2.10322607819158E-03
(PID.TID 0000.0001)  cg2d: iter=    23 ; resid.=  1.86053179155987E-03
(PID.TID 0000.0001)  cg2d: iter=    24 ; resid.=  1.41944815531611E-03
(PID.TID 0000.0001)  cg2d: iter=    25 ; resid.=  1.10066221273509E-03
(PID.TID 0000.0001)  cg2d: iter=    26 ; resid.=  9.26475805687521E-04
(PID.TID 0000.0001)  cg2d: iter=    27 ; resid.=  8.37667983356628E-04
(PID.TID 0000.0001)  cg2d: iter=    28 ; resid.=  7.35936901974794E-04
(PID.TID 0000.0001)  cg2d: iter=    29 ; resid.=  6.10017014367393E-04
(PID.TID 0000.0001)  cg2d: iter=    30 ; resid.=  4.58413657149950E-04
(PID.TID 0000.0001)  cg2d: iter=    31 ; resid.=  3.84699840042848E-04
(PID.TID 0000.0001)  cg2d: iter=    32 ; resid.=  3.24581825000766E-04
(PID.TID 0000.0001)  cg2d: iter=    33 ; resid.=  2.58317958953870E-04
(PID.TID 0000.0001)  cg2d: iter=    34 ; resid.=  2.07481314705523E-04
(PID.TID 0000.0001)  cg2d: iter=    35 ; resid.=  1.61976848355160E-04
(PID.TID 0000.0001)  cg2d: iter=    36 ; resid.=  1.38116965885539E-04
(PID.TID 0000.0001)  cg2d: iter=    37 ; resid.=  1.22495142467655E-04
(PID.TID 0000.0001)  cg2d: iter=    38 ; resid.=  1.09198428753874E-04
(PID.TID 0000.0001)  cg2d: iter=    39 ; resid.=  9.43333466300656E-05
(PID.TID 0000.0001)  cg2d: iter=    40 ; resid.=  8.67788925501870E-05
(PID.TID 0000.0001)  cg2d: iter=    41 ; resid.=  7.65774016820436E-05
(PID.TID 0000.0001)  cg2d: iter=    42 ; resid.=  6.67015774450944E-05
(PID.TID 0000.0001)  cg2d: iter=    43 ; resid.=  5.72241257505163E-05
(PID.TID 0000.0001)  cg2d: iter=    44 ; resid.=  4.52589770736214E-05
(PID.TID 0000.0001)  cg2d: iter=    45 ; resid.=  3.48501782457153E-05
(PID.TID 0000.0001)  cg2d: iter=    46 ; resid.=  2.66258456927465E-05
(PID.TID 0000.0001)  cg2d: iter=    47 ; resid.=  2.07339248265805E-05
(PID.TID 0000.0001)  cg2d: iter=    48 ; resid.=  1.76815687017140E-05
(PID.TID 0000.0001)  cg2d: iter=    49 ; resid.=  1.44868529098185E-05
(PID.TID 0000.0001)  cg2d: iter=    50 ; resid.=  1.26601555821565E-05
(PID.TID 0000.0001)  cg2d: iter=    51 ; resid.=  1.11638691911288E-05
(PID.TID 0000.0001)  cg2d: iter=    52 ; resid.=  9.25790221450006E-06
(PID.TID 0000.0001)  cg2d: iter=    53 ; resid.=  7.58297621916354E-06
(PID.TID 0000.0001)  cg2d: iter=    54 ; resid.=  5.94537320100328E-06
(PID.TID 0000.0001)  cg2d: iter=    55 ; resid.=  4.42685858907477E-06
(PID.TID 0000.0001)  cg2d: iter=    56 ; resid.=  3.48545565857396E-06
(PID.TID 0000.0001)  cg2d: iter=    57 ; resid.=  2.86305492922154E-06
(PID.TID 0000.0001)  cg2d: iter=    58 ; resid.=  2.28763017876126E-06
(PID.TID 0000.0001)  cg2d: iter=    59 ; resid.=  1.82030263177403E-06
(PID.TID 0000.0001)  cg2d: iter=    60 ; resid.=  1.39697895068085E-06
(PID.TID 0000.0001)  cg2d: iter=    61 ; resid.=  1.18250712493589E-06
(PID.TID 0000.0001)  cg2d: iter=    62 ; resid.=  9.93937360582077E-07
(PID.TID 0000.0001)  cg2d: iter=    63 ; resid.=  7.34527493904315E-07
(PID.TID 0000.0001)  cg2d: iter=    64 ; resid.=  5.79759245810242E-07
(PID.TID 0000.0001)  cg2d: iter=    65 ; resid.=  4.69904643498170E-07
(PID.TID 0000.0001)  cg2d: iter=    66 ; resid.=  3.71511931746973E-07
(PID.TID 0000.0001)  cg2d: iter=    67 ; resid.=  2.64816785105130E-07
(PID.TID 0000.0001)  cg2d: iter=    68 ; resid.=  1.85901725439225E-07
(PID.TID 0000.0001)  cg2d: iter=    69 ; resid.=  1.36273459395357E-07
(PID.TID 0000.0001)  cg2d: iter=    70 ; resid.=  1.09015397898364E-07
(PID.TID 0000.0001)  cg2d: iter=    71 ; resid.=  8.32076036121760E-08
(PID.TID 0000.0001)  cg2d: iter=    72 ; resid.=  6.34708135735472E-08
(PID.TID 0000.0001)  cg2d: iter=    73 ; resid.=  4.79813175937814E-08
(PID.TID 0000.0001)  cg2d: iter=    74 ; resid.=  3.57435623988544E-08
(PID.TID 0000.0001)  cg2d: iter=    75 ; resid.=  2.83543305861305E-08
(PID.TID 0000.0001)  cg2d: iter=    76 ; resid.=  2.47637925213573E-08
(PID.TID 0000.0001)  cg2d: iter=    77 ; resid.=  2.08420142904571E-08
(PID.TID 0000.0001)  cg2d: iter=    78 ; resid.=  1.65518993564847E-08
(PID.TID 0000.0001)  cg2d: iter=    79 ; resid.=  1.28256365932863E-08
(PID.TID 0000.0001)  cg2d: iter=    80 ; resid.=  1.15022067534689E-08
(PID.TID 0000.0001)  cg2d: iter=    81 ; resid.=  1.04863881954287E-08
(PID.TID 0000.0001)  cg2d: iter=    82 ; resid.=  8.54916452575081E-09
(PID.TID 0000.0001)  cg2d: iter=    83 ; resid.=  6.59108296717788E-09
(PID.TID 0000.0001)  cg2d: iter=    84 ; resid.=  5.29733071790031E-09
(PID.TID 0000.0001)  cg2d: iter=    85 ; resid.=  4.52438586111023E-09
(PID.TID 0000.0001)  cg2d: iter=    86 ; resid.=  3.40971022234753E-09
(PID.TID 0000.0001)  cg2d: iter=    87 ; resid.=  2.62814624338365E-09
(PID.TID 0000.0001)  cg2d: iter=    88 ; resid.=  1.99609905865119E-09
(PID.TID 0000.0001)  cg2d: iter=    89 ; resid.=  1.72518402070267E-09
(PID.TID 0000.0001)  cg2d: iter=    90 ; resid.=  1.60607043173908E-09
(PID.TID 0000.0001)  cg2d: iter=    91 ; resid.=  1.50835361517463E-09
(PID.TID 0000.0001)  cg2d: iter=    92 ; resid.=  1.23243222539415E-09
(PID.TID 0000.0001)  cg2d: iter=    93 ; resid.=  8.72625948464334E-10
(PID.TID 0000.0001)  cg2d: iter=    94 ; resid.=  6.08237425661929E-10
(PID.TID 0000.0001)  cg2d: iter=    95 ; resid.=  4.79402746470214E-10
(PID.TID 0000.0001)  cg2d: iter=    96 ; resid.=  3.74206372997667E-10
(PID.TID 0000.0001)  cg2d: iter=    97 ; resid.=  2.73033375050535E-10
(PID.TID 0000.0001)  cg2d: iter=    98 ; resid.=  2.02211577280484E-10
(PID.TID 0000.0001)  cg2d: iter=    99 ; resid.=  1.60748742786875E-10
(PID.TID 0000.0001)  cg2d: iter=   100 ; resid.=  1.54986361779233E-10
(PID.TID 0000.0001)  cg2d: iter=   101 ; resid.=  1.59965480165999E-10
(PID.TID 0000.0001)  cg2d: iter=   102 ; resid.=  1.46295902356784E-10
(PID.TID 0000.0001)  cg2d: iter=   103 ; resid.=  1.16462638044737E-10
(PID.TID 0000.0001)  cg2d: iter=   104 ; resid.=  9.14210786317394E-11
(PID.TID 0000.0001)  cg2d: iter=   105 ; resid.=  7.71448570998872E-11
(PID.TID 0000.0001)  cg2d: iter=   106 ; resid.=  6.22176914880744E-11
(PID.TID 0000.0001)  cg2d: iter=   107 ; resid.=  4.50185265896038E-11
(PID.TID 0000.0001)  cg2d: iter=   108 ; resid.=  3.22804027073953E-11
(PID.TID 0000.0001)  cg2d: iter=   109 ; resid.=  2.45709452996048E-11
(PID.TID 0000.0001)  cg2d: iter=   110 ; resid.=  2.20594363413914E-11
(PID.TID 0000.0001)  cg2d: iter=   111 ; resid.=  1.82467092891675E-11
(PID.TID 0000.0001)  cg2d: iter=   112 ; resid.=  1.47746192264470E-11
(PID.TID 0000.0001)  cg2d: iter=   113 ; resid.=  1.22036047421571E-11
(PID.TID 0000.0001)  cg2d: iter=   114 ; resid.=  9.75447937901084E-12
(PID.TID 0000.0001)  cg2d: iter=   115 ; resid.=  7.50978410637910E-12
(PID.TID 0000.0001)  cg2d: iter=   116 ; resid.=  5.37044963027220E-12
(PID.TID 0000.0001)  cg2d: iter=   117 ; resid.=  3.89852839618098E-12
(PID.TID 0000.0001)  cg2d: iter=   118 ; resid.=  2.78167804909683E-12
(PID.TID 0000.0001)  cg2d: iter=   119 ; resid.=  2.15815822331045E-12
(PID.TID 0000.0001)  cg2d: iter=   120 ; resid.=  1.65055139141052E-12
(PID.TID 0000.0001)  cg2d: iter=   121 ; resid.=  1.14271694534026E-12
(PID.TID 0000.0001)  cg2d: iter=   122 ; resid.=  7.38795450037314E-13
(PID.TID 0000.0001)  cg2d: iter=   123 ; resid.=  4.99799874926850E-13
(PID.TID 0000.0001)  cg2d: iter=   124 ; resid.=  3.85337039124958E-13
(PID.TID 0000.0001)  cg2d: iter=   125 ; resid.=  3.27584456309399E-13
(PID.TID 0000.0001)  cg2d: iter=   126 ; resid.=  2.80809522784240E-13
(PID.TID 0000.0001)  cg2d: iter=   127 ; resid.=  2.20949600361394E-13
(PID.TID 0000.0001)  cg2d: iter=   128 ; resid.=  1.55354821193074E-13
(PID.TID 0000.0001)  cg2d: iter=   129 ; resid.=  1.14139945629565E-13
(PID.TID 0000.0001)  cg2d: iter=   130 ; resid.=  9.08885211227319E-14
DEBUG_STATS_RL:    cg2d_x (SOLVE_FOR_PRESSURE)  min= -1.76323583893415E+01
DEBUG_STATS_RL:    cg2d_x (SOLVE_FOR_PRESSURE)  max=  7.68630889325655E+00
DEBUG_STATS_RL:    cg2d_x (SOLVE_FOR_PRESSURE) mean= -1.70195661980514E+00
DEBUG_STATS_RL:    cg2d_x (SOLVE_FOR_PRESSURE) S.D.=  6.62005854702906E+00
(PID.TID 0000.0001)      cg2d_init_res =   2.91860330393908E-01
(PID.TID 0000.0001)      cg2d_iters(min,last) =      -1     130
(PID.TID 0000.0001)      cg2d_last_res =   9.08885211227319E-14
(PID.TID 0000.0001) // =======================================================
(PID.TID 0000.0001) // Begin MONITOR dynamic field statistics
(PID.TID 0000.0001) // =======================================================
(PID.TID 0000.0001) %MON time_tsnumber                =                    49
(PID.TID 0000.0001) %MON time_secondsf                =   4.2336000000000E+06
(PID.TID 0000.0001) %MON dynstat_eta_max              =   7.8351772612192E-01
(PID.TID 0000.0001) %MON dynstat_eta_min              =  -1.7973861762834E+00
(PID.TID 0000.0001) %MON dynstat_eta_mean             =  -3.7177792682911E-03
(PID.TID 0000.0001) %MON dynstat_eta_sd               =   5.8098150073870E-01
(PID.TID 0000.0001) %MON dynstat_eta_del2             =   2.2374153447713E-03
(PID.TID 0000.0001) %MON dynstat_uvel_max             =   1.8204164400920E-01
(PID.TID 0000.0001) %MON dynstat_uvel_min             =  -1.3089526083518E-01
(PID.TID 0000.0001) %MON dynstat_uvel_mean            =   1.9080118881871E-03
(PID.TID 0000.0001) %MON dynstat_uvel_sd              =   1.4384462793610E-02
(PID.TID 0000.0001) %MON dynstat_uvel_del2            =   8.5392271111958E-05
(PID.TID 0000.0001) %MON dynstat_vvel_max             =   1.3132675189472E-01
(PID.TID 0000.0001) %MON dynstat_vvel_min             =  -1.0030662677946E-01
(PID.TID 0000.0001) %MON dynstat_vvel_mean            =   4.3767362877460E-05
(PID.TID 0000.0001) %MON dynstat_vvel_sd              =   8.4506783311712E-03
(PID.TID 0000.0001) %MON dynstat_vvel_del2            =   7.3971760569334E-05
(PID.TID 0000.0001) %MON dynstat_wvel_max             =   1.3537760978018E-04
(PID.TID 0000.0001) %MON dynstat_wvel_min             =  -8.3964622534991E-05
(PID.TID 0000.0001) %MON dynstat_wvel_mean            =   4.8511591898125E-24
(PID.TID 0000.0001) %MON dynstat_wvel_sd              =   1.2249840878067E-05
(PID.TID 0000.0001) %MON dynstat_wvel_del2            =   1.2521268607041E-07
(PID.TID 0000.0001) %MON dynstat_theta_max            =   2.9936724997365E+01
(PID.TID 0000.0001) %MON dynstat_theta_min            =  -1.9540983576865E+00
(PID.TID 0000.0001) %MON dynstat_theta_mean           =   3.6207595887363E+00
(PID.TID 0000.0001) %MON dynstat_theta_sd             =   4.4181493170793E+00
(PID.TID 0000.0001) %MON dynstat_theta_del2           =   4.6618755868091E-03
(PID.TID 0000.0001) %MON dynstat_salt_max             =   3.7453116749972E+01
(PID.TID 0000.0001) %MON dynstat_salt_min             =   2.9828086372834E+01
(PID.TID 0000.0001) %MON dynstat_salt_mean            =   3.4717288284400E+01
(PID.TID 0000.0001) %MON dynstat_salt_sd              =   2.9620456376277E-01
(PID.TID 0000.0001) %MON dynstat_salt_del2            =   9.7081071973616E-04
(PID.TID 0000.0001) %MON dynstat_sst_max              =   2.9936724997365E+01
(PID.TID 0000.0001) %MON dynstat_sst_min              =  -1.9540983576865E+00
(PID.TID 0000.0001) %MON dynstat_sst_mean             =   1.8771834389990E+01
(PID.TID 0000.0001) %MON dynstat_sst_sd               =   9.0916861170525E+00
(PID.TID 0000.0001) %MON dynstat_sst_del2             =   2.4779471465268E-02
(PID.TID 0000.0001) %MON dynstat_sss_max              =   3.7396748163900E+01
(PID.TID 0000.0001) %MON dynstat_sss_min              =   2.9828086372834E+01
(PID.TID 0000.0001) %MON dynstat_sss_mean             =   3.4843324894775E+01
(PID.TID 0000.0001) %MON dynstat_sss_sd               =   9.7554654699256E-01
(PID.TID 0000.0001) %MON dynstat_sss_del2             =   7.6364668344049E-03
(PID.TID 0000.0001) %MON forcing_qnet_max             =   3.5005778503418E+02
(PID.TID 0000.0001) %MON forcing_qnet_min             =  -1.7193613128662E+02
(PID.TID 0000.0001) %MON forcing_qnet_mean            =  -1.3295232480064E+01
(PID.TID 0000.0001) %MON forcing_qnet_sd              =   7.5356710185275E+01
(PID.TID 0000.0001) %MON forcing_qnet_del2            =   9.3278656798389E-01
(PID.TID 0000.0001) %MON forcing_qsw_max              =   0.0000000000000E+00
(PID.TID 0000.0001) %MON forcing_qsw_min              =   0.0000000000000E+00
(PID.TID 0000.0001) %MON forcing_qsw_mean             =   0.0000000000000E+00
(PID.TID 0000.0001) %MON forcing_qsw_sd               =   0.0000000000000E+00
(PID.TID 0000.0001) %MON forcing_qsw_del2             =   0.0000000000000E+00
(PID.TID 0000.0001) %MON forcing_empmr_max            =   7.0250469974553E-05
(PID.TID 0000.0001) %MON forcing_empmr_min            =  -7.5240552988021E-05
(PID.TID 0000.0001) %MON forcing_empmr_mean           =   9.0413918728631E-07
(PID.TID 0000.0001) %MON forcing_empmr_sd             =   2.7719997009048E-05
(PID.TID 0000.0001) %MON forcing_empmr_del2           =   3.5454115748184E-07
(PID.TID 0000.0001) %MON forcing_fu_max               =   3.0860858261585E-01
(PID.TID 0000.0001) %MON forcing_fu_min               =  -2.3188623934984E-01
(PID.TID 0000.0001) %MON forcing_fu_mean              =   1.7913340385011E-02
(PID.TID 0000.0001) %MON forcing_fu_sd                =   9.3092736930720E-02
(PID.TID 0000.0001) %MON forcing_fu_del2              =   7.2682591920009E-04
(PID.TID 0000.0001) %MON forcing_fv_max               =   1.8452488817275E-01
(PID.TID 0000.0001) %MON forcing_fv_min               =  -1.9522114694119E-01
(PID.TID 0000.0001) %MON forcing_fv_mean              =  -7.2480099908687E-03
(PID.TID 0000.0001) %MON forcing_fv_sd                =   4.4132733305549E-02
(PID.TID 0000.0001) %MON forcing_fv_del2              =   5.1914537239774E-04
(PID.TID 0000.0001) %MON trAdv_CFL_u_max              =   4.6824266087364E-02
(PID.TID 0000.0001) %MON trAdv_CFL_v_max              =   2.8169207082206E-02
(PID.TID 0000.0001) %MON trAdv_CFL_w_max              =   3.6475414873625E-02
(PID.TID 0000.0001) %MON advcfl_uvel_max              =   4.7592031353120E-02
(PID.TID 0000.0001) %MON advcfl_vvel_max              =   2.5514681665267E-02
(PID.TID 0000.0001) %MON advcfl_wvel_max              =   4.4480380748496E-02
(PID.TID 0000.0001) %MON advcfl_W_hf_max              =   5.4011890908888E-02
(PID.TID 0000.0001) %MON pe_b_mean                    =   4.3194016698149E-04
(PID.TID 0000.0001) %MON ke_max                       =   1.6728934300203E-02
(PID.TID 0000.0001) %MON ke_mean                      =   1.2771926015987E-04
(PID.TID 0000.0001) %MON ke_vol                       =   1.3226782436723E+18
(PID.TID 0000.0001) %MON vort_r_min                   =  -4.8531062494114E-07
(PID.TID 0000.0001) %MON vort_r_max                   =   4.0213463366731E-07
(PID.TID 0000.0001) %MON vort_a_mean                  =  -2.5274807165194E-05
(PID.TID 0000.0001) %MON vort_a_sd                    =   7.3604609266174E-05
(PID.TID 0000.0001) %MON vort_p_mean                  =  -3.1845655506834E-05
(PID.TID 0000.0001) %MON vort_p_sd                    =   1.3162452105518E-04
(PID.TID 0000.0001) %MON surfExpan_theta_mean         =   2.9178190230997E-07
(PID.TID 0000.0001) %MON surfExpan_salt_mean          =  -8.1219519369444E-09
(PID.TID 0000.0001) // =======================================================
(PID.TID 0000.0001) // End MONITOR dynamic field statistics
(PID.TID 0000.0001) // =======================================================
 EXTERNAL_FIELDS_LOAD,        49 : iP,iLd,i0,i1=    2    3    2    3 ; Wght=  0.8666666667  0.1333333333
 EXTERNAL_FIELDS_LOAD: (fu0,1),fu,fv= -1.4435E-02 -2.7199E-02 -1.6137E-02 -1.5361E-02
 EXTERNAL_FIELDS_LOAD: SST,SSS,Q,E-P= -4.8546E-01  3.4442E+01  2.3714E+02  8.4710E-06
DEBUG_STATS_RL:          Uvel (THERMODYNAMICS)  min= -1.30895260835184E-01
DEBUG_STATS_RL:          Uvel (THERMODYNAMICS)  max=  1.82041644009203E-01
DEBUG_STATS_RL:          Uvel (THERMODYNAMICS) mean=  5.28958442406865E-03
DEBUG_STATS_RL:          Uvel (THERMODYNAMICS) S.D.=  2.39063947420518E-02
DEBUG_STATS_RL:          Vvel (THERMODYNAMICS)  min= -1.00306626779456E-01
DEBUG_STATS_RL:          Vvel (THERMODYNAMICS)  max=  1.31326751894719E-01
DEBUG_STATS_RL:          Vvel (THERMODYNAMICS) mean=  1.48669616729236E-03
DEBUG_STATS_RL:          Vvel (THERMODYNAMICS) S.D.=  1.39031054483102E-02
DEBUG_STATS_RL:          Wvel (THERMODYNAMICS)  min= -8.39646225349907E-05
DEBUG_STATS_RL:          Wvel (THERMODYNAMICS)  max=  1.35377609780184E-04
DEBUG_STATS_RL:          Wvel (THERMODYNAMICS) mean=  1.57914038087301E-08
DEBUG_STATS_RL:          Wvel (THERMODYNAMICS) S.D.=  1.08783883291299E-05
DEBUG_STATS_RL:         Theta (THERMODYNAMICS)  min= -1.95246178898330E+00
DEBUG_STATS_RL:         Theta (THERMODYNAMICS)  max=  2.99367314598962E+01
DEBUG_STATS_RL:         Theta (THERMODYNAMICS) mean=  3.21134283909296E+00
DEBUG_STATS_RL:         Theta (THERMODYNAMICS) S.D.=  5.86249533147664E+00
DEBUG_STATS_RL:          Salt (THERMODYNAMICS)  min= -6.86242378085645E-04
DEBUG_STATS_RL:          Salt (THERMODYNAMICS)  max=  3.74536438355372E+01
DEBUG_STATS_RL:          Salt (THERMODYNAMICS) mean=  1.88442264147898E+01
DEBUG_STATS_RL:          Salt (THERMODYNAMICS) S.D.=  1.73004263116550E+01
DEBUG_STATS_RL:         GtNm1 (THERMODYNAMICS)  min= -2.77781272093021E-06
DEBUG_STATS_RL:         GtNm1 (THERMODYNAMICS)  max=  2.44540596616345E-06
DEBUG_STATS_RL:         GtNm1 (THERMODYNAMICS) mean=  3.23045659463523E-09
DEBUG_STATS_RL:         GtNm1 (THERMODYNAMICS) S.D.=  1.67140896717399E-07
DEBUG_STATS_RL:         GsNm1 (THERMODYNAMICS)  min= -4.01572644681660E-07
DEBUG_STATS_RL:         GsNm1 (THERMODYNAMICS)  max=  3.60274090313699E-07
DEBUG_STATS_RL:         GsNm1 (THERMODYNAMICS) mean=  1.57058844671500E-10
DEBUG_STATS_RL:         GsNm1 (THERMODYNAMICS) S.D.=  1.69774321074512E-08
DEBUG_STATS_RL:                EtaN (DYNAMICS)  min= -1.79738617628343E+00
DEBUG_STATS_RL:                EtaN (DYNAMICS)  max=  7.83517726121921E-01
DEBUG_STATS_RL:                EtaN (DYNAMICS) mean= -1.73492010173817E-01
DEBUG_STATS_RL:                EtaN (DYNAMICS) S.D.=  6.74827578698170E-01
DEBUG_STATS_RL:                Uvel (DYNAMICS)  min= -1.30895260835184E-01
DEBUG_STATS_RL:                Uvel (DYNAMICS)  max=  1.82041644009203E-01
DEBUG_STATS_RL:                Uvel (DYNAMICS) mean=  5.28958442406865E-03
DEBUG_STATS_RL:                Uvel (DYNAMICS) S.D.=  2.39063947420518E-02
DEBUG_STATS_RL:                Vvel (DYNAMICS)  min= -1.00306626779456E-01
DEBUG_STATS_RL:                Vvel (DYNAMICS)  max=  1.31326751894719E-01
DEBUG_STATS_RL:                Vvel (DYNAMICS) mean=  1.48669616729236E-03
DEBUG_STATS_RL:                Vvel (DYNAMICS) S.D.=  1.39031054483102E-02
DEBUG_STATS_RL:                Wvel (DYNAMICS)  min= -8.39646225349907E-05
DEBUG_STATS_RL:                Wvel (DYNAMICS)  max=  1.35377609780184E-04
DEBUG_STATS_RL:                Wvel (DYNAMICS) mean=  1.57914038087301E-08
DEBUG_STATS_RL:                Wvel (DYNAMICS) S.D.=  1.08783883291299E-05
DEBUG_STATS_RL:               Theta (DYNAMICS)  min= -1.95246178898330E+00
DEBUG_STATS_RL:               Theta (DYNAMICS)  max=  2.99367314598962E+01
DEBUG_STATS_RL:               Theta (DYNAMICS) mean=  3.21134283909296E+00
DEBUG_STATS_RL:               Theta (DYNAMICS) S.D.=  5.86249533147664E+00
DEBUG_STATS_RL:                Salt (DYNAMICS)  min= -6.86242378085645E-04
DEBUG_STATS_RL:                Salt (DYNAMICS)  max=  3.74536438355372E+01
DEBUG_STATS_RL:                Salt (DYNAMICS) mean=  1.88442264147898E+01
DEBUG_STATS_RL:                Salt (DYNAMICS) S.D.=  1.73004263116550E+01
DEBUG_STATS_RL:                  Gu (DYNAMICS)  min= -1.29218105777604E-01
DEBUG_STATS_RL:                  Gu (DYNAMICS)  max=  1.90433216845105E-01
DEBUG_STATS_RL:                  Gu (DYNAMICS) mean=  5.19227940180144E-03
DEBUG_STATS_RL:                  Gu (DYNAMICS) S.D.=  2.39783541930308E-02
DEBUG_STATS_RL:                  Gv (DYNAMICS)  min= -9.83729567987651E-02
DEBUG_STATS_RL:                  Gv (DYNAMICS)  max=  1.35259786173797E-01
DEBUG_STATS_RL:                  Gv (DYNAMICS) mean=  4.05934276226688E-03
DEBUG_STATS_RL:                  Gv (DYNAMICS) S.D.=  1.53461938659843E-02
DEBUG_STATS_RL:               GuNm1 (DYNAMICS)  min= -9.22390173098595E-06
DEBUG_STATS_RL:               GuNm1 (DYNAMICS)  max=  8.85855707905340E-06
DEBUG_STATS_RL:               GuNm1 (DYNAMICS) mean= -1.01815707467450E-08
DEBUG_STATS_RL:               GuNm1 (DYNAMICS) S.D.=  1.17257442971157E-06
DEBUG_STATS_RL:               GvNm1 (DYNAMICS)  min= -9.54856946127464E-06
DEBUG_STATS_RL:               GvNm1 (DYNAMICS)  max=  1.63681392329715E-05
DEBUG_STATS_RL:               GvNm1 (DYNAMICS) mean=  7.48700636294733E-07
DEBUG_STATS_RL:               GvNm1 (DYNAMICS) S.D.=  2.59361731912369E-06
DEBUG_STATS_RL:               GtNm1 (DYNAMICS)  min= -2.77781272093021E-06
DEBUG_STATS_RL:               GtNm1 (DYNAMICS)  max=  2.44540596616345E-06
DEBUG_STATS_RL:               GtNm1 (DYNAMICS) mean=  3.23045659463523E-09
DEBUG_STATS_RL:               GtNm1 (DYNAMICS) S.D.=  1.67140896717399E-07
DEBUG_STATS_RL:               GsNm1 (DYNAMICS)  min= -4.01572644681660E-07
DEBUG_STATS_RL:               GsNm1 (DYNAMICS)  max=  3.60274090313699E-07
DEBUG_STATS_RL:               GsNm1 (DYNAMICS) mean=  1.57058844671500E-10
DEBUG_STATS_RL:               GsNm1 (DYNAMICS) S.D.=  1.69774321074512E-08
DEBUG_STATS_RL:    cg2d_b (SOLVE_FOR_PRESSURE)  min= -1.94773188317015E+04
DEBUG_STATS_RL:    cg2d_b (SOLVE_FOR_PRESSURE)  max=  2.53856093474296E+04
DEBUG_STATS_RL:    cg2d_b (SOLVE_FOR_PRESSURE) mean=  3.63451190720059E+00
DEBUG_STATS_RL:    cg2d_b (SOLVE_FOR_PRESSURE) S.D.=  3.68106248959643E+03
 cg2d: Sum(rhs),rhsMax =   3.31443494226047E-01  1.66739479002235E+00
(PID.TID 0000.0001)  cg2d: iter=     1 ; resid.=  8.16099511743951E-02
(PID.TID 0000.0001)  cg2d: iter=     2 ; resid.=  4.56660908982113E-02
(PID.TID 0000.0001)  cg2d: iter=     3 ; resid.=  4.90423920373736E-02
(PID.TID 0000.0001)  cg2d: iter=     4 ; resid.=  5.25261242656228E-02
(PID.TID 0000.0001)  cg2d: iter=     5 ; resid.=  4.73173390917199E-02
(PID.TID 0000.0001)  cg2d: iter=     6 ; resid.=  4.09952748118444E-02
(PID.TID 0000.0001)  cg2d: iter=     7 ; resid.=  3.37897189388108E-02
(PID.TID 0000.0001)  cg2d: iter=     8 ; resid.=  2.70120646476096E-02
(PID.TID 0000.0001)  cg2d: iter=     9 ; resid.=  2.15728142320325E-02
(PID.TID 0000.0001)  cg2d: iter=    10 ; resid.=  1.82773335555930E-02
(PID.TID 0000.0001)  cg2d: iter=    11 ; resid.=  1.50658853427662E-02
(PID.TID 0000.0001)  cg2d: iter=    12 ; resid.=  1.19158872535749E-02
(PID.TID 0000.0001)  cg2d: iter=    13 ; resid.=  8.94388663670759E-03
(PID.TID 0000.0001)  cg2d: iter=    14 ; resid.=  7.40455161462193E-03
(PID.TID 0000.0001)  cg2d: iter=    15 ; resid.=  6.86030662567175E-03
(PID.TID 0000.0001)  cg2d: iter=    16 ; resid.=  5.68849052720543E-03
(PID.TID 0000.0001)  cg2d: iter=    17 ; resid.=  4.94181506406293E-03
(PID.TID 0000.0001)  cg2d: iter=    18 ; resid.=  4.32625111430503E-03
(PID.TID 0000.0001)  cg2d: iter=    19 ; resid.=  3.87190217122811E-03
(PID.TID 0000.0001)  cg2d: iter=    20 ; resid.=  3.10742610477689E-03
(PID.TID 0000.0001)  cg2d: iter=    21 ; resid.=  2.43480807744680E-03
(PID.TID 0000.0001)  cg2d: iter=    22 ; resid.=  2.24156217956434E-03
(PID.TID 0000.0001)  cg2d: iter=    23 ; resid.=  1.97385739510192E-03
(PID.TID 0000.0001)  cg2d: iter=    24 ; resid.=  1.47606741283165E-03
(PID.TID 0000.0001)  cg2d: iter=    25 ; resid.=  1.14889123713435E-03
(PID.TID 0000.0001)  cg2d: iter=    26 ; resid.=  9.73207249392011E-04
(PID.TID 0000.0001)  cg2d: iter=    27 ; resid.=  8.51386338883078E-04
(PID.TID 0000.0001)  cg2d: iter=    28 ; resid.=  7.22228740925444E-04
(PID.TID 0000.0001)  cg2d: iter=    29 ; resid.=  5.91621389511397E-04
(PID.TID 0000.0001)  cg2d: iter=    30 ; resid.=  4.48660992907252E-04
(PID.TID 0000.0001)  cg2d: iter=    31 ; resid.=  3.69826034061472E-04
(PID.TID 0000.0001)  cg2d: iter=    32 ; resid.=  3.06869510333992E-04
(PID.TID 0000.0001)  cg2d: iter=    33 ; resid.=  2.46938396464157E-04
(PID.TID 0000.0001)  cg2d: iter=    34 ; resid.=  2.03296283282628E-04
(PID.TID 0000.0001)  cg2d: iter=    35 ; resid.=  1.61524032634098E-04
(PID.TID 0000.0001)  cg2d: iter=    36 ; resid.=  1.40333656313711E-04
(PID.TID 0000.0001)  cg2d: iter=    37 ; resid.=  1.26663116122822E-04
(PID.TID 0000.0001)  cg2d: iter=    38 ; resid.=  1.15603269118561E-04
(PID.TID 0000.0001)  cg2d: iter=    39 ; resid.=  9.91527633197363E-05
(PID.TID 0000.0001)  cg2d: iter=    40 ; resid.=  8.68075514197074E-05
(PID.TID 0000.0001)  cg2d: iter=    41 ; resid.=  7.23338492916177E-05
(PID.TID 0000.0001)  cg2d: iter=    42 ; resid.=  6.31456533272828E-05
(PID.TID 0000.0001)  cg2d: iter=    43 ; resid.=  5.49366094748952E-05
(PID.TID 0000.0001)  cg2d: iter=    44 ; resid.=  4.29248989114400E-05
(PID.TID 0000.0001)  cg2d: iter=    45 ; resid.=  3.31249174710302E-05
(PID.TID 0000.0001)  cg2d: iter=    46 ; resid.=  2.67607238133239E-05
(PID.TID 0000.0001)  cg2d: iter=    47 ; resid.=  2.21359044440244E-05
(PID.TID 0000.0001)  cg2d: iter=    48 ; resid.=  1.94098665909814E-05
(PID.TID 0000.0001)  cg2d: iter=    49 ; resid.=  1.63402248456286E-05
(PID.TID 0000.0001)  cg2d: iter=    50 ; resid.=  1.47663459493683E-05
(PID.TID 0000.0001)  cg2d: iter=    51 ; resid.=  1.32736788181418E-05
(PID.TID 0000.0001)  cg2d: iter=    52 ; resid.=  1.09935307473942E-05
(PID.TID 0000.0001)  cg2d: iter=    53 ; resid.=  8.85850238827425E-06
(PID.TID 0000.0001)  cg2d: iter=    54 ; resid.=  6.74937367198874E-06
(PID.TID 0000.0001)  cg2d: iter=    55 ; resid.=  4.97785284954362E-06
(PID.TID 0000.0001)  cg2d: iter=    56 ; resid.=  3.94253429490877E-06
(PID.TID 0000.0001)  cg2d: iter=    57 ; resid.=  3.26832103916763E-06
(PID.TID 0000.0001)  cg2d: iter=    58 ; resid.=  2.62942191995596E-06
(PID.TID 0000.0001)  cg2d: iter=    59 ; resid.=  2.06874103675704E-06
(PID.TID 0000.0001)  cg2d: iter=    60 ; resid.=  1.58415871232363E-06
(PID.TID 0000.0001)  cg2d: iter=    61 ; resid.=  1.35527237236750E-06
(PID.TID 0000.0001)  cg2d: iter=    62 ; resid.=  1.11238762989525E-06
(PID.TID 0000.0001)  cg2d: iter=    63 ; resid.=  8.12454946615786E-07
(PID.TID 0000.0001)  cg2d: iter=    64 ; resid.=  6.36011082150430E-07
(PID.TID 0000.0001)  cg2d: iter=    65 ; resid.=  5.17453083604424E-07
(PID.TID 0000.0001)  cg2d: iter=    66 ; resid.=  4.02853746278290E-07
(PID.TID 0000.0001)  cg2d: iter=    67 ; resid.=  2.90647295237565E-07
(PID.TID 0000.0001)  cg2d: iter=    68 ; resid.=  2.13899883444672E-07
(PID.TID 0000.0001)  cg2d: iter=    69 ; resid.=  1.73050893874818E-07
(PID.TID 0000.0001)  cg2d: iter=    70 ; resid.=  1.52926591135579E-07
(PID.TID 0000.0001)  cg2d: iter=    71 ; resid.=  1.27657899151303E-07
(PID.TID 0000.0001)  cg2d: iter=    72 ; resid.=  1.08979509115490E-07
(PID.TID 0000.0001)  cg2d: iter=    73 ; resid.=  9.27300469018407E-08
(PID.TID 0000.0001)  cg2d: iter=    74 ; resid.=  8.02954480594289E-08
(PID.TID 0000.0001)  cg2d: iter=    75 ; resid.=  7.62806738757309E-08
(PID.TID 0000.0001)  cg2d: iter=    76 ; resid.=  7.05379402618530E-08
(PID.TID 0000.0001)  cg2d: iter=    77 ; resid.=  5.71347998721890E-08
(PID.TID 0000.0001)  cg2d: iter=    78 ; resid.=  4.28931004200966E-08
(PID.TID 0000.0001)  cg2d: iter=    79 ; resid.=  3.39575080895234E-08
(PID.TID 0000.0001)  cg2d: iter=    80 ; resid.=  2.91732639514496E-08
(PID.TID 0000.0001)  cg2d: iter=    81 ; resid.=  2.35815986921675E-08
(PID.TID 0000.0001)  cg2d: iter=    82 ; resid.=  1.69985369070319E-08
(PID.TID 0000.0001)  cg2d: iter=    83 ; resid.=  1.22214052071126E-08
(PID.TID 0000.0001)  cg2d: iter=    84 ; resid.=  9.59823789600465E-09
(PID.TID 0000.0001)  cg2d: iter=    85 ; resid.=  7.96422347256862E-09
(PID.TID 0000.0001)  cg2d: iter=    86 ; resid.=  5.79257313880583E-09
(PID.TID 0000.0001)  cg2d: iter=    87 ; resid.=  4.25429267479027E-09
(PID.TID 0000.0001)  cg2d: iter=    88 ; resid.=  3.15840622266474E-09
(PID.TID 0000.0001)  cg2d: iter=    89 ; resid.=  2.77155119817193E-09
(PID.TID 0000.0001)  cg2d: iter=    90 ; resid.=  2.58961215840512E-09
(PID.TID 0000.0001)  cg2d: iter=    91 ; resid.=  2.30648672243074E-09
(PID.TID 0000.0001)  cg2d: iter=    92 ; resid.=  1.72954844066471E-09
(PID.TID 0000.0001)  cg2d: iter=    93 ; resid.=  1.15037849400344E-09
(PID.TID 0000.0001)  cg2d: iter=    94 ; resid.=  8.05071960070288E-10
(PID.TID 0000.0001)  cg2d: iter=    95 ; resid.=  6.87752169455413E-10
(PID.TID 0000.0001)  cg2d: iter=    96 ; resid.=  5.64305883615806E-10
(PID.TID 0000.0001)  cg2d: iter=    97 ; resid.=  4.15487007499661E-10
(PID.TID 0000.0001)  cg2d: iter=    98 ; resid.=  3.08751378040311E-10
(PID.TID 0000.0001)  cg2d: iter=    99 ; resid.=  2.59001305638729E-10
(PID.TID 0000.0001)  cg2d: iter=   100 ; resid.=  2.57007249332578E-10
(PID.TID 0000.0001)  cg2d: iter=   101 ; resid.=  2.51732171239315E-10
(PID.TID 0000.0001)  cg2d: iter=   102 ; resid.=  2.03349514169924E-10
(PID.TID 0000.0001)  cg2d: iter=   103 ; resid.=  1.44182165549226E-10
(PID.TID 0000.0001)  cg2d: iter=   104 ; resid.=  1.08646500615234E-10
(PID.TID 0000.0001)  cg2d: iter=   105 ; resid.=  9.43210318260294E-11
(PID.TID 0000.0001)  cg2d: iter=   106 ; resid.=  7.79202834023189E-11
(PID.TID 0000.0001)  cg2d: iter=   107 ; resid.=  5.71149903404315E-11
(PID.TID 0000.0001)  cg2d: iter=   108 ; resid.=  4.17395186630596E-11
(PID.TID 0000.0001)  cg2d: iter=   109 ; resid.=  3.25511098759976E-11
(PID.TID 0000.0001)  cg2d: iter=   110 ; resid.=  2.88437130962567E-11
(PID.TID 0000.0001)  cg2d: iter=   111 ; resid.=  2.20696381060604E-11
(PID.TID 0000.0001)  cg2d: iter=   112 ; resid.=  1.60877496641660E-11
(PID.TID 0000.0001)  cg2d: iter=   113 ; resid.=  1.17738019196472E-11
(PID.TID 0000.0001)  cg2d: iter=   114 ; resid.=  8.81411504194132E-12
(PID.TID 0000.0001)  cg2d: iter=   115 ; resid.=  6.81014719502448E-12
(PID.TID 0000.0001)  cg2d: iter=   116 ; resid.=  5.13126598837030E-12
(PID.TID 0000.0001)  cg2d: iter=   117 ; resid.=  3.96954383424528E-12
(PID.TID 0000.0001)  cg2d: iter=   118 ; resid.=  3.11128543341060E-12
(PID.TID 0000.0001)  cg2d: iter=   119 ; resid.=  2.67543520371322E-12
(PID.TID 0000.0001)  cg2d: iter=   120 ; resid.=  2.23051677119111E-12
(PID.TID 0000.0001)  cg2d: iter=   121 ; resid.=  1.63629953744625E-12
(PID.TID 0000.0001)  cg2d: iter=   122 ; resid.=  1.10856208968339E-12
(PID.TID 0000.0001)  cg2d: iter=   123 ; resid.=  8.13854980982877E-13
(PID.TID 0000.0001)  cg2d: iter=   124 ; resid.=  6.80510780820790E-13
(PID.TID 0000.0001)  cg2d: iter=   125 ; resid.=  5.68844086460526E-13
(PID.TID 0000.0001)  cg2d: iter=   126 ; resid.=  4.26220771171390E-13
(PID.TID 0000.0001)  cg2d: iter=   127 ; resid.=  2.79156219808616E-13
(PID.TID 0000.0001)  cg2d: iter=   128 ; resid.=  1.69048358032737E-13
(PID.TID 0000.0001)  cg2d: iter=   129 ; resid.=  1.10692306262079E-13
(PID.TID 0000.0001)  cg2d: iter=   130 ; resid.=  8.34691966299340E-14
DEBUG_STATS_RL:    cg2d_x (SOLVE_FOR_PRESSURE)  min= -1.78507570301617E+01
DEBUG_STATS_RL:    cg2d_x (SOLVE_FOR_PRESSURE)  max=  7.77594403676149E+00
DEBUG_STATS_RL:    cg2d_x (SOLVE_FOR_PRESSURE) mean= -1.71322689972948E+00
DEBUG_STATS_RL:    cg2d_x (SOLVE_FOR_PRESSURE) S.D.=  6.67713567158866E+00
(PID.TID 0000.0001)      cg2d_init_res =   2.85020188435851E-01
(PID.TID 0000.0001)      cg2d_iters(min,last) =      -1     130
(PID.TID 0000.0001)      cg2d_last_res =   8.34691966299340E-14
(PID.TID 0000.0001) // =======================================================
(PID.TID 0000.0001) // Begin MONITOR dynamic field statistics
(PID.TID 0000.0001) // =======================================================
(PID.TID 0000.0001) %MON time_tsnumber                =                    50
(PID.TID 0000.0001) %MON time_secondsf                =   4.3200000000000E+06
(PID.TID 0000.0001) %MON dynstat_eta_max              =   7.9265484574535E-01
(PID.TID 0000.0001) %MON dynstat_eta_min              =  -1.8196490346748E+00
(PID.TID 0000.0001) %MON dynstat_eta_mean             =  -3.7921625105649E-03
(PID.TID 0000.0001) %MON dynstat_eta_sd               =   5.8650457722616E-01
(PID.TID 0000.0001) %MON dynstat_eta_del2             =   2.2533766472854E-03
(PID.TID 0000.0001) %MON dynstat_uvel_max             =   1.8522474146803E-01
(PID.TID 0000.0001) %MON dynstat_uvel_min             =  -1.2936520171926E-01
(PID.TID 0000.0001) %MON dynstat_uvel_mean            =   1.9448422843565E-03
(PID.TID 0000.0001) %MON dynstat_uvel_sd              =   1.4262940634689E-02
(PID.TID 0000.0001) %MON dynstat_uvel_del2            =   8.4739271796490E-05
(PID.TID 0000.0001) %MON dynstat_vvel_max             =   1.3414874720684E-01
(PID.TID 0000.0001) %MON dynstat_vvel_min             =  -9.8388974417475E-02
(PID.TID 0000.0001) %MON dynstat_vvel_mean            =   3.3234816392508E-05
(PID.TID 0000.0001) %MON dynstat_vvel_sd              =   8.4084176889584E-03
(PID.TID 0000.0001) %MON dynstat_vvel_del2            =   7.3484185659302E-05
(PID.TID 0000.0001) %MON dynstat_wvel_max             =   1.3630746455106E-04
(PID.TID 0000.0001) %MON dynstat_wvel_min             =  -8.0008666792345E-05
(PID.TID 0000.0001) %MON dynstat_wvel_mean            =   1.1813662131030E-22
(PID.TID 0000.0001) %MON dynstat_wvel_sd              =   1.2018079644134E-05
(PID.TID 0000.0001) %MON dynstat_wvel_del2            =   1.2357209554083E-07
(PID.TID 0000.0001) %MON dynstat_theta_max            =   2.9936731459896E+01
(PID.TID 0000.0001) %MON dynstat_theta_min            =  -1.9524617889833E+00
(PID.TID 0000.0001) %MON dynstat_theta_mean           =   3.6207997727830E+00
(PID.TID 0000.0001) %MON dynstat_theta_sd             =   4.4182978373216E+00
(PID.TID 0000.0001) %MON dynstat_theta_del2           =   4.6714494964725E-03
(PID.TID 0000.0001) %MON dynstat_salt_max             =   3.7453643835537E+01
(PID.TID 0000.0001) %MON dynstat_salt_min             =   2.9830574179792E+01
(PID.TID 0000.0001) %MON dynstat_salt_mean            =   3.4717290049510E+01
(PID.TID 0000.0001) %MON dynstat_salt_sd              =   2.9620810296003E-01
(PID.TID 0000.0001) %MON dynstat_salt_del2            =   9.7073904861584E-04
(PID.TID 0000.0001) %MON dynstat_sst_max              =   2.9936731459896E+01
(PID.TID 0000.0001) %MON dynstat_sst_min              =  -1.9524617889833E+00
(PID.TID 0000.0001) %MON dynstat_sst_mean             =   1.8775691502382E+01
(PID.TID 0000.0001) %MON dynstat_sst_sd               =   9.0967809610225E+00
(PID.TID 0000.0001) %MON dynstat_sst_del2             =   2.4786616373348E-02
(PID.TID 0000.0001) %MON dynstat_sss_max              =   3.7396304087160E+01
(PID.TID 0000.0001) %MON dynstat_sss_min              =   2.9830574179792E+01
(PID.TID 0000.0001) %MON dynstat_sss_mean             =   3.4843179982589E+01
(PID.TID 0000.0001) %MON dynstat_sss_sd               =   9.7566665300172E-01
(PID.TID 0000.0001) %MON dynstat_sss_del2             =   7.6355454831969E-03
(PID.TID 0000.0001) %MON forcing_qnet_max             =   3.4725963338216E+02
(PID.TID 0000.0001) %MON forcing_qnet_min             =  -1.7163685201009E+02
(PID.TID 0000.0001) %MON forcing_qnet_mean            =  -1.3071892980437E+01
(PID.TID 0000.0001) %MON forcing_qnet_sd              =   7.3968055720569E+01
(PID.TID 0000.0001) %MON forcing_qnet_del2            =   9.2759693781153E-01
(PID.TID 0000.0001) %MON forcing_qsw_max              =   0.0000000000000E+00
(PID.TID 0000.0001) %MON forcing_qsw_min              =   0.0000000000000E+00
(PID.TID 0000.0001) %MON forcing_qsw_mean             =   0.0000000000000E+00
(PID.TID 0000.0001) %MON forcing_qsw_sd               =   0.0000000000000E+00
(PID.TID 0000.0001) %MON forcing_qsw_del2             =   0.0000000000000E+00
(PID.TID 0000.0001) %MON forcing_empmr_max            =   6.9416777629764E-05
(PID.TID 0000.0001) %MON forcing_empmr_min            =  -7.4816678363732E-05
(PID.TID 0000.0001) %MON forcing_empmr_mean           =   8.9104925641196E-07
(PID.TID 0000.0001) %MON forcing_empmr_sd             =   2.7637051706411E-05
(PID.TID 0000.0001) %MON forcing_empmr_del2           =   3.5415798098348E-07
(PID.TID 0000.0001) %MON forcing_fu_max               =   3.0993293523788E-01
(PID.TID 0000.0001) %MON forcing_fu_min               =  -2.3727086881797E-01
(PID.TID 0000.0001) %MON forcing_fu_mean              =   1.8007539974469E-02
(PID.TID 0000.0001) %MON forcing_fu_sd                =   9.3162159555480E-02
(PID.TID 0000.0001) %MON forcing_fu_del2              =   7.2147166739709E-04
(PID.TID 0000.0001) %MON forcing_fv_max               =   1.7883819590012E-01
(PID.TID 0000.0001) %MON forcing_fv_min               =  -1.9373511075974E-01
(PID.TID 0000.0001) %MON forcing_fv_mean              =  -7.2584383408382E-03
(PID.TID 0000.0001) %MON forcing_fv_sd                =   4.3856575417137E-02
(PID.TID 0000.0001) %MON forcing_fv_del2              =   5.1243707888960E-04
(PID.TID 0000.0001) %MON trAdv_CFL_u_max              =   4.7601697635072E-02
(PID.TID 0000.0001) %MON trAdv_CFL_v_max              =   2.8083842298216E-02
(PID.TID 0000.0001) %MON trAdv_CFL_w_max              =   3.7808323636222E-02
(PID.TID 0000.0001) %MON advcfl_uvel_max              =   4.8424203985294E-02
(PID.TID 0000.0001) %MON advcfl_vvel_max              =   2.6062950095049E-02
(PID.TID 0000.0001) %MON advcfl_wvel_max              =   4.5345544217127E-02
(PID.TID 0000.0001) %MON advcfl_W_hf_max              =   5.5062446549368E-02
(PID.TID 0000.0001) %MON pe_b_mean                    =   4.4019202202781E-04
(PID.TID 0000.0001) %MON ke_max                       =   1.7039059332576E-02
(PID.TID 0000.0001) %MON ke_mean                      =   1.2588189784924E-04
(PID.TID 0000.0001) %MON ke_vol                       =   1.3226782436723E+18
(PID.TID 0000.0001) %MON vort_r_min                   =  -4.8159522778499E-07
(PID.TID 0000.0001) %MON vort_r_max                   =   4.0235930794840E-07
(PID.TID 0000.0001) %MON vort_a_mean                  =  -2.5274807140485E-05
(PID.TID 0000.0001) %MON vort_a_sd                    =   7.3604613011815E-05
(PID.TID 0000.0001) %MON vort_p_mean                  =  -3.1845655475701E-05
(PID.TID 0000.0001) %MON vort_p_sd                    =   1.3162461419180E-04
(PID.TID 0000.0001) %MON surfExpan_theta_mean         =   3.3639144199800E-07
(PID.TID 0000.0001) %MON surfExpan_salt_mean          =  -2.0824318613675E-08
(PID.TID 0000.0001) // =======================================================
(PID.TID 0000.0001) // End MONITOR dynamic field statistics
(PID.TID 0000.0001) // =======================================================
(PID.TID 0000.0001) // =======================================================
(PID.TID 0000.0001) // Field Current uVel   at iteration         50
(PID.TID 0000.0001) // CMIN =         -1.293652017192576E-01
(PID.TID 0000.0001) // CMAX =          1.852247414680260E-01
(PID.TID 0000.0001) // CINT =          1.165147937730680E-02
(PID.TID 0000.0001) // SYMBOLS (CMIN->CMAX): -abcdefghijklmnopqrstuvwxyz+
(PID.TID 0000.0001) //                  0.0: .
(PID.TID 0000.0001) // RANGE I (Lo:Hi:Step):(     1:    90:     1)
(PID.TID 0000.0001) // RANGE J (Lo:Hi:Step):(    40:     1:    -1)
(PID.TID 0000.0001) // RANGE K (Lo:Hi:Step):(   1:   1:   1)
(PID.TID 0000.0001) // =======================================================
(PID.TID 0000.0001) K =   1
(PID.TID 0000.0001)                I=10      I=20      I=30      I=40      I=50      I=60      I=70      I=80      I=90
(PID.TID 0000.0001) |--J--|123456789|123456789|123456789|123456789|123456789|123456789|123456789|123456789|123456789|
(PID.TID 0000.0001)     40 kkkkk..kkkkkkkkkkkk...................................................................kkkk
(PID.TID 0000.0001)     39 lllllkkkkkkkkk....k......................................................kkk.........jjjjk
(PID.TID 0000.0001)     38 lmmmllkkkklll............................................................kkkk.......jiijkl
(PID.TID 0000.0001)     37 mmm...................................................................k....jj....jjjj..lmm
(PID.TID 0000.0001)     36 nm..........................................kkk.....................kkkkkkjiij..ijjkllmmmn
(PID.TID 0000.0001)     35 ml..................................kkk...kkkkkk....kkkl............kk.....kjijiikmmmmmnml
(PID.TID 0000.0001)     34 ....................................jjj..jkkkkkk..kkklmml...................lkklmnoooonm..
(PID.TID 0000.0001)     33 .....................................jjijjkklllllmmnoooomlk..................lmoqqrrqonlk.
(PID.TID 0000.0001)     32 .....................................jjjjklmnooooopqrrrqpnm.................npqrsssrpnmml.
(PID.TID 0000.0001)     31 .....................................lmnnopppqppqqqrssrqqon...............msutuussrqonmm..
(PID.TID 0000.0001)     30 ....................................prrssstsrrqqrrrrrrqpoom.............orstssssrqqpnmmm..
(PID.TID 0000.0001)     29 ..................................mpqrrsssssrqppoooooonnmmmm............rqqonnmmnnnmllll..
(PID.TID 0000.0001)     28 ................................lmnnmmmnnmmmmlllkklllllllllll..........mmlkjjjjkkllkkjkk..
(PID.TID 0000.0001)     27 ...............k...............mnmljjjjjjjjjjjjjjjkkllklkkkkkk....kkk..llkkjkkkkkkkkkj....
(PID.TID 0000.0001)     26 ...............km............jknomlkjjjkkkjjkkjjkkkllllllkkjjjkk..klmllmlllllllmmlllkj....
(PID.TID 0000.0001)     25 ...............llk....lk....jkklnmjihhhjjjiiijijjkkkjjjjiiiiijjjk....jkkjkkkkkkkkjjiii....
(PID.TID 0000.0001)     24 .............jjiiik..kkj....ij..igdcccdeefeeefffghihgffedeefghiiiijk..igiffhhggghgfffh....
(PID.TID 0000.0001)     23 .............dedegh..ggg....hk...dba---abbabcceefhhggghgfgfgggggffggi.....gegedefeffgj....
(PID.TID 0000.0001)     22 j............a--abeeccdf....j..hadedbbccccccdefghiiijjmmkkiihijihhhhii.......hgdddgijknmnk
(PID.TID 0000.0001)     21 kkj.........fecbbadeegill......khkkigffffggghhiihihhjikkjjiiijlkjjihhj.........gedgjkklllk
(PID.TID 0000.0001)     20 jkj........hijjjhfgiiklmk.........lkkjhiijkkkjjjhihfighhhhgghijjiihgfh..........hdfhiijjii
(PID.TID 0000.0001)     19 jlk........hhjlkkjiiijjiijj....mm......kjmnmmmmlkljhihggffeeededeffeeg............fefghhgh
(PID.TID 0000.0001)     18 hjj........gdffcdffhgfgggijkkkmml....mnmlnonnnnnmmmlkjhhggedccbbceeedeh...........hffghhff
(PID.TID 0000.0001)     17 egh..........hfccfgijghijjjkmml......mnnnnnmnmnnmmmmmkjiihgfeeddeeffede..........lkhgfeedd
(PID.TID 0000.0001)     16 efg.......m..ljiiiilnljkllllll........llmmmmmmmnnnmmmmllkjjihggghhhhhggi.........mkihgeeff
(PID.TID 0000.0001)     15 hhhi.....lk..lkkkijlmmkkllmlk..........kllkllllmnnmmmllkkkkjiiijjjjiihhij.......llkjjihhhh
(PID.TID 0000.0001)     14 iiii.....kjjjkkkkjjlmlijkllkk..........kjjkkkklllmmmmlkkkkkjijkkiijjjjjjj......kkkjjjiihii
(PID.TID 0000.0001)     13 jjih.....kiijjjjjijllihiklkii..........lkklllllklmmmlllllllllllkjjkkkkkkk.....kllkkkjjjjjj
(PID.TID 0000.0001)     12 mmkiihelmmmlkkjjkkkkkkklmlkjjkkkkj.....mnmmmlllllmmlllllmmmnnnmllmmmmlkk......mnnnnnnmnnmm
(PID.TID 0000.0001)     11 qponmlmqstutssrqqqqqpopppooonnmnmll...mnnnm..mnmmmlllllklmnnonnmnnooomlk.....moprssrrrrqqq
(PID.TID 0000.0001)     10 tssrsuvwxyzzz++yxxxwvttttssrqqqponml..nonml..oommlllmmmlllmnooopppppoomm...lloqrtuuuvvuuut
(PID.TID 0000.0001)      9 uuuuuwxwwxyxwxyxwvwwwvuttuutsssrrrpoooppom..moonnnnmmnnnnnnnooopppooonnl..lmoqssstuuvvvvwv
(PID.TID 0000.0001)      8 tttuuuttttttssrrqqpqsttssssssstttuuuuutsqpppoooppqqqppppqqppopppponnnnnm..mmmoppppqrrrrrst
(PID.TID 0000.0001)      7 qqqqqpppppppqppoonmmoppppppppqrrssttvvutsssqpoppppqrssrrqqpooppppooooooqponnnnoonmnooonnop
(PID.TID 0000.0001)      6 mnmmmmmnnnnnnnnnnnmmmmmmnnnnnooppppppqqrssrrqpppppppqrrrrqoooopppppppppppppqqqponmmmmmmmmm
(PID.TID 0000.0001)      5 kkklllmmmlllllllmmmllllllllmmmmmmmmmmmnopqrqppoooooonnoooooooooooooooooooonnponnmmllllllkk
(PID.TID 0000.0001)      4 jjjjkkkkkkkkkkkkkllkkkkkkkkkkkkkkkkllllllmnnnnnmmmmmllllmmnnnnnnnnmmmmmmll...kllkkkkkkkkjj
(PID.TID 0000.0001)      3 jjjjjjjjkk.............................kkkkkkllllkkkkkkkkllllllllllkkkkkk...kkkkkkkkkkkkkj
(PID.TID 0000.0001)      2 ...........................................kkkkkkkkkkjjkkkkkkkkk...kkk......kkkkkkkkkkk...
(PID.TID 0000.0001)      1 ..........................................................................................
(PID.TID 0000.0001) // =======================================================
(PID.TID 0000.0001) // END OF FIELD                                          =
(PID.TID 0000.0001) // =======================================================
(PID.TID 0000.0001) 
(PID.TID 0000.0001) // =======================================================
(PID.TID 0000.0001) // Field Current vVel   at iteration         50
(PID.TID 0000.0001) // CMIN =         -9.768292808897708E-02
(PID.TID 0000.0001) // CMAX =          1.341487472068449E-01
(PID.TID 0000.0001) // CINT =          8.586358344289703E-03
(PID.TID 0000.0001) // SYMBOLS (CMIN->CMAX): -abcdefghijklmnopqrstuvwxyz+
(PID.TID 0000.0001) //                  0.0: .
(PID.TID 0000.0001) // RANGE I (Lo:Hi:Step):(     1:    90:     1)
(PID.TID 0000.0001) // RANGE J (Lo:Hi:Step):(    40:     1:    -1)
(PID.TID 0000.0001) // RANGE K (Lo:Hi:Step):(   1:   1:   1)
(PID.TID 0000.0001) // =======================================================
(PID.TID 0000.0001) K =   1
(PID.TID 0000.0001)                I=10      I=20      I=30      I=40      I=50      I=60      I=70      I=80      I=90
(PID.TID 0000.0001) |--J--|123456789|123456789|123456789|123456789|123456789|123456789|123456789|123456789|123456789|
(PID.TID 0000.0001)     40 jknom.kkkkkkkk...kk..................................................................kjjjj
(PID.TID 0000.0001)     39 jkllljjjjjkll...........................................................kkkk........ijjkkk
(PID.TID 0000.0001)     38 jll.......................................................................kkk......jh.llkk
(PID.TID 0000.0001)     37 ln...................................................................lk...kkj...hknmk.kkjj
(PID.TID 0000.0001)     36 mm.........................................noom....................kkk....iijj.ggjllkjjklk
(PID.TID 0000.0001)     35 ...................................klll..mnoppom...jjlmm...................gfggghijjjjln..
(PID.TID 0000.0001)     34 ....................................jjk.lmnnonnm.kkkkklml...................gceffghhhhjk..
(PID.TID 0000.0001)     33 ....................................khhikkkllllkkkjjkkkkkkl.................ldfgfefgffgil.
(PID.TID 0000.0001)     32 ....................................kiggiijjjkjijjjklllkjjk................pmghiiggggfgi..
(PID.TID 0000.0001)     31 ....................................mljiijjijjjjkkklnnnmkij..............nnljhiiiihhhhik..
(PID.TID 0000.0001)     30 ...................................oolkkklkijkkkkklmooomlji............ppoomkkkkjjjjjjjk..
(PID.TID 0000.0001)     29 .................................opomkjjklkjjkkjjjjlnnmllkjj...........nomllkjjjjiiiijkl..
(PID.TID 0000.0001)     28 ...............................mnmmlkjiijkjjijiijjjkllkjkkkjj.........lmlkjjjiijkjiiij....
(PID.TID 0000.0001)     27 ..............kl..............ommmlllkkjjjijjjjjjkkkkkkkllllkk...llmm.mlkkkklllllllkkl....
(PID.TID 0000.0001)     26 ..............mno...........mopqqrrrpoponmlmnnnnnnnmnoopqqponlkk....nomnmmnopppppqqqpo....
(PID.TID 0000.0001)     25 ..............nprm...nkk...mop.tvxyxwwwwvttstsssstsstvwxxxvtrpnml....qrtprrsstvvutsssr....
(PID.TID 0000.0001)     24 ............mssssnh.lmjj...mnl..qtxyyyz+zyxwvvvvwwwwwxxxyywvtrqooooo.....psuuwyywuttvs....
(PID.TID 0000.0001)     23 ............knqrroj.gjln...jn...-hnqrstvvtrqqqqqqqrssssstutrqommmnnom.......mqsutssqqp....
(PID.TID 0000.0001)     22 l...........iknnnmkjhill......jf-bdefhkllkkjjjjklnoqqrstuutrolkkkklmlk........ppoqqpomlkmm
(PID.TID 0000.0001)     21 kih........jlmljihjihkmoo......i.ddefgkjiiijjklnopqrrruwvuttqonnnmllkk.........kmqrrrponml
(PID.TID 0000.0001)     20 gfg.......lnstrnigikklmol......j......ponllmnnoqqqqqrqsttsrsttsrqonnmk...........trrqqppnk
(PID.TID 0000.0001)     19 ffj.......lnuusnifgijkkjhhi...kkk.....onmllllllmlkklooonlkkmnlllkjjkml...........omlmmmlki
(PID.TID 0000.0001)     18 ghj.......l.sqmgdbbbcfhfehjlmmk.....jkllkkjiiiijiiijlmljhgghhghgffhjllm..........jihhjighh
(PID.TID 0000.0001)     17 fhj.......n.lojgeffgedggfghjll.......lllkkkjjiiijkklmljihgffffggeefgiii.........kkjhiigeef
(PID.TID 0000.0001)     16 fgi......mm.kmkikjimkiikjihgj.........kkkkkkkkklmmmmmmlkjijjjiihgggghiij........klkiiihfff
(PID.TID 0000.0001)     15 ijjk....lpn.iijjjhhmmjjllkjgi.........kjkkkklllllllllmlkklmllmlkjjjjjjklk......jklljjkkkkj
(PID.TID 0000.0001)     14 lmnm....lllighijjghjjjikllkkk.........jijjjjijjkjjkjijjiijjijmkkkkkkjjlmk.....ijjkljijjlml
(PID.TID 0000.0001)     13 kmnn....efihfgijkihiiihikkklk.........ihhiiihhiijiihghihgggghjijkkjkkknn.....jiiijjihhhijk
(PID.TID 0000.0001)     12 lmllkgbdcehhffiijjjjiiijlllkkjkkll....ihiij.ihiijihhiiijihiiihhjmmkkklnn.....hiiijjhhhhijk
(PID.TID 0000.0001)     11 nnmkjiihggikiilnnnmmmlllmnnnmlllkll..jjkkkk.iijklkjjjkjlmllmljjlpqommnnm....fjmlkklkkkkkmn
(PID.TID 0000.0001)     10 rrqqppnlkklnmnprsspnopppqqqqpoonmloo.klmmk..kjkklmllllkmopqponnpstsqponl..mnjnqqpooonopppq
(PID.TID 0000.0001)      9 sstuvusqqpprrssrtvroqstttssssrqqportqooonl.pommnoooopppqrstsqqqruutsrqlj.mpppruvussrqrssss
(PID.TID 0000.0001)      8 rsttttsrrrrsssrppvvrrsttssrrrrrrrrtusqonmnqsqppqrrqqrrrtutttrqqrttssrqli.qprssuvusrqqrrqqq
(PID.TID 0000.0001)      7 pponnoopqpppqpppoqusqppqqpooopqqqprrponmlnqrrqqrssrrrppqqqqqppppqrrrqqpoqrqrtttsrqonopqppp
(PID.TID 0000.0001)      6 nmlkllmnonmnnnmmnopponnnmmlmnnnnnmnnmmlklmopppqqqpppomlllmnooonoppppppppqrqqqpponnnmmnoonn
(PID.TID 0000.0001)      5 lkkkkkkllkkkkkkklmmlllkkkkkkkkkkjkkkllkkklmmmmooonnnmlkkkklnnmmmnnonnnnnmn..llmmllllllllll
(PID.TID 0000.0001)      4 jiiijiiiij............................kkkklkkklmmlllkkkklllllllkklllllkkj...kllkkkkklkkkkk
(PID.TID 0000.0001)      3 ..........................................kkkkkkkkkkkjkllllkkjjj..kkjk.....kklkkjkkkkkk...
(PID.TID 0000.0001)      2 ..........................................................................................
(PID.TID 0000.0001)      1 ..........................................................................................
(PID.TID 0000.0001) // =======================================================
(PID.TID 0000.0001) // END OF FIELD                                          =
(PID.TID 0000.0001) // =======================================================
(PID.TID 0000.0001) 
(PID.TID 0000.0001) // =======================================================
(PID.TID 0000.0001) // Field Current theta  at iteration         50
(PID.TID 0000.0001) // CMIN =         -1.952461788983300E+00
(PID.TID 0000.0001) // CMAX =          2.993673145989622E+01
(PID.TID 0000.0001) // CINT =          1.181081231439982E+00
(PID.TID 0000.0001) // SYMBOLS (CMIN->CMAX): -abcdefghijklmnopqrstuvwxyz+
(PID.TID 0000.0001) //                  0.0: .
(PID.TID 0000.0001) // RANGE I (Lo:Hi:Step):(     1:    90:     1)
(PID.TID 0000.0001) // RANGE J (Lo:Hi:Step):(    40:     1:    -1)
(PID.TID 0000.0001) // RANGE K (Lo:Hi:Step):(   1:   1:   1)
(PID.TID 0000.0001) // =======================================================
(PID.TID 0000.0001) K =   1
(PID.TID 0000.0001)                I=10      I=20      I=30      I=40      I=50      I=60      I=70      I=80      I=90
(PID.TID 0000.0001) |--J--|123456789|123456789|123456789|123456789|123456789|123456789|123456789|123456789|123456789|
(PID.TID 0000.0001)     40 -abccbaa-----aabdddbbbbbbbbbbbbbbbbbbbbbbbbbbbbbbbbbbbbbbbbbbbbbbbbbbbbbbbbbbbbbbbbbbaaa--
(PID.TID 0000.0001)     39 bccddccbba----bbbddbbbbbbbbbbbbbbbbbbbbbbbbbbbbbbbbbbbbbbbbbbbbbbbbbbbbb----bbbbbbbbbaaaab
(PID.TID 0000.0001)     38 eeffeedcccbaabbbbbbbbbbbbbbbbbbbbbbbbbbbbbbbbbbbbbbbbbbbbbbbbbbbbbbbbbbb-----bbbbbbbaaabcd
(PID.TID 0000.0001)     37 fggbbbbbbbbbbbbbbbbbbbbbbbbbbbbbbbbbbbbbbbbbbbbbbbbbbbbbbbbbbbbbbbbbbbbbbbaabbbbdccdebcdee
(PID.TID 0000.0001)     36 hgbbbbbbbbbbbbbbbbbbbbbbbbbbbbbbbbbbbbbbbbbcbaabbbbbbbbbbbbbbbbbbbbccccbbbbcbdbdefgghhhhhg
(PID.TID 0000.0001)     35 ggbbbbbbbbbbbbbbbbbbbbbbbbbbbbbbbbba---bbbccccbabbbeeeefbbbbbbbbbbbbbbbbbbccdedeefghiiiihh
(PID.TID 0000.0001)     34 bbbbbbbbbbbbbbbbbbbbbbbbbbbbbbbbbbb----bbcddddddbddeeffggbbbbbbbbbbbbbbbbbbcacdefghijjjjbb
(PID.TID 0000.0001)     33 bbbbbbbbbbbbbbbbbbbbbbbbbbbbbbbbbbbb-abbccddddeeeeffffgghhibbbbbbbbbbbbbbbbbabdgiijkkkkkkb
(PID.TID 0000.0001)     32 bbbbbbbbbbbbbbbbbbbbbbbbbbbbbbbbbbbbaabccdeeefffgggghhhhiiibbbbbbbbbbbbbbbbccbcjllmmlllkkb
(PID.TID 0000.0001)     31 bbbbbbbbbbbbbbbbbbbbbbbbbbbbbbbbbbbbdffgghhhiiiiiijjjkkkkkkbbbbbbbbbbbbbbgjljhkmnnnnmmmmbb
(PID.TID 0000.0001)     30 bbbbbbbbbbbbbbbbbbbbbbbbbbbbbbbbbbblkkkkllllllllllllmmmmmmlbbbbbbbbbbbbmnopppppppppooonobb
(PID.TID 0000.0001)     29 bbbbbbbbbbbbbbbbbbbbbbbbbbbbbbbbboooooonoonnnnnnnnoooopoonnmbbbbbbbbbbbqqrrqqqqqqqqqppopbb
(PID.TID 0000.0001)     28 bbbbbbbbbbbbbbbbbbbbbbbbbbbbbbbopqqqqqppqqqqqqqqqqqqqrqqqponobbbbbbbbbsssrrrsrrrrrrqqqqpbb
(PID.TID 0000.0001)     27 bbbbbbbbbbbbbbvvbbbbbbbbbbbbbbrrssssssssssssssssstsssssrrrqppqbbbssstbuuuttuuttttsssrrbbbb
(PID.TID 0000.0001)     26 bbbbbbbbbbbbbbvuubbbbbbbbbbbutuuuuuuvvvvvvvuuuuuuuuuuttsssrrrssubttuvvvvvvvvvuuuutssrqbbbb
(PID.TID 0000.0001)     25 bbbbbbbbbbbbbbvvwwbbbxwxbbbuvvwwwwwwxwwwwwwwwwwvvvvvuuuuutttuuvwwbbbwwwwwwwvvvvuuutsrqbbbb
(PID.TID 0000.0001)     24 bbbbbbbbbbbbwvvwxyybxxxxbbbwwwbxxxxyyxxxxxwwwwwwwwwvvwvvvvvvwwwxxwvvbxwwwwwwwwvvvuutsrbbbb
(PID.TID 0000.0001)     23 bbbbbbbbbbbbxwxxyyzbxxxxbbbxxxbbxyyyyyxyxxxxxxxxxxxxxxxxxwwwwwwwwwwwvbbbbwwxwwwwwvvvvubbbb
(PID.TID 0000.0001)     22 wbbbbbbbbbbbxxxyyyyyyyyybbbxxbyyyyyzzzyzzyyyyyyyyyxyyyxxxxxxxxwwwwwwwwbbbbbbyxxxxxxxxxxxxx
(PID.TID 0000.0001)     21 wwwbbbbbbbbxxxyyyyyyzzz++bbbbbyzzzzzzz+++zzzzzyyyyyyyyyxxxxxxxxwwwvvvvbbbbbbbbyyyyyyyzyyxx
(PID.TID 0000.0001)     20 xwvbbbbbbbyyyyyyzzzz+zz++bbbbbbzbzzzzz+++++zzzzzzzyzyyyyxxxxxxxxwwwvvubbbbbbbbbyyyyyyyyxxx
(PID.TID 0000.0001)     19 wvvbbbbbbbzzzzyzzzyzzzzzzzzbbbzzzbbbbb+++++++++zzzzzzzyyyxxxxxxwwwwwvubbbbbbbbbbbyyyxxxwww
(PID.TID 0000.0001)     18 wvubbbbbbbzzyyxyyyyyyyyzzzzzzz+zzbbb++++++++z+++++zzzzzyyyyxxwwwvvwvvutbbbbbbbbbbyyxxxwwww
(PID.TID 0000.0001)     17 uutbbbbbbbzbyyyyyxyyyyyyyyyyzzzbbbbbzzzzz++zzzzzzzzzzzyyyyyxxwwvvvvvutubbbbbbbbbyyyyxwvvvv
(PID.TID 0000.0001)     16 utsbbbbbbyzbzyyyxxxxxxxxxxxxyzbbbbbbbyyyzzzzzzzzzzzzzzyyyyyyxxwwwvvuutttbbbbbbbbyyyyywvvvu
(PID.TID 0000.0001)     15 utrrbbbbxyybxyxxxwxxwwwwvvwwxbbbbbbbbbxxxxxyyxxyyyyyyyxyyyyyxxwwwvuuttsssbbbbbbxxyyyyxxwvu
(PID.TID 0000.0001)     14 utsqbbbbxyxwxxwwwwwwvuvuuuuuubbbbbbbbbwwwwwwwwwwwxwwwwwwxxxxxwwwwvvuttsssbbbbbwwxxxxxxwwwu
(PID.TID 0000.0001)     13 uttrbbbbwxwwwwuuuvvuuuuttttttbbbbbbbbbvwvvvvvvvvuvuuuvvvvwwwwwvvvuuuutssqbbbbvwwwwwwwwwvvu
(PID.TID 0000.0001)     12 sstsststuuuttutssssstttsrssssrqsrqbbbbuvuutttttssssssssstttutttttsttssrqbbbbbuvvuuttuutttt
(PID.TID 0000.0001)     11 qpqrsssssssrrsrqqqpppqqppqppqqqqqqqbbtttsssbsrrrrrrrrrrrrrrrqqqqqqrrrrqpbbbbprsssrrrrrqqqq
(PID.TID 0000.0001)     10 mmmmoooppoooooonnnnnmnnmmmmmmnnooooobqrrqqqbqqqqqqqppppppppoooooonooopoobboooqpooooooooonm
(PID.TID 0000.0001)      9 jjiijjjjjjjjjjjjjijjjjjiijjjjjkllmnmmnoooobnnonoooononnnnnmmlmmmmmllmmmmbmmmnnnmllkjkkjjjj
(PID.TID 0000.0001)      8 fgffffggfggghhhggfggghgggghhhiijjjjkkkllllllllllllllllllkkjjjjjkkkkjkklkbkkkkjjiihhhgggfff
(PID.TID 0000.0001)      7 dddeeeefffeefffffeeeeeeeeffggggghhhhhhijjjjjjjkkjjiiiiiiiiiiihiiiiiiiijjiijiihhgfeeeeeeeed
(PID.TID 0000.0001)      6 cccdddeeeeedeeeeeeeeeeeeeeeedeefffffffgghhhhhhhihgffffffgggffffgghhhhhhhhhhggffeedddddddcc
(PID.TID 0000.0001)      5 ccdddddddddddddeeddddddddddddeeeeeeeeeeeeffffeeeeeddcdddeeeeeeeeeefffffeeeeeeddddccccccccc
(PID.TID 0000.0001)      4 cccdccccccccbccccccccbbbbbbbcccccccbccccddddcccccccccccccccccdddccccdddddcbbbaabcccccccccc
(PID.TID 0000.0001)      3 bbbbbbaaaabbbbbbbbbbbbbbbbbbbbbbbbbbbbbbbbbbbbbbbbbbbbbbbbbbbbbbbbaabbbbbbbaaaaabbbcccbbbb
(PID.TID 0000.0001)      2 bbbbbbbbbbbbbbbbbbbbbbbbbbbbbbbbbbbbbbbbbbbbbbbbbbbaaaaaaaaa-aaabbaaaabbbbbaaaaaabbbbbbbbb
(PID.TID 0000.0001)      1 bbbbbbbbbbbbbbbbbbbbbbbbbbbbbbbbbbbbbbbbbbbbbbbbbbbbbbbbbbbbbbbbbbbbbbbbbbbbbbbbbbbbbbbbbb
(PID.TID 0000.0001) // =======================================================
(PID.TID 0000.0001) // END OF FIELD                                          =
(PID.TID 0000.0001) // =======================================================
(PID.TID 0000.0001) 
(PID.TID 0000.0001) // =======================================================
(PID.TID 0000.0001) // Field Current etaN   at iteration         50
(PID.TID 0000.0001) // CMIN =         -1.819649034674817E+00
(PID.TID 0000.0001) // CMAX =          7.926548457453523E-01
(PID.TID 0000.0001) // CINT =          9.675199557111737E-02
(PID.TID 0000.0001) // SYMBOLS (CMIN->CMAX): -abcdefghijklmnopqrstuvwxyz+
(PID.TID 0000.0001) //                  0.0: .
(PID.TID 0000.0001) // RANGE I (Lo:Hi:Step):(    -1:    92:     1)
(PID.TID 0000.0001) // RANGE J (Lo:Hi:Step):(    42:    -1:    -1)
(PID.TID 0000.0001) // RANGE K (Lo:Hi:Step):(   1:   1:   1)
(PID.TID 0000.0001) // =======================================================
(PID.TID 0000.0001) K =   1
(PID.TID 0000.0001)                I=8       I=18      I=28      I=38      I=48      I=58      I=68      I=78      I=88
(PID.TID 0000.0001) |--J--|101234567|901234567|901234567|901234567|901234567|901234567|901234567|901234567|901234567|9012
(PID.TID 0000.0001)     42 ............................................bbbbbbbccccddddccccccc..dddd.....--aaaabbbbba.....
(PID.TID 0000.0001)     41 ..............................................................................................
(PID.TID 0000.0001)     40 mmmmmmn.ooooooooooooo..................................................................mmmmmmm
(PID.TID 0000.0001)     39 mmmmmmnnnnnnnnno...pp.....................................................kkkk........nnnmmmmm
(PID.TID 0000.0001)     38 mmmnnoonnooonno...........................................................lllkk......onmmmmmmn
(PID.TID 0000.0001)     37 mmnno..................................................................nn...llk...mmlmm.lmmmnn
(PID.TID 0000.0001)     36 nnnp.........................................pqqq....................nnnnnmlkkkk.nkjklmnmmnnnp
(PID.TID 0000.0001)     35 pppp.................................oooo..pppppqp...srrrs...........ooo....ljjjjjjjkllmnnpppp
(PID.TID 0000.0001)     34 .....................................pooo.pppppppq.rqqpqqst..................mlkjjjjklmnnq....
(PID.TID 0000.0001)     33 n.....................................ppopppppppqqqqqqqqrrsst.................nlklllmnooonn...
(PID.TID 0000.0001)     32 o.....................................qppopppppqrqqrrrrrrssss................hmmmmooopppooo...
(PID.TID 0000.0001)     31 ......................................pqqppqqrrrrrrsssssttttt..............noopoooppppppoo....
(PID.TID 0000.0001)     30 .....................................rrsssssssssttttttttuuuut............mppqrrrsrrrqqqppp....
(PID.TID 0000.0001)     29 ...................................tuvvvvvvvvuuuuuuuuuuuvvvuut...........qsstttsssssrqqqpq....
(PID.TID 0000.0001)     28 .................................vwwxyyyxxxxxwwwwvvvvvvvvvvvutt.........ttttttttssssrrqqqq....
(PID.TID 0000.0001)     27 ................tt..............zyyyyzzzyyyyyxxxxwwwwwwwvvvvuutt...uuuu.uuuuuttsssrrrqqp......
(PID.TID 0000.0001)     26 ................ttt...........+zzzzzzzzzzzzzyyyxxxxxxwwwwvvvuuuttu.vuuvwvvvuuuttssrrrqqp......
(PID.TID 0000.0001)     25 ................uuuv...www...zzyz+zzzyyyyzyyyyyxxxxxxwwwwvvvuuuuuuu...vwwwvvuuttsssrrqqp......
(PID.TID 0000.0001)     24 ..............uuuuuvw.wwww...+zy.+zyyyxxxyyyxxxxwwwwwwvvvvuuuuuuvvvuuu.wvvvuuuttsssrrrqq......
(PID.TID 0000.0001)     23 ..............uuuuvvv.wwww...zzy..zyxxxxxxxxxxxxwxxwwwwvvvvvuuuuuuuuuuu....uuuutssssrrrr......
(PID.TID 0000.0001)     22 sss...........uuuuvvvvwwww...+z.yyyyyyyyyyyyxxxxyxxxxxxxwwvvvvuuuuuuuuuu......uuttsssssssssss.
(PID.TID 0000.0001)     21 ssrsr........vuuuuuvvwwxwxx.....xyzyyyyyyzzyyyyyyxxxxxxxxwwvvvvvvvuuuuuv........tttttsssssssrs
(PID.TID 0000.0001)     20 ssrsr.......wvvvvwvwwwxxxxx......y.xxxxyyyyyyyyyxxxxxxxwwwwwvvvvvuuuuuuu.........tttttssrrssrs
(PID.TID 0000.0001)     19 rrrrr.......wwwwwwwwwwxxwwxww...yyy.....yyyyyyyyxyyxxxxwwwwwvvvvvvuuuuuu...........uttsssrrrrr
(PID.TID 0000.0001)     18 rrrrq.......xxxwwvwvwwwwwwwwwwxxxxy...zzyyyyyyyyyyyxxxxxwwwwwvvvuuuttuutt..........uttssrrrrrr
(PID.TID 0000.0001)     17 rqqqq.......x.yxwwwwwwwwwwwwwwxxx.....zzyyyyyyyxxyyxxyxxxwwwwwvvvuuuuuutt.........vuttssrrrqqq
(PID.TID 0000.0001)     16 rrqqq......zx.+yyxxxyxxwwwwwwwwx.......yyyyyyyyyyyyyyyyxxxxxwwwwvvuuuuutts........uutttssrrrqq
(PID.TID 0000.0001)     15 ssrrqp....zyx.zyyyxxxxwwwwwvuvw.........yxxxxyyyyyyyyyyyxxxyyxxwwvvvuuuttss......uuuuuuuttssrr
(PID.TID 0000.0001)     14 ttssrq....zzxxyyxxxxxwvvvvvuutt.........xxxxxxxxxwxxxxxxxxyyyxxxwwvvvvuutss.....uuuuuuuuuuttss
(PID.TID 0000.0001)     13 uttssr....yyyxxxwwwwwvvvvvvuttt.........wwwwwvvvvvvvvvvwwwwxxxxxwwvvvvuutss....stttuuuuuvvutts
(PID.TID 0000.0001)     12 tttssrrptvxyxwwxwvvvvuuvvvutttttttss....vvvvuuuuuuuuuuuuuvvvvvvvvwvvuuutts.....tttttttttuuttts
(PID.TID 0000.0001)     11 sssrrrrttuvwxwwwwvvuuuttuutttssssssss..tuuuuu.tutttstttuuuuuuuuuvvvuttttss....prrrrrrrrssssssr
(PID.TID 0000.0001)     10 qqpppppqqqrsssrstssrrrrrrrrrrrqrrrrsss.sttttt.rsssssttttuuutttttuvutssssss..pmpqpooooooppqqqpp
(PID.TID 0000.0001)      9 mmmmnnmmllmmmmmmmnmllmnooooooooopqqrssrrssss.rqqrssssstttuuutsssttssrrrqrq.ppnnonmlkkkklllmmmm
(PID.TID 0000.0001)      8 hhiiiihhghhhiiiiiikihijjkkkkkkllmmnoppppqqrstqppqqqqrrssssssrrrrrsrqqqqpqt.nnmllkihhggghhhhhii
(PID.TID 0000.0001)      7 eeeeddeeeeffffffgghigfeffgggghhiiijjjjjjkmnooonnnnnmmmnnooooonoopppoooooooonmmljihfedeeeedeeee
(PID.TID 0000.0001)      6 bbaabbccddddddddeefffeddeddeeffffffffeefghjkllkjjjiiihhhijkkllllllmllllllkkjiihgedddccccccbbaa
(PID.TID 0000.0001)      5 aaaaabbccccbcccccdddddcccccccdddccccddddddefffgggfeeedddefghiihhhiihhhhhggfedcbbbbbbbbbbbaaaaa
(PID.TID 0000.0001)      4 aaaaabbbbbccccccccccccccccccccccccccccbccccccccccccbbbccddeeeeeeeefeeeedddde..aaaaaaaaaaaaaaaa
(PID.TID 0000.0001)      3 bbbbcccccccc............................bbbbbbbbbbbbbbcccddcccccccddddddded..bbaaaaaaaaabbbbbb
(PID.TID 0000.0001)      2 ............................................bbbbbbbccccddddccccccc..dddd.....--aaaabbbbba.....
(PID.TID 0000.0001)      1 ..............................................................................................
(PID.TID 0000.0001)      0 mmmmmmn.ooooooooooooo..................................................................mmmmmmm
(PID.TID 0000.0001)     -1 mmmmmmnnnnnnnnno...pp.....................................................kkkk........nnnmmmmm
(PID.TID 0000.0001) // =======================================================
(PID.TID 0000.0001) // END OF FIELD                                          =
(PID.TID 0000.0001) // =======================================================
(PID.TID 0000.0001) 
(PID.TID 0000.0001)  MDS_WRITE_FIELD: it,rec,kS,kL,kH=      50     1  15   1  15 file=U.0000000050
(PID.TID 0000.0001)  MDS_WRITE_FIELD: it,rec,kS,kL,kH=      50     1  15   1  15 file=V.0000000050
(PID.TID 0000.0001)  MDS_WRITE_FIELD: it,rec,kS,kL,kH=      50     1  15   1  15 file=T.0000000050
(PID.TID 0000.0001)  MDS_WRITE_FIELD: it,rec,kS,kL,kH=      50     1  15   1  15 file=S.0000000050
(PID.TID 0000.0001)  MDS_WRITE_FIELD: it,rec,kS,kL,kH=      50     1   1   1   1 file=Eta.0000000050
(PID.TID 0000.0001)  MDS_WRITE_FIELD: it,rec,kS,kL,kH=      50     1  15   1  15 file=W.0000000050
(PID.TID 0000.0001)  MDS_WRITE_FIELD: it,rec,kS,kL,kH=      50     1  15   1  15 file=PH.0000000050
(PID.TID 0000.0001)  MDS_WRITE_FIELD: it,rec,kS,kL,kH=      50     1   1   1   1 file=PHL.0000000050
(PID.TID 0000.0001)  MDS_WRITE_FIELD: it,rec,kS,kL,kH=      50     1   1   1   1 file=ETAtave.0000000050
(PID.TID 0000.0001)  MDS_WRITE_FIELD: it,rec,kS,kL,kH=      50     1  15   1  15 file=Ttave.0000000050
(PID.TID 0000.0001)  MDS_WRITE_FIELD: it,rec,kS,kL,kH=      50     1  15   1  15 file=Stave.0000000050
(PID.TID 0000.0001)  MDS_WRITE_FIELD: it,rec,kS,kL,kH=      50     1  15   1  15 file=uVeltave.0000000050
(PID.TID 0000.0001)  MDS_WRITE_FIELD: it,rec,kS,kL,kH=      50     1  15   1  15 file=vVeltave.0000000050
(PID.TID 0000.0001)  MDS_WRITE_FIELD: it,rec,kS,kL,kH=      50     1  15   1  15 file=wVeltave.0000000050
(PID.TID 0000.0001)  MDS_WRITE_FIELD: it,rec,kS,kL,kH=      50     1   1   1   1 file=Eta2tave.0000000050
(PID.TID 0000.0001)  MDS_WRITE_FIELD: it,rec,kS,kL,kH=      50     1  15   1  15 file=UTtave.0000000050
(PID.TID 0000.0001)  MDS_WRITE_FIELD: it,rec,kS,kL,kH=      50     1  15   1  15 file=VTtave.0000000050
(PID.TID 0000.0001)  MDS_WRITE_FIELD: it,rec,kS,kL,kH=      50     1  15   1  15 file=WTtave.0000000050
(PID.TID 0000.0001)  MDS_WRITE_FIELD: it,rec,kS,kL,kH=      50     1  15   1  15 file=UStave.0000000050
(PID.TID 0000.0001)  MDS_WRITE_FIELD: it,rec,kS,kL,kH=      50     1  15   1  15 file=VStave.0000000050
(PID.TID 0000.0001)  MDS_WRITE_FIELD: it,rec,kS,kL,kH=      50     1  15   1  15 file=WStave.0000000050
(PID.TID 0000.0001)  MDS_WRITE_FIELD: it,rec,kS,kL,kH=      50     1  15   1  15 file=TTtave.0000000050
(PID.TID 0000.0001)  MDS_WRITE_FIELD: it,rec,kS,kL,kH=      50     1  15   1  15 file=UUtave.0000000050
(PID.TID 0000.0001)  MDS_WRITE_FIELD: it,rec,kS,kL,kH=      50     1  15   1  15 file=VVtave.0000000050
(PID.TID 0000.0001)  MDS_WRITE_FIELD: it,rec,kS,kL,kH=      50     1  15   1  15 file=UVtave.0000000050
(PID.TID 0000.0001)  MDS_WRITE_FIELD: it,rec,kS,kL,kH=      50     1  15   1  15 file=Tdiftave.0000000050
(PID.TID 0000.0001)  MDS_WRITE_FIELD: it,rec,kS,kL,kH=      50     1  15   1  15 file=PhHytave.0000000050
(PID.TID 0000.0001)  MDS_WRITE_FIELD: it,rec,kS,kL,kH=      50     1   1   1   1 file=PHLtave.0000000050
(PID.TID 0000.0001)  MDS_WRITE_FIELD: it,rec,kS,kL,kH=      50     1   1   1   1 file=uFluxtave.0000000050
(PID.TID 0000.0001)  MDS_WRITE_FIELD: it,rec,kS,kL,kH=      50     1   1   1   1 file=vFluxtave.0000000050
(PID.TID 0000.0001)  MDS_WRITE_FIELD: it,rec,kS,kL,kH=      50     1   1   1   1 file=tFluxtave.0000000050
(PID.TID 0000.0001)  MDS_WRITE_FIELD: it,rec,kS,kL,kH=      50     1   1   1   1 file=sFluxtave.0000000050
(PID.TID 0000.0001)  MDS_WRITE_FIELD: it,rec,kS,kL,kH=      50     1   1   1   1 file=PHL2tave.0000000050
(PID.TID 0000.0001)  MDS_WRITE_FIELD: it,rec,kS,kL,kH=      50     1  15   1  15 file=Convtave.0000000050
(PID.TID 0000.0001) // Time-average data written, t-step        50
(PID.TID 0000.0001) 
(PID.TID 0000.0001)  MDS_WRITE_FIELD: it,rec,kS,kL,kH=      50     1  15   1  15 file=GM_Kwx-T.0000000050
(PID.TID 0000.0001)  MDS_WRITE_FIELD: it,rec,kS,kL,kH=      50     1  15   1  15 file=GM_Kwy-T.0000000050
(PID.TID 0000.0001)  MDS_WRITE_FIELD: it,rec,kS,kL,kH=      50     1  15   1  15 file=GM_Kwz-T.0000000050
(PID.TID 0000.0001)  MDS_WRITE_FIELD: it,rec,kS,kL,kH=      50     1   1   1   1 file=ETAN_forecast.0000000050
(PID.TID 0000.0001)  MDS_WRITE_FIELD: it,rec,kS,kL,kH=      50     1  15   1  15 file=THETA_forecast.0000000050
(PID.TID 0000.0001)  MDS_WRITE_FIELD: it,rec,kS,kL,kH=      50     1  15   1  15 file=SALT_forecast.0000000050
(PID.TID 0000.0001)  MDS_WRITE_FIELD: it,rec,kS,kL,kH=      50     1  15   1  15 file=UVEL_forecast.0000000050
(PID.TID 0000.0001)  MDS_WRITE_FIELD: it,rec,kS,kL,kH=      50     1  15   1  15 file=VVEL_forecast.0000000050
(PID.TID 0000.0001)  MDS_WRITE_FIELD: it,rec,kS,kL,kH=      50     1   1   1   1 file=ETAN_001_forecast.0000000050
(PID.TID 0000.0001)  MDS_WRITE_FIELD: it,rec,kS,kL,kH=      50     1  15   1  15 file=THETA_001_forecast.0000000050
(PID.TID 0000.0001)  MDS_WRITE_FIELD: it,rec,kS,kL,kH=      50     1  15   1  15 file=SALT_001_forecast.0000000050
(PID.TID 0000.0001)  MDS_WRITE_FIELD: it,rec,kS,kL,kH=      50     1  15   1  15 file=UVEL_001_forecast.0000000050
(PID.TID 0000.0001)  MDS_WRITE_FIELD: it,rec,kS,kL,kH=      50     1  15   1  15 file=VVEL_001_forecast.0000000050
(PID.TID 0000.0001)  MDS_WRITE_FIELD: it,rec,kS,kL,kH=      50     1   1   1   1 file=ETAN_002_forecast.0000000050
(PID.TID 0000.0001)  MDS_WRITE_FIELD: it,rec,kS,kL,kH=      50     1  15   1  15 file=THETA_002_forecast.0000000050
(PID.TID 0000.0001)  MDS_WRITE_FIELD: it,rec,kS,kL,kH=      50     1  15   1  15 file=SALT_002_forecast.0000000050
(PID.TID 0000.0001)  MDS_WRITE_FIELD: it,rec,kS,kL,kH=      50     1  15   1  15 file=UVEL_002_forecast.0000000050
(PID.TID 0000.0001)  MDS_WRITE_FIELD: it,rec,kS,kL,kH=      50     1  15   1  15 file=VVEL_002_forecast.0000000050
(PID.TID 0000.0001)  MDS_WRITE_FIELD: it,rec,kS,kL,kH=      50     1   1   1   1 file=ETAN_003_forecast.0000000050
(PID.TID 0000.0001)  MDS_WRITE_FIELD: it,rec,kS,kL,kH=      50     1  15   1  15 file=THETA_003_forecast.0000000050
(PID.TID 0000.0001)  MDS_WRITE_FIELD: it,rec,kS,kL,kH=      50     1  15   1  15 file=SALT_003_forecast.0000000050
(PID.TID 0000.0001)  MDS_WRITE_FIELD: it,rec,kS,kL,kH=      50     1  15   1  15 file=UVEL_003_forecast.0000000050
(PID.TID 0000.0001)  MDS_WRITE_FIELD: it,rec,kS,kL,kH=      50     1  15   1  15 file=VVEL_003_forecast.0000000050
(PID.TID 0000.0001)  MDS_WRITE_FIELD: it,rec,kS,kL,kH=      50     1   1   1   1 file=ETAN_004_forecast.0000000050
(PID.TID 0000.0001)  MDS_WRITE_FIELD: it,rec,kS,kL,kH=      50     1  15   1  15 file=THETA_004_forecast.0000000050
(PID.TID 0000.0001)  MDS_WRITE_FIELD: it,rec,kS,kL,kH=      50     1  15   1  15 file=SALT_004_forecast.0000000050
(PID.TID 0000.0001)  MDS_WRITE_FIELD: it,rec,kS,kL,kH=      50     1  15   1  15 file=UVEL_004_forecast.0000000050
(PID.TID 0000.0001)  MDS_WRITE_FIELD: it,rec,kS,kL,kH=      50     1  15   1  15 file=VVEL_004_forecast.0000000050
(PID.TID 0000.0001)  MDS_WRITE_FIELD: it,rec,kS,kL,kH=      50     1   1   1   1 file=ETAN_analysis.0000000050
(PID.TID 0000.0001)  MDS_WRITE_FIELD: it,rec,kS,kL,kH=      50     1  15   1  15 file=THETA_analysis.0000000050
(PID.TID 0000.0001)  MDS_WRITE_FIELD: it,rec,kS,kL,kH=      50     1  15   1  15 file=SALT_analysis.0000000050
(PID.TID 0000.0001)  MDS_WRITE_FIELD: it,rec,kS,kL,kH=      50     1  15   1  15 file=UVEL_analysis.0000000050
(PID.TID 0000.0001)  MDS_WRITE_FIELD: it,rec,kS,kL,kH=      50     1  15   1  15 file=VVEL_analysis.0000000050
(PID.TID 0000.0001)  MDS_WRITE_FIELD: it,rec,kS,kL,kH=      50     1   1   1   1 file=ETAN_001_analysis.0000000050
(PID.TID 0000.0001)  MDS_WRITE_FIELD: it,rec,kS,kL,kH=      50     1  15   1  15 file=THETA_001_analysis.0000000050
(PID.TID 0000.0001)  MDS_WRITE_FIELD: it,rec,kS,kL,kH=      50     1  15   1  15 file=SALT_001_analysis.0000000050
(PID.TID 0000.0001)  MDS_WRITE_FIELD: it,rec,kS,kL,kH=      50     1  15   1  15 file=UVEL_001_analysis.0000000050
(PID.TID 0000.0001)  MDS_WRITE_FIELD: it,rec,kS,kL,kH=      50     1  15   1  15 file=VVEL_001_analysis.0000000050
(PID.TID 0000.0001)  MDS_WRITE_FIELD: it,rec,kS,kL,kH=      50     1   1   1   1 file=ETAN_002_analysis.0000000050
(PID.TID 0000.0001)  MDS_WRITE_FIELD: it,rec,kS,kL,kH=      50     1  15   1  15 file=THETA_002_analysis.0000000050
(PID.TID 0000.0001)  MDS_WRITE_FIELD: it,rec,kS,kL,kH=      50     1  15   1  15 file=SALT_002_analysis.0000000050
(PID.TID 0000.0001)  MDS_WRITE_FIELD: it,rec,kS,kL,kH=      50     1  15   1  15 file=UVEL_002_analysis.0000000050
(PID.TID 0000.0001)  MDS_WRITE_FIELD: it,rec,kS,kL,kH=      50     1  15   1  15 file=VVEL_002_analysis.0000000050
(PID.TID 0000.0001)  MDS_WRITE_FIELD: it,rec,kS,kL,kH=      50     1   1   1   1 file=ETAN_003_analysis.0000000050
(PID.TID 0000.0001)  MDS_WRITE_FIELD: it,rec,kS,kL,kH=      50     1  15   1  15 file=THETA_003_analysis.0000000050
(PID.TID 0000.0001)  MDS_WRITE_FIELD: it,rec,kS,kL,kH=      50     1  15   1  15 file=SALT_003_analysis.0000000050
(PID.TID 0000.0001)  MDS_WRITE_FIELD: it,rec,kS,kL,kH=      50     1  15   1  15 file=UVEL_003_analysis.0000000050
(PID.TID 0000.0001)  MDS_WRITE_FIELD: it,rec,kS,kL,kH=      50     1  15   1  15 file=VVEL_003_analysis.0000000050
(PID.TID 0000.0001)  MDS_WRITE_FIELD: it,rec,kS,kL,kH=      50     1   1   1   1 file=ETAN_004_analysis.0000000050
(PID.TID 0000.0001)  MDS_WRITE_FIELD: it,rec,kS,kL,kH=      50     1  15   1  15 file=THETA_004_analysis.0000000050
(PID.TID 0000.0001)  MDS_WRITE_FIELD: it,rec,kS,kL,kH=      50     1  15   1  15 file=SALT_004_analysis.0000000050
(PID.TID 0000.0001)  MDS_WRITE_FIELD: it,rec,kS,kL,kH=      50     1  15   1  15 file=UVEL_004_analysis.0000000050
(PID.TID 0000.0001)  MDS_WRITE_FIELD: it,rec,kS,kL,kH=      50     1  15   1  15 file=VVEL_004_analysis.0000000050
 EXTERNAL_FIELDS_LOAD,        50 : iP,iLd,i0,i1=    2    3    2    3 ; Wght=  0.8333333333  0.1666666667
 EXTERNAL_FIELDS_LOAD: (fu0,1),fu,fv= -1.4435E-02 -2.7199E-02 -1.6562E-02 -1.4793E-02
 EXTERNAL_FIELDS_LOAD: SST,SSS,Q,E-P= -4.7386E-01  3.4447E+01  2.3630E+02  8.4945E-06
DEBUG_STATS_RL:          Uvel (THERMODYNAMICS)  min= -1.26767564435725E-01
DEBUG_STATS_RL:          Uvel (THERMODYNAMICS)  max=  1.85087294503816E-01
DEBUG_STATS_RL:          Uvel (THERMODYNAMICS) mean=  5.57143097687545E-03
DEBUG_STATS_RL:          Uvel (THERMODYNAMICS) S.D.=  2.36068072833070E-02
DEBUG_STATS_RL:          Vvel (THERMODYNAMICS)  min= -1.00210398696534E-01
DEBUG_STATS_RL:          Vvel (THERMODYNAMICS)  max=  1.34176492556719E-01
DEBUG_STATS_RL:          Vvel (THERMODYNAMICS) mean=  1.57815120620728E-03
DEBUG_STATS_RL:          Vvel (THERMODYNAMICS) S.D.=  1.39027397969254E-02
DEBUG_STATS_RL:          Wvel (THERMODYNAMICS)  min= -8.00086667923453E-05
DEBUG_STATS_RL:          Wvel (THERMODYNAMICS)  max=  1.36307464551061E-04
DEBUG_STATS_RL:          Wvel (THERMODYNAMICS) mean=  3.79979718764915E-08
DEBUG_STATS_RL:          Wvel (THERMODYNAMICS) S.D.=  1.06815230516642E-05
DEBUG_STATS_RL:         Theta (THERMODYNAMICS)  min= -1.95085320319431E+00
DEBUG_STATS_RL:         Theta (THERMODYNAMICS)  max=  2.99327615355393E+01
DEBUG_STATS_RL:         Theta (THERMODYNAMICS) mean=  3.21141405839463E+00
DEBUG_STATS_RL:         Theta (THERMODYNAMICS) S.D.=  5.86291301003316E+00
DEBUG_STATS_RL:          Salt (THERMODYNAMICS)  min= -6.86350255588998E-04
DEBUG_STATS_RL:          Salt (THERMODYNAMICS)  max=  3.74540747873693E+01
DEBUG_STATS_RL:          Salt (THERMODYNAMICS) mean=  1.88442321404920E+01
DEBUG_STATS_RL:          Salt (THERMODYNAMICS) S.D.=  1.73004319947263E+01
DEBUG_STATS_RL:         GtNm1 (THERMODYNAMICS)  min= -2.80295889434375E-06
DEBUG_STATS_RL:         GtNm1 (THERMODYNAMICS)  max=  2.60694947058014E-06
DEBUG_STATS_RL:         GtNm1 (THERMODYNAMICS) mean=  2.26492195113916E-09
DEBUG_STATS_RL:         GtNm1 (THERMODYNAMICS) S.D.=  1.64507520047982E-07
DEBUG_STATS_RL:         GsNm1 (THERMODYNAMICS)  min= -4.30451898011490E-07
DEBUG_STATS_RL:         GsNm1 (THERMODYNAMICS)  max=  3.43331151317736E-07
DEBUG_STATS_RL:         GsNm1 (THERMODYNAMICS) mean=  1.01113418168296E-10
DEBUG_STATS_RL:         GsNm1 (THERMODYNAMICS) S.D.=  1.67871637021861E-08
DEBUG_STATS_RL:                EtaN (DYNAMICS)  min= -1.86221533822454E+00
DEBUG_STATS_RL:                EtaN (DYNAMICS)  max=  8.38501748473855E-01
DEBUG_STATS_RL:                EtaN (DYNAMICS) mean= -1.72833530514390E-01
DEBUG_STATS_RL:                EtaN (DYNAMICS) S.D.=  6.80463989914901E-01
DEBUG_STATS_RL:                Uvel (DYNAMICS)  min= -1.26767564435725E-01
DEBUG_STATS_RL:                Uvel (DYNAMICS)  max=  1.85087294503816E-01
DEBUG_STATS_RL:                Uvel (DYNAMICS) mean=  5.57143097687545E-03
DEBUG_STATS_RL:                Uvel (DYNAMICS) S.D.=  2.36068072833070E-02
DEBUG_STATS_RL:                Vvel (DYNAMICS)  min= -1.00210398696534E-01
DEBUG_STATS_RL:                Vvel (DYNAMICS)  max=  1.34176492556719E-01
DEBUG_STATS_RL:                Vvel (DYNAMICS) mean=  1.57815120620728E-03
DEBUG_STATS_RL:                Vvel (DYNAMICS) S.D.=  1.39027397969254E-02
DEBUG_STATS_RL:                Wvel (DYNAMICS)  min= -8.00086667923453E-05
DEBUG_STATS_RL:                Wvel (DYNAMICS)  max=  1.36307464551061E-04
DEBUG_STATS_RL:                Wvel (DYNAMICS) mean=  3.79979718764915E-08
DEBUG_STATS_RL:                Wvel (DYNAMICS) S.D.=  1.06815230516642E-05
DEBUG_STATS_RL:               Theta (DYNAMICS)  min= -1.95085320319431E+00
DEBUG_STATS_RL:               Theta (DYNAMICS)  max=  2.99327615355393E+01
DEBUG_STATS_RL:               Theta (DYNAMICS) mean=  3.21141405839463E+00
DEBUG_STATS_RL:               Theta (DYNAMICS) S.D.=  5.86291301003316E+00
DEBUG_STATS_RL:                Salt (DYNAMICS)  min= -6.86350255588998E-04
DEBUG_STATS_RL:                Salt (DYNAMICS)  max=  3.74540747873693E+01
DEBUG_STATS_RL:                Salt (DYNAMICS) mean=  1.88442321404920E+01
DEBUG_STATS_RL:                Salt (DYNAMICS) S.D.=  1.73004319947263E+01
DEBUG_STATS_RL:                  Gu (DYNAMICS)  min= -1.25071889041292E-01
DEBUG_STATS_RL:                  Gu (DYNAMICS)  max=  1.91513216334273E-01
DEBUG_STATS_RL:                  Gu (DYNAMICS) mean=  5.46840528999161E-03
DEBUG_STATS_RL:                  Gu (DYNAMICS) S.D.=  2.36262550228702E-02
DEBUG_STATS_RL:                  Gv (DYNAMICS)  min= -9.71340825740585E-02
DEBUG_STATS_RL:                  Gv (DYNAMICS)  max=  1.37839525536656E-01
DEBUG_STATS_RL:                  Gv (DYNAMICS) mean=  4.14373458113215E-03
DEBUG_STATS_RL:                  Gv (DYNAMICS) S.D.=  1.54214610034354E-02
DEBUG_STATS_RL:               GuNm1 (DYNAMICS)  min= -9.25046590251428E-06
DEBUG_STATS_RL:               GuNm1 (DYNAMICS)  max=  8.91395402648535E-06
DEBUG_STATS_RL:               GuNm1 (DYNAMICS) mean= -9.80077689125521E-09
DEBUG_STATS_RL:               GuNm1 (DYNAMICS) S.D.=  1.17460490501935E-06
DEBUG_STATS_RL:               GvNm1 (DYNAMICS)  min= -9.56324978535201E-06
DEBUG_STATS_RL:               GvNm1 (DYNAMICS)  max=  1.63360028141716E-05
DEBUG_STATS_RL:               GvNm1 (DYNAMICS) mean=  7.49142033734065E-07
DEBUG_STATS_RL:               GvNm1 (DYNAMICS) S.D.=  2.59837958300275E-06
DEBUG_STATS_RL:               GtNm1 (DYNAMICS)  min= -2.80295889434375E-06
DEBUG_STATS_RL:               GtNm1 (DYNAMICS)  max=  2.60694947058014E-06
DEBUG_STATS_RL:               GtNm1 (DYNAMICS) mean=  2.26492195113916E-09
DEBUG_STATS_RL:               GtNm1 (DYNAMICS) S.D.=  1.64507520047982E-07
DEBUG_STATS_RL:               GsNm1 (DYNAMICS)  min= -4.30451898011490E-07
DEBUG_STATS_RL:               GsNm1 (DYNAMICS)  max=  3.43331151317736E-07
DEBUG_STATS_RL:               GsNm1 (DYNAMICS) mean=  1.01113418168296E-10
DEBUG_STATS_RL:               GsNm1 (DYNAMICS) S.D.=  1.67871637021861E-08
DEBUG_STATS_RL:    cg2d_b (SOLVE_FOR_PRESSURE)  min= -1.91626790872323E+04
DEBUG_STATS_RL:    cg2d_b (SOLVE_FOR_PRESSURE)  max=  2.54484697151807E+04
DEBUG_STATS_RL:    cg2d_b (SOLVE_FOR_PRESSURE) mean=  3.69075247390725E+00
DEBUG_STATS_RL:    cg2d_b (SOLVE_FOR_PRESSURE) S.D.=  3.70634530094622E+03
 cg2d: Sum(rhs),rhsMax =   3.35740894156741E-01  1.67152362728021E+00
(PID.TID 0000.0001)  cg2d: iter=     1 ; resid.=  4.01195979777557E-01
(PID.TID 0000.0001)  cg2d: iter=     2 ; resid.=  3.50126063203783E-01
(PID.TID 0000.0001)  cg2d: iter=     3 ; resid.=  3.23682971649786E-01
(PID.TID 0000.0001)  cg2d: iter=     4 ; resid.=  3.00816853950277E-01
(PID.TID 0000.0001)  cg2d: iter=     5 ; resid.=  2.84939222943491E-01
(PID.TID 0000.0001)  cg2d: iter=     6 ; resid.=  2.74345169766918E-01
(PID.TID 0000.0001)  cg2d: iter=     7 ; resid.=  2.15798006712300E-01
(PID.TID 0000.0001)  cg2d: iter=     8 ; resid.=  1.57450072551358E-01
(PID.TID 0000.0001)  cg2d: iter=     9 ; resid.=  1.16591411174766E-01
(PID.TID 0000.0001)  cg2d: iter=    10 ; resid.=  9.68339008061461E-02
(PID.TID 0000.0001)  cg2d: iter=    11 ; resid.=  8.15765080249685E-02
(PID.TID 0000.0001)  cg2d: iter=    12 ; resid.=  7.28440733495645E-02
(PID.TID 0000.0001)  cg2d: iter=    13 ; resid.=  6.15356177609578E-02
(PID.TID 0000.0001)  cg2d: iter=    14 ; resid.=  5.27912825228942E-02
(PID.TID 0000.0001)  cg2d: iter=    15 ; resid.=  4.18643759603549E-02
(PID.TID 0000.0001)  cg2d: iter=    16 ; resid.=  3.67166166953481E-02
(PID.TID 0000.0001)  cg2d: iter=    17 ; resid.=  3.22041303795244E-02
(PID.TID 0000.0001)  cg2d: iter=    18 ; resid.=  2.84638491943802E-02
(PID.TID 0000.0001)  cg2d: iter=    19 ; resid.=  2.06366828754163E-02
(PID.TID 0000.0001)  cg2d: iter=    20 ; resid.=  1.64532318985913E-02
(PID.TID 0000.0001)  cg2d: iter=    21 ; resid.=  1.36392876295736E-02
(PID.TID 0000.0001)  cg2d: iter=    22 ; resid.=  1.12603933552962E-02
(PID.TID 0000.0001)  cg2d: iter=    23 ; resid.=  9.12095154454978E-03
(PID.TID 0000.0001)  cg2d: iter=    24 ; resid.=  7.90126615912315E-03
(PID.TID 0000.0001)  cg2d: iter=    25 ; resid.=  6.39745359946872E-03
(PID.TID 0000.0001)  cg2d: iter=    26 ; resid.=  5.75864464174246E-03
(PID.TID 0000.0001)  cg2d: iter=    27 ; resid.=  4.98149326653655E-03
(PID.TID 0000.0001)  cg2d: iter=    28 ; resid.=  4.03031773910784E-03
(PID.TID 0000.0001)  cg2d: iter=    29 ; resid.=  3.01233917948072E-03
(PID.TID 0000.0001)  cg2d: iter=    30 ; resid.=  2.40014765143556E-03
(PID.TID 0000.0001)  cg2d: iter=    31 ; resid.=  1.85245258853041E-03
(PID.TID 0000.0001)  cg2d: iter=    32 ; resid.=  1.50010148837286E-03
(PID.TID 0000.0001)  cg2d: iter=    33 ; resid.=  1.17284361768791E-03
(PID.TID 0000.0001)  cg2d: iter=    34 ; resid.=  1.00990758150546E-03
(PID.TID 0000.0001)  cg2d: iter=    35 ; resid.=  8.55800089763028E-04
(PID.TID 0000.0001)  cg2d: iter=    36 ; resid.=  7.90195296588276E-04
(PID.TID 0000.0001)  cg2d: iter=    37 ; resid.=  6.80942202157932E-04
(PID.TID 0000.0001)  cg2d: iter=    38 ; resid.=  6.22730800899304E-04
(PID.TID 0000.0001)  cg2d: iter=    39 ; resid.=  5.08210113418535E-04
(PID.TID 0000.0001)  cg2d: iter=    40 ; resid.=  4.00569445146542E-04
(PID.TID 0000.0001)  cg2d: iter=    41 ; resid.=  3.50099276117429E-04
(PID.TID 0000.0001)  cg2d: iter=    42 ; resid.=  3.11194439090778E-04
(PID.TID 0000.0001)  cg2d: iter=    43 ; resid.=  2.71889960054089E-04
(PID.TID 0000.0001)  cg2d: iter=    44 ; resid.=  2.26138107221574E-04
(PID.TID 0000.0001)  cg2d: iter=    45 ; resid.=  1.84193102019006E-04
(PID.TID 0000.0001)  cg2d: iter=    46 ; resid.=  1.52367515392274E-04
(PID.TID 0000.0001)  cg2d: iter=    47 ; resid.=  1.30372782952151E-04
(PID.TID 0000.0001)  cg2d: iter=    48 ; resid.=  1.01370641441822E-04
(PID.TID 0000.0001)  cg2d: iter=    49 ; resid.=  7.94026505994445E-05
(PID.TID 0000.0001)  cg2d: iter=    50 ; resid.=  6.93748375885130E-05
(PID.TID 0000.0001)  cg2d: iter=    51 ; resid.=  6.20458128632252E-05
(PID.TID 0000.0001)  cg2d: iter=    52 ; resid.=  5.41081600182729E-05
(PID.TID 0000.0001)  cg2d: iter=    53 ; resid.=  4.64367478069986E-05
(PID.TID 0000.0001)  cg2d: iter=    54 ; resid.=  3.60542933605080E-05
(PID.TID 0000.0001)  cg2d: iter=    55 ; resid.=  3.05157520999846E-05
(PID.TID 0000.0001)  cg2d: iter=    56 ; resid.=  2.66381168986607E-05
(PID.TID 0000.0001)  cg2d: iter=    57 ; resid.=  2.17396109541494E-05
(PID.TID 0000.0001)  cg2d: iter=    58 ; resid.=  1.65404329282619E-05
(PID.TID 0000.0001)  cg2d: iter=    59 ; resid.=  1.20234633585081E-05
(PID.TID 0000.0001)  cg2d: iter=    60 ; resid.=  9.30233847779509E-06
(PID.TID 0000.0001)  cg2d: iter=    61 ; resid.=  8.21197953461479E-06
(PID.TID 0000.0001)  cg2d: iter=    62 ; resid.=  6.77964550020060E-06
(PID.TID 0000.0001)  cg2d: iter=    63 ; resid.=  5.74365496814487E-06
(PID.TID 0000.0001)  cg2d: iter=    64 ; resid.=  4.93151801105227E-06
(PID.TID 0000.0001)  cg2d: iter=    65 ; resid.=  4.10285834638662E-06
(PID.TID 0000.0001)  cg2d: iter=    66 ; resid.=  3.22881288727795E-06
(PID.TID 0000.0001)  cg2d: iter=    67 ; resid.=  2.67477131542643E-06
(PID.TID 0000.0001)  cg2d: iter=    68 ; resid.=  2.27498112170384E-06
(PID.TID 0000.0001)  cg2d: iter=    69 ; resid.=  1.75353588358254E-06
(PID.TID 0000.0001)  cg2d: iter=    70 ; resid.=  1.40770866414699E-06
(PID.TID 0000.0001)  cg2d: iter=    71 ; resid.=  1.26187158332369E-06
(PID.TID 0000.0001)  cg2d: iter=    72 ; resid.=  1.19468606490320E-06
(PID.TID 0000.0001)  cg2d: iter=    73 ; resid.=  1.00839536519836E-06
(PID.TID 0000.0001)  cg2d: iter=    74 ; resid.=  8.39011478189595E-07
(PID.TID 0000.0001)  cg2d: iter=    75 ; resid.=  7.04043128033411E-07
(PID.TID 0000.0001)  cg2d: iter=    76 ; resid.=  5.85524732992616E-07
(PID.TID 0000.0001)  cg2d: iter=    77 ; resid.=  4.68585275684926E-07
(PID.TID 0000.0001)  cg2d: iter=    78 ; resid.=  3.45894608118103E-07
(PID.TID 0000.0001)  cg2d: iter=    79 ; resid.=  2.41323099501142E-07
(PID.TID 0000.0001)  cg2d: iter=    80 ; resid.=  1.66635994029332E-07
(PID.TID 0000.0001)  cg2d: iter=    81 ; resid.=  1.29250725553430E-07
(PID.TID 0000.0001)  cg2d: iter=    82 ; resid.=  1.03857125182068E-07
(PID.TID 0000.0001)  cg2d: iter=    83 ; resid.=  8.54413868049873E-08
(PID.TID 0000.0001)  cg2d: iter=    84 ; resid.=  6.40188015727176E-08
(PID.TID 0000.0001)  cg2d: iter=    85 ; resid.=  4.80387329095491E-08
(PID.TID 0000.0001)  cg2d: iter=    86 ; resid.=  3.86993981093790E-08
(PID.TID 0000.0001)  cg2d: iter=    87 ; resid.=  2.96221903902892E-08
(PID.TID 0000.0001)  cg2d: iter=    88 ; resid.=  2.35948864031080E-08
(PID.TID 0000.0001)  cg2d: iter=    89 ; resid.=  1.74566880129118E-08
(PID.TID 0000.0001)  cg2d: iter=    90 ; resid.=  1.47077586165856E-08
(PID.TID 0000.0001)  cg2d: iter=    91 ; resid.=  1.05675734090767E-08
(PID.TID 0000.0001)  cg2d: iter=    92 ; resid.=  7.57843668089503E-09
(PID.TID 0000.0001)  cg2d: iter=    93 ; resid.=  6.15055189184046E-09
(PID.TID 0000.0001)  cg2d: iter=    94 ; resid.=  4.96003973125310E-09
(PID.TID 0000.0001)  cg2d: iter=    95 ; resid.=  3.74831031098542E-09
(PID.TID 0000.0001)  cg2d: iter=    96 ; resid.=  2.81717890574118E-09
(PID.TID 0000.0001)  cg2d: iter=    97 ; resid.=  2.03655698188594E-09
(PID.TID 0000.0001)  cg2d: iter=    98 ; resid.=  1.52251572239390E-09
(PID.TID 0000.0001)  cg2d: iter=    99 ; resid.=  1.13368312014792E-09
(PID.TID 0000.0001)  cg2d: iter=   100 ; resid.=  8.79868667801524E-10
(PID.TID 0000.0001)  cg2d: iter=   101 ; resid.=  6.92723077327765E-10
(PID.TID 0000.0001)  cg2d: iter=   102 ; resid.=  5.35632278823433E-10
(PID.TID 0000.0001)  cg2d: iter=   103 ; resid.=  4.29208887269275E-10
(PID.TID 0000.0001)  cg2d: iter=   104 ; resid.=  3.64593472353471E-10
(PID.TID 0000.0001)  cg2d: iter=   105 ; resid.=  2.85648766267742E-10
(PID.TID 0000.0001)  cg2d: iter=   106 ; resid.=  2.47272402956439E-10
(PID.TID 0000.0001)  cg2d: iter=   107 ; resid.=  1.94394703276513E-10
(PID.TID 0000.0001)  cg2d: iter=   108 ; resid.=  1.53493048597387E-10
(PID.TID 0000.0001)  cg2d: iter=   109 ; resid.=  1.18551537029717E-10
(PID.TID 0000.0001)  cg2d: iter=   110 ; resid.=  9.61993310946219E-11
(PID.TID 0000.0001)  cg2d: iter=   111 ; resid.=  8.14245562037659E-11
(PID.TID 0000.0001)  cg2d: iter=   112 ; resid.=  6.73633950785072E-11
(PID.TID 0000.0001)  cg2d: iter=   113 ; resid.=  5.15395478577475E-11
(PID.TID 0000.0001)  cg2d: iter=   114 ; resid.=  4.40099007115369E-11
(PID.TID 0000.0001)  cg2d: iter=   115 ; resid.=  3.85324051484015E-11
(PID.TID 0000.0001)  cg2d: iter=   116 ; resid.=  3.33172191253365E-11
(PID.TID 0000.0001)  cg2d: iter=   117 ; resid.=  2.82386055051496E-11
(PID.TID 0000.0001)  cg2d: iter=   118 ; resid.=  2.20123958729419E-11
(PID.TID 0000.0001)  cg2d: iter=   119 ; resid.=  1.60366195073653E-11
(PID.TID 0000.0001)  cg2d: iter=   120 ; resid.=  1.18467260303306E-11
(PID.TID 0000.0001)  cg2d: iter=   121 ; resid.=  8.25325679070796E-12
(PID.TID 0000.0001)  cg2d: iter=   122 ; resid.=  5.99763426708247E-12
(PID.TID 0000.0001)  cg2d: iter=   123 ; resid.=  4.44421654709541E-12
(PID.TID 0000.0001)  cg2d: iter=   124 ; resid.=  3.35311901524424E-12
(PID.TID 0000.0001)  cg2d: iter=   125 ; resid.=  2.70559886406964E-12
(PID.TID 0000.0001)  cg2d: iter=   126 ; resid.=  1.95014168531460E-12
(PID.TID 0000.0001)  cg2d: iter=   127 ; resid.=  1.53054002578567E-12
(PID.TID 0000.0001)  cg2d: iter=   128 ; resid.=  1.16731717521825E-12
(PID.TID 0000.0001)  cg2d: iter=   129 ; resid.=  8.69136393295147E-13
(PID.TID 0000.0001)  cg2d: iter=   130 ; resid.=  6.63535608281889E-13
(PID.TID 0000.0001)  cg2d: iter=   131 ; resid.=  5.27717849939050E-13
(PID.TID 0000.0001)  cg2d: iter=   132 ; resid.=  3.83353838510595E-13
(PID.TID 0000.0001)  cg2d: iter=   133 ; resid.=  3.11759997900541E-13
(PID.TID 0000.0001)  cg2d: iter=   134 ; resid.=  2.48081263837053E-13
(PID.TID 0000.0001)  cg2d: iter=   135 ; resid.=  1.76196802289903E-13
(PID.TID 0000.0001)  cg2d: iter=   136 ; resid.=  1.23897494133112E-13
(PID.TID 0000.0001)  cg2d: iter=   137 ; resid.=  8.88822804287590E-14
DEBUG_STATS_RL:    cg2d_x (SOLVE_FOR_PRESSURE)  min= -1.80937226389676E+01
DEBUG_STATS_RL:    cg2d_x (SOLVE_FOR_PRESSURE)  max=  7.85159678630004E+00
DEBUG_STATS_RL:    cg2d_x (SOLVE_FOR_PRESSURE) mean= -1.71688061731027E+00
DEBUG_STATS_RL:    cg2d_x (SOLVE_FOR_PRESSURE) S.D.=  6.74082399100205E+00
(PID.TID 0000.0001)      cg2d_init_res =   5.19662737638319E-01
(PID.TID 0000.0001)      cg2d_iters(min,last) =      -1     137
(PID.TID 0000.0001)      cg2d_last_res =   8.88822804287590E-14
(PID.TID 0000.0001) // =======================================================
(PID.TID 0000.0001) // Begin MONITOR dynamic field statistics
(PID.TID 0000.0001) // =======================================================
(PID.TID 0000.0001) %MON time_tsnumber                =                    51
(PID.TID 0000.0001) %MON time_secondsf                =   4.4064000000000E+06
(PID.TID 0000.0001) %MON dynstat_eta_max              =   8.0036664488276E-01
(PID.TID 0000.0001) %MON dynstat_eta_min              =  -1.8444161711486E+00
(PID.TID 0000.0001) %MON dynstat_eta_mean             =  -3.8508425683236E-03
(PID.TID 0000.0001) %MON dynstat_eta_sd               =   5.9331391053829E-01
(PID.TID 0000.0001) %MON dynstat_eta_del2             =   2.2743290191297E-03
(PID.TID 0000.0001) %MON dynstat_uvel_max             =   1.8614028083290E-01
(PID.TID 0000.0001) %MON dynstat_uvel_min             =  -1.2508755654725E-01
(PID.TID 0000.0001) %MON dynstat_uvel_mean            =   2.2266561798575E-03
(PID.TID 0000.0001) %MON dynstat_uvel_sd              =   1.4135515814727E-02
(PID.TID 0000.0001) %MON dynstat_uvel_del2            =   8.4408633976139E-05
(PID.TID 0000.0001) %MON dynstat_vvel_max             =   1.3657619307149E-01
(PID.TID 0000.0001) %MON dynstat_vvel_min             =  -9.7936218578812E-02
(PID.TID 0000.0001) %MON dynstat_vvel_mean            =   4.6039637031673E-05
(PID.TID 0000.0001) %MON dynstat_vvel_sd              =   8.3959156241684E-03
(PID.TID 0000.0001) %MON dynstat_vvel_del2            =   7.3184696274729E-05
(PID.TID 0000.0001) %MON dynstat_wvel_max             =   1.4220189287924E-04
(PID.TID 0000.0001) %MON dynstat_wvel_min             =  -7.5033260756016E-05
(PID.TID 0000.0001) %MON dynstat_wvel_mean            =   1.8827285864354E-11
(PID.TID 0000.0001) %MON dynstat_wvel_sd              =   1.1868567842182E-05
(PID.TID 0000.0001) %MON dynstat_wvel_del2            =   1.2303723189912E-07
(PID.TID 0000.0001) %MON dynstat_theta_max            =   2.9932761535539E+01
(PID.TID 0000.0001) %MON dynstat_theta_min            =  -1.9508532031943E+00
(PID.TID 0000.0001) %MON dynstat_theta_mean           =   3.6208375047577E+00
(PID.TID 0000.0001) %MON dynstat_theta_sd             =   4.4184223646198E+00
(PID.TID 0000.0001) %MON dynstat_theta_del2           =   4.6824635987333E-03
(PID.TID 0000.0001) %MON dynstat_salt_max             =   3.7454074787369E+01
(PID.TID 0000.0001) %MON dynstat_salt_min             =   2.9833681303955E+01
(PID.TID 0000.0001) %MON dynstat_salt_mean            =   3.4717289925215E+01
(PID.TID 0000.0001) %MON dynstat_salt_sd              =   2.9621427962661E-01
(PID.TID 0000.0001) %MON dynstat_salt_del2            =   9.7098249658635E-04
(PID.TID 0000.0001) %MON dynstat_sst_max              =   2.9932761535539E+01
(PID.TID 0000.0001) %MON dynstat_sst_min              =  -1.9508532031943E+00
(PID.TID 0000.0001) %MON dynstat_sst_mean             =   1.8779257241199E+01
(PID.TID 0000.0001) %MON dynstat_sst_sd               =   9.1016801760709E+00
(PID.TID 0000.0001) %MON dynstat_sst_del2             =   2.4796985320865E-02
(PID.TID 0000.0001) %MON dynstat_sss_max              =   3.7395830775984E+01
(PID.TID 0000.0001) %MON dynstat_sss_min              =   2.9833681303955E+01
(PID.TID 0000.0001) %MON dynstat_sss_mean             =   3.4843002100060E+01
(PID.TID 0000.0001) %MON dynstat_sss_sd               =   9.7581564639377E-01
(PID.TID 0000.0001) %MON dynstat_sss_del2             =   7.6397185292762E-03
(PID.TID 0000.0001) %MON forcing_qnet_max             =   3.4446148173014E+02
(PID.TID 0000.0001) %MON forcing_qnet_min             =  -1.7133757273356E+02
(PID.TID 0000.0001) %MON forcing_qnet_mean            =  -1.2848553480810E+01
(PID.TID 0000.0001) %MON forcing_qnet_sd              =   7.2593681633689E+01
(PID.TID 0000.0001) %MON forcing_qnet_del2            =   9.2255901635128E-01
(PID.TID 0000.0001) %MON forcing_qsw_max              =   0.0000000000000E+00
(PID.TID 0000.0001) %MON forcing_qsw_min              =   0.0000000000000E+00
(PID.TID 0000.0001) %MON forcing_qsw_mean             =   0.0000000000000E+00
(PID.TID 0000.0001) %MON forcing_qsw_sd               =   0.0000000000000E+00
(PID.TID 0000.0001) %MON forcing_qsw_del2             =   0.0000000000000E+00
(PID.TID 0000.0001) %MON forcing_empmr_max            =   6.9252730365103E-05
(PID.TID 0000.0001) %MON forcing_empmr_min            =  -7.4454014509229E-05
(PID.TID 0000.0001) %MON forcing_empmr_mean           =   8.7795932553760E-07
(PID.TID 0000.0001) %MON forcing_empmr_sd             =   2.7556269282498E-05
(PID.TID 0000.0001) %MON forcing_empmr_del2           =   3.5383860859280E-07
(PID.TID 0000.0001) %MON forcing_fu_max               =   3.1125728785992E-01
(PID.TID 0000.0001) %MON forcing_fu_min               =  -2.4265549828609E-01
(PID.TID 0000.0001) %MON forcing_fu_mean              =   1.8101739563928E-02
(PID.TID 0000.0001) %MON forcing_fu_sd                =   9.3253165137727E-02
(PID.TID 0000.0001) %MON forcing_fu_del2              =   7.1687477636935E-04
(PID.TID 0000.0001) %MON forcing_fv_max               =   1.7315150362750E-01
(PID.TID 0000.0001) %MON forcing_fv_min               =  -1.9224907457829E-01
(PID.TID 0000.0001) %MON forcing_fv_mean              =  -7.2688666908077E-03
(PID.TID 0000.0001) %MON forcing_fv_sd                =   4.3596000384561E-02
(PID.TID 0000.0001) %MON forcing_fv_del2              =   5.0613264128046E-04
(PID.TID 0000.0001) %MON trAdv_CFL_u_max              =   4.8398098561551E-02
(PID.TID 0000.0001) %MON trAdv_CFL_v_max              =   2.7610780156981E-02
(PID.TID 0000.0001) %MON trAdv_CFL_w_max              =   3.8543712584558E-02
(PID.TID 0000.0001) %MON advcfl_uvel_max              =   4.8663557889151E-02
(PID.TID 0000.0001) %MON advcfl_vvel_max              =   2.6534563894998E-02
(PID.TID 0000.0001) %MON advcfl_wvel_max              =   4.6753154544299E-02
(PID.TID 0000.0001) %MON advcfl_W_hf_max              =   5.6771687660934E-02
(PID.TID 0000.0001) %MON pe_b_mean                    =   4.5047278235629E-04
(PID.TID 0000.0001) %MON ke_max                       =   1.7063119904285E-02
(PID.TID 0000.0001) %MON ke_mean                      =   1.2467810636341E-04
(PID.TID 0000.0001) %MON ke_vol                       =   1.3226782436723E+18
(PID.TID 0000.0001) %MON vort_r_min                   =  -4.8002063229371E-07
(PID.TID 0000.0001) %MON vort_r_max                   =   4.3001885455416E-07
(PID.TID 0000.0001) %MON vort_a_mean                  =  -2.5274807170635E-05
(PID.TID 0000.0001) %MON vort_a_sd                    =   7.3604677503357E-05
(PID.TID 0000.0001) %MON vort_p_mean                  =  -3.1845655513690E-05
(PID.TID 0000.0001) %MON vort_p_sd                    =   1.3162462141337E-04
(PID.TID 0000.0001) %MON surfExpan_theta_mean         =   2.5380731045428E-07
(PID.TID 0000.0001) %MON surfExpan_salt_mean          =  -4.4493810326140E-08
(PID.TID 0000.0001) // =======================================================
(PID.TID 0000.0001) // End MONITOR dynamic field statistics
(PID.TID 0000.0001) // =======================================================
 EXTERNAL_FIELDS_LOAD,        51 : iP,iLd,i0,i1=    2    3    2    3 ; Wght=  0.8000000000  0.2000000000
 EXTERNAL_FIELDS_LOAD: (fu0,1),fu,fv= -1.4435E-02 -2.7199E-02 -1.6988E-02 -1.4224E-02
 EXTERNAL_FIELDS_LOAD: SST,SSS,Q,E-P= -4.6227E-01  3.4453E+01  2.3546E+02  8.5179E-06
DEBUG_STATS_RL:          Uvel (THERMODYNAMICS)  min= -1.25087556547251E-01
DEBUG_STATS_RL:          Uvel (THERMODYNAMICS)  max=  1.86140280832902E-01
DEBUG_STATS_RL:          Uvel (THERMODYNAMICS) mean=  5.57072864682485E-03
DEBUG_STATS_RL:          Uvel (THERMODYNAMICS) S.D.=  2.32563607293738E-02
DEBUG_STATS_RL:          Vvel (THERMODYNAMICS)  min= -9.79362185788115E-02
DEBUG_STATS_RL:          Vvel (THERMODYNAMICS)  max=  1.36576193071488E-01
DEBUG_STATS_RL:          Vvel (THERMODYNAMICS) mean=  1.61502296868486E-03
DEBUG_STATS_RL:          Vvel (THERMODYNAMICS) S.D.=  1.38678866738673E-02
DEBUG_STATS_RL:          Wvel (THERMODYNAMICS)  min= -7.50332607560161E-05
DEBUG_STATS_RL:          Wvel (THERMODYNAMICS)  max=  1.42201892879236E-04
DEBUG_STATS_RL:          Wvel (THERMODYNAMICS) mean=  6.00237234652822E-08
DEBUG_STATS_RL:          Wvel (THERMODYNAMICS) S.D.=  1.05545786324906E-05
DEBUG_STATS_RL:         Theta (THERMODYNAMICS)  min= -1.94864459776763E+00
DEBUG_STATS_RL:         Theta (THERMODYNAMICS)  max=  2.99306987121196E+01
DEBUG_STATS_RL:         Theta (THERMODYNAMICS) mean=  3.21143745429482E+00
DEBUG_STATS_RL:         Theta (THERMODYNAMICS) S.D.=  5.86334052916293E+00
DEBUG_STATS_RL:          Salt (THERMODYNAMICS)  min= -6.86350255588998E-04
DEBUG_STATS_RL:          Salt (THERMODYNAMICS)  max=  3.74547375214017E+01
DEBUG_STATS_RL:          Salt (THERMODYNAMICS) mean=  1.88442390713297E+01
DEBUG_STATS_RL:          Salt (THERMODYNAMICS) S.D.=  1.73004386069056E+01
DEBUG_STATS_RL:         GtNm1 (THERMODYNAMICS)  min= -2.75539551707999E-06
DEBUG_STATS_RL:         GtNm1 (THERMODYNAMICS)  max=  2.38551256247787E-06
DEBUG_STATS_RL:         GtNm1 (THERMODYNAMICS) mean=  1.54074823370938E-09
DEBUG_STATS_RL:         GtNm1 (THERMODYNAMICS) S.D.=  1.62666365179709E-07
DEBUG_STATS_RL:         GsNm1 (THERMODYNAMICS)  min= -4.48010342551697E-07
DEBUG_STATS_RL:         GsNm1 (THERMODYNAMICS)  max=  3.40248433495490E-07
DEBUG_STATS_RL:         GsNm1 (THERMODYNAMICS) mean=  5.48693326156151E-11
DEBUG_STATS_RL:         GsNm1 (THERMODYNAMICS) S.D.=  1.67086895135230E-08
DEBUG_STATS_RL:                EtaN (DYNAMICS)  min= -1.84441617114861E+00
DEBUG_STATS_RL:                EtaN (DYNAMICS)  max=  8.00366644882760E-01
DEBUG_STATS_RL:                EtaN (DYNAMICS) mean= -1.75013314710526E-01
DEBUG_STATS_RL:                EtaN (DYNAMICS) S.D.=  6.87138021508877E-01
DEBUG_STATS_RL:                Uvel (DYNAMICS)  min= -1.25087556547251E-01
DEBUG_STATS_RL:                Uvel (DYNAMICS)  max=  1.86140280832902E-01
DEBUG_STATS_RL:                Uvel (DYNAMICS) mean=  5.57072864682485E-03
DEBUG_STATS_RL:                Uvel (DYNAMICS) S.D.=  2.32563607293738E-02
DEBUG_STATS_RL:                Vvel (DYNAMICS)  min= -9.79362185788115E-02
DEBUG_STATS_RL:                Vvel (DYNAMICS)  max=  1.36576193071488E-01
DEBUG_STATS_RL:                Vvel (DYNAMICS) mean=  1.61502296868486E-03
DEBUG_STATS_RL:                Vvel (DYNAMICS) S.D.=  1.38678866738673E-02
DEBUG_STATS_RL:                Wvel (DYNAMICS)  min= -7.50332607560161E-05
DEBUG_STATS_RL:                Wvel (DYNAMICS)  max=  1.42201892879236E-04
DEBUG_STATS_RL:                Wvel (DYNAMICS) mean=  6.00237234652822E-08
DEBUG_STATS_RL:                Wvel (DYNAMICS) S.D.=  1.05545786324906E-05
DEBUG_STATS_RL:               Theta (DYNAMICS)  min= -1.94864459776763E+00
DEBUG_STATS_RL:               Theta (DYNAMICS)  max=  2.99306987121196E+01
DEBUG_STATS_RL:               Theta (DYNAMICS) mean=  3.21143745429482E+00
DEBUG_STATS_RL:               Theta (DYNAMICS) S.D.=  5.86334052916293E+00
DEBUG_STATS_RL:                Salt (DYNAMICS)  min= -6.86350255588998E-04
DEBUG_STATS_RL:                Salt (DYNAMICS)  max=  3.74547375214017E+01
DEBUG_STATS_RL:                Salt (DYNAMICS) mean=  1.88442390713297E+01
DEBUG_STATS_RL:                Salt (DYNAMICS) S.D.=  1.73004386069056E+01
DEBUG_STATS_RL:                  Gu (DYNAMICS)  min= -1.25025439476212E-01
DEBUG_STATS_RL:                  Gu (DYNAMICS)  max=  1.90563733467743E-01
DEBUG_STATS_RL:                  Gu (DYNAMICS) mean=  5.45026200277896E-03
DEBUG_STATS_RL:                  Gu (DYNAMICS) S.D.=  2.32352983071558E-02
DEBUG_STATS_RL:                  Gv (DYNAMICS)  min= -9.50541232621833E-02
DEBUG_STATS_RL:                  Gv (DYNAMICS)  max=  1.39983973218986E-01
DEBUG_STATS_RL:                  Gv (DYNAMICS) mean=  4.15035076023781E-03
DEBUG_STATS_RL:                  Gv (DYNAMICS) S.D.=  1.54500332675765E-02
DEBUG_STATS_RL:               GuNm1 (DYNAMICS)  min= -9.33890423475144E-06
DEBUG_STATS_RL:               GuNm1 (DYNAMICS)  max=  8.97109443992092E-06
DEBUG_STATS_RL:               GuNm1 (DYNAMICS) mean= -8.71601078872421E-09
DEBUG_STATS_RL:               GuNm1 (DYNAMICS) S.D.=  1.17604222453545E-06
DEBUG_STATS_RL:               GvNm1 (DYNAMICS)  min= -9.57384261265714E-06
DEBUG_STATS_RL:               GvNm1 (DYNAMICS)  max=  1.63066599813327E-05
DEBUG_STATS_RL:               GvNm1 (DYNAMICS) mean=  7.48650521097753E-07
DEBUG_STATS_RL:               GvNm1 (DYNAMICS) S.D.=  2.60325781094866E-06
DEBUG_STATS_RL:               GtNm1 (DYNAMICS)  min= -2.75539551707999E-06
DEBUG_STATS_RL:               GtNm1 (DYNAMICS)  max=  2.38551256247787E-06
DEBUG_STATS_RL:               GtNm1 (DYNAMICS) mean=  1.54074823370938E-09
DEBUG_STATS_RL:               GtNm1 (DYNAMICS) S.D.=  1.62666365179709E-07
DEBUG_STATS_RL:               GsNm1 (DYNAMICS)  min= -4.48010342551697E-07
DEBUG_STATS_RL:               GsNm1 (DYNAMICS)  max=  3.40248433495490E-07
DEBUG_STATS_RL:               GsNm1 (DYNAMICS) mean=  5.48693326156151E-11
DEBUG_STATS_RL:               GsNm1 (DYNAMICS) S.D.=  1.67086895135230E-08
DEBUG_STATS_RL:    cg2d_b (SOLVE_FOR_PRESSURE)  min= -1.93289731626679E+04
DEBUG_STATS_RL:    cg2d_b (SOLVE_FOR_PRESSURE)  max=  2.56800559407671E+04
DEBUG_STATS_RL:    cg2d_b (SOLVE_FOR_PRESSURE) mean=  3.76519995505110E+00
DEBUG_STATS_RL:    cg2d_b (SOLVE_FOR_PRESSURE) S.D.=  3.72615820040059E+03
 cg2d: Sum(rhs),rhsMax =   3.39424412316230E-01  1.68673483063164E+00
(PID.TID 0000.0001)  cg2d: iter=     1 ; resid.=  9.13477170699863E-02
(PID.TID 0000.0001)  cg2d: iter=     2 ; resid.=  6.44882032276854E-02
(PID.TID 0000.0001)  cg2d: iter=     3 ; resid.=  8.26187547247261E-02
(PID.TID 0000.0001)  cg2d: iter=     4 ; resid.=  8.25491231314401E-02
(PID.TID 0000.0001)  cg2d: iter=     5 ; resid.=  7.13986799679901E-02
(PID.TID 0000.0001)  cg2d: iter=     6 ; resid.=  5.94505809214021E-02
(PID.TID 0000.0001)  cg2d: iter=     7 ; resid.=  4.68665447057278E-02
(PID.TID 0000.0001)  cg2d: iter=     8 ; resid.=  3.49278895771258E-02
(PID.TID 0000.0001)  cg2d: iter=     9 ; resid.=  2.62533789051790E-02
(PID.TID 0000.0001)  cg2d: iter=    10 ; resid.=  2.16877040194870E-02
(PID.TID 0000.0001)  cg2d: iter=    11 ; resid.=  1.83324257957255E-02
(PID.TID 0000.0001)  cg2d: iter=    12 ; resid.=  1.57058175021312E-02
(PID.TID 0000.0001)  cg2d: iter=    13 ; resid.=  1.28799862166274E-02
(PID.TID 0000.0001)  cg2d: iter=    14 ; resid.=  1.13477588713042E-02
(PID.TID 0000.0001)  cg2d: iter=    15 ; resid.=  9.95092211734214E-03
(PID.TID 0000.0001)  cg2d: iter=    16 ; resid.=  8.06998649424612E-03
(PID.TID 0000.0001)  cg2d: iter=    17 ; resid.=  6.94692457913127E-03
(PID.TID 0000.0001)  cg2d: iter=    18 ; resid.=  5.85263673241637E-03
(PID.TID 0000.0001)  cg2d: iter=    19 ; resid.=  4.72605889934567E-03
(PID.TID 0000.0001)  cg2d: iter=    20 ; resid.=  3.75382435136045E-03
(PID.TID 0000.0001)  cg2d: iter=    21 ; resid.=  3.12835037760393E-03
(PID.TID 0000.0001)  cg2d: iter=    22 ; resid.=  2.90120914606850E-03
(PID.TID 0000.0001)  cg2d: iter=    23 ; resid.=  2.55750468308568E-03
(PID.TID 0000.0001)  cg2d: iter=    24 ; resid.=  1.96510211826773E-03
(PID.TID 0000.0001)  cg2d: iter=    25 ; resid.=  1.46639432587677E-03
(PID.TID 0000.0001)  cg2d: iter=    26 ; resid.=  1.12344517624494E-03
(PID.TID 0000.0001)  cg2d: iter=    27 ; resid.=  9.39409312249320E-04
(PID.TID 0000.0001)  cg2d: iter=    28 ; resid.=  8.50054375430173E-04
(PID.TID 0000.0001)  cg2d: iter=    29 ; resid.=  7.30976889293839E-04
(PID.TID 0000.0001)  cg2d: iter=    30 ; resid.=  5.71997858870429E-04
(PID.TID 0000.0001)  cg2d: iter=    31 ; resid.=  4.76786966193614E-04
(PID.TID 0000.0001)  cg2d: iter=    32 ; resid.=  3.67826076527241E-04
(PID.TID 0000.0001)  cg2d: iter=    33 ; resid.=  2.76129118859305E-04
(PID.TID 0000.0001)  cg2d: iter=    34 ; resid.=  2.12793110162131E-04
(PID.TID 0000.0001)  cg2d: iter=    35 ; resid.=  1.62364580407225E-04
(PID.TID 0000.0001)  cg2d: iter=    36 ; resid.=  1.42518356104753E-04
(PID.TID 0000.0001)  cg2d: iter=    37 ; resid.=  1.30820285778475E-04
(PID.TID 0000.0001)  cg2d: iter=    38 ; resid.=  1.24506699050815E-04
(PID.TID 0000.0001)  cg2d: iter=    39 ; resid.=  1.11702671485704E-04
(PID.TID 0000.0001)  cg2d: iter=    40 ; resid.=  9.06901941147933E-05
(PID.TID 0000.0001)  cg2d: iter=    41 ; resid.=  6.77006654100585E-05
(PID.TID 0000.0001)  cg2d: iter=    42 ; resid.=  5.89896908376813E-05
(PID.TID 0000.0001)  cg2d: iter=    43 ; resid.=  5.43946810493597E-05
(PID.TID 0000.0001)  cg2d: iter=    44 ; resid.=  4.33367404297158E-05
(PID.TID 0000.0001)  cg2d: iter=    45 ; resid.=  3.30564317448478E-05
(PID.TID 0000.0001)  cg2d: iter=    46 ; resid.=  2.76681489866345E-05
(PID.TID 0000.0001)  cg2d: iter=    47 ; resid.=  2.52868082998026E-05
(PID.TID 0000.0001)  cg2d: iter=    48 ; resid.=  2.43276966934404E-05
(PID.TID 0000.0001)  cg2d: iter=    49 ; resid.=  2.00806072517049E-05
(PID.TID 0000.0001)  cg2d: iter=    50 ; resid.=  1.66612817244021E-05
(PID.TID 0000.0001)  cg2d: iter=    51 ; resid.=  1.40244550440730E-05
(PID.TID 0000.0001)  cg2d: iter=    52 ; resid.=  1.19718527103304E-05
(PID.TID 0000.0001)  cg2d: iter=    53 ; resid.=  1.04728673272022E-05
(PID.TID 0000.0001)  cg2d: iter=    54 ; resid.=  8.39210933329965E-06
(PID.TID 0000.0001)  cg2d: iter=    55 ; resid.=  6.60982143310013E-06
(PID.TID 0000.0001)  cg2d: iter=    56 ; resid.=  5.59969246039717E-06
(PID.TID 0000.0001)  cg2d: iter=    57 ; resid.=  4.72856958981160E-06
(PID.TID 0000.0001)  cg2d: iter=    58 ; resid.=  3.69653513563987E-06
(PID.TID 0000.0001)  cg2d: iter=    59 ; resid.=  2.83523974461033E-06
(PID.TID 0000.0001)  cg2d: iter=    60 ; resid.=  2.11987623642827E-06
(PID.TID 0000.0001)  cg2d: iter=    61 ; resid.=  1.71087473708769E-06
(PID.TID 0000.0001)  cg2d: iter=    62 ; resid.=  1.41446863782291E-06
(PID.TID 0000.0001)  cg2d: iter=    63 ; resid.=  1.08248535132181E-06
(PID.TID 0000.0001)  cg2d: iter=    64 ; resid.=  8.82434422269899E-07
(PID.TID 0000.0001)  cg2d: iter=    65 ; resid.=  6.73542981429711E-07
(PID.TID 0000.0001)  cg2d: iter=    66 ; resid.=  5.28964139123116E-07
(PID.TID 0000.0001)  cg2d: iter=    67 ; resid.=  4.22251009409189E-07
(PID.TID 0000.0001)  cg2d: iter=    68 ; resid.=  3.35405335598210E-07
(PID.TID 0000.0001)  cg2d: iter=    69 ; resid.=  2.72842615288386E-07
(PID.TID 0000.0001)  cg2d: iter=    70 ; resid.=  2.18552503477476E-07
(PID.TID 0000.0001)  cg2d: iter=    71 ; resid.=  1.71900025062097E-07
(PID.TID 0000.0001)  cg2d: iter=    72 ; resid.=  1.43557850493487E-07
(PID.TID 0000.0001)  cg2d: iter=    73 ; resid.=  1.21464415069180E-07
(PID.TID 0000.0001)  cg2d: iter=    74 ; resid.=  1.11003692260620E-07
(PID.TID 0000.0001)  cg2d: iter=    75 ; resid.=  1.08660109899898E-07
(PID.TID 0000.0001)  cg2d: iter=    76 ; resid.=  9.59760615803968E-08
(PID.TID 0000.0001)  cg2d: iter=    77 ; resid.=  7.66742420509660E-08
(PID.TID 0000.0001)  cg2d: iter=    78 ; resid.=  5.92623018641682E-08
(PID.TID 0000.0001)  cg2d: iter=    79 ; resid.=  4.60259357079718E-08
(PID.TID 0000.0001)  cg2d: iter=    80 ; resid.=  3.69376902440450E-08
(PID.TID 0000.0001)  cg2d: iter=    81 ; resid.=  2.84716911046456E-08
(PID.TID 0000.0001)  cg2d: iter=    82 ; resid.=  2.19561493932925E-08
(PID.TID 0000.0001)  cg2d: iter=    83 ; resid.=  1.78457244769200E-08
(PID.TID 0000.0001)  cg2d: iter=    84 ; resid.=  1.49152733057216E-08
(PID.TID 0000.0001)  cg2d: iter=    85 ; resid.=  1.22474607051214E-08
(PID.TID 0000.0001)  cg2d: iter=    86 ; resid.=  9.33493316523803E-09
(PID.TID 0000.0001)  cg2d: iter=    87 ; resid.=  7.36380421797650E-09
(PID.TID 0000.0001)  cg2d: iter=    88 ; resid.=  5.86093005285341E-09
(PID.TID 0000.0001)  cg2d: iter=    89 ; resid.=  5.25143801569428E-09
(PID.TID 0000.0001)  cg2d: iter=    90 ; resid.=  4.33596450831071E-09
(PID.TID 0000.0001)  cg2d: iter=    91 ; resid.=  3.29772713792780E-09
(PID.TID 0000.0001)  cg2d: iter=    92 ; resid.=  2.28402473432857E-09
(PID.TID 0000.0001)  cg2d: iter=    93 ; resid.=  1.65769635027991E-09
(PID.TID 0000.0001)  cg2d: iter=    94 ; resid.=  1.44613243256584E-09
(PID.TID 0000.0001)  cg2d: iter=    95 ; resid.=  1.40237505492504E-09
(PID.TID 0000.0001)  cg2d: iter=    96 ; resid.=  1.19567211783335E-09
(PID.TID 0000.0001)  cg2d: iter=    97 ; resid.=  9.22415708679568E-10
(PID.TID 0000.0001)  cg2d: iter=    98 ; resid.=  6.99787075504177E-10
(PID.TID 0000.0001)  cg2d: iter=    99 ; resid.=  5.97192644556404E-10
(PID.TID 0000.0001)  cg2d: iter=   100 ; resid.=  5.85893153624244E-10
(PID.TID 0000.0001)  cg2d: iter=   101 ; resid.=  5.02993106080833E-10
(PID.TID 0000.0001)  cg2d: iter=   102 ; resid.=  3.49381974632351E-10
(PID.TID 0000.0001)  cg2d: iter=   103 ; resid.=  2.35693303195171E-10
(PID.TID 0000.0001)  cg2d: iter=   104 ; resid.=  1.82913613767229E-10
(PID.TID 0000.0001)  cg2d: iter=   105 ; resid.=  1.62244755917674E-10
(PID.TID 0000.0001)  cg2d: iter=   106 ; resid.=  1.31465153911593E-10
(PID.TID 0000.0001)  cg2d: iter=   107 ; resid.=  9.83239068732637E-11
(PID.TID 0000.0001)  cg2d: iter=   108 ; resid.=  7.36604743692514E-11
(PID.TID 0000.0001)  cg2d: iter=   109 ; resid.=  5.53506736625959E-11
(PID.TID 0000.0001)  cg2d: iter=   110 ; resid.=  4.48929964208896E-11
(PID.TID 0000.0001)  cg2d: iter=   111 ; resid.=  3.31074102830065E-11
(PID.TID 0000.0001)  cg2d: iter=   112 ; resid.=  2.41728140244545E-11
(PID.TID 0000.0001)  cg2d: iter=   113 ; resid.=  1.62279690335173E-11
(PID.TID 0000.0001)  cg2d: iter=   114 ; resid.=  1.23524960758757E-11
(PID.TID 0000.0001)  cg2d: iter=   115 ; resid.=  1.11500679034366E-11
(PID.TID 0000.0001)  cg2d: iter=   116 ; resid.=  9.52521966317796E-12
(PID.TID 0000.0001)  cg2d: iter=   117 ; resid.=  7.81063604975323E-12
(PID.TID 0000.0001)  cg2d: iter=   118 ; resid.=  6.04838964689661E-12
(PID.TID 0000.0001)  cg2d: iter=   119 ; resid.=  4.39113750822955E-12
(PID.TID 0000.0001)  cg2d: iter=   120 ; resid.=  3.19612294961455E-12
(PID.TID 0000.0001)  cg2d: iter=   121 ; resid.=  2.20855944027419E-12
(PID.TID 0000.0001)  cg2d: iter=   122 ; resid.=  1.45898302830142E-12
(PID.TID 0000.0001)  cg2d: iter=   123 ; resid.=  9.83557350250011E-13
(PID.TID 0000.0001)  cg2d: iter=   124 ; resid.=  7.00445295960293E-13
(PID.TID 0000.0001)  cg2d: iter=   125 ; resid.=  5.24485079646831E-13
(PID.TID 0000.0001)  cg2d: iter=   126 ; resid.=  4.06770157595617E-13
(PID.TID 0000.0001)  cg2d: iter=   127 ; resid.=  2.95713041274016E-13
(PID.TID 0000.0001)  cg2d: iter=   128 ; resid.=  2.01108307062336E-13
(PID.TID 0000.0001)  cg2d: iter=   129 ; resid.=  1.43136327351036E-13
(PID.TID 0000.0001)  cg2d: iter=   130 ; resid.=  1.12304932526184E-13
(PID.TID 0000.0001)  cg2d: iter=   131 ; resid.=  8.98636305381150E-14
DEBUG_STATS_RL:    cg2d_x (SOLVE_FOR_PRESSURE)  min= -1.83042533791106E+01
DEBUG_STATS_RL:    cg2d_x (SOLVE_FOR_PRESSURE)  max=  7.95018042324779E+00
DEBUG_STATS_RL:    cg2d_x (SOLVE_FOR_PRESSURE) mean= -1.72629046499204E+00
DEBUG_STATS_RL:    cg2d_x (SOLVE_FOR_PRESSURE) S.D.=  6.81032847829857E+00
(PID.TID 0000.0001)      cg2d_init_res =   2.88694709626566E-01
(PID.TID 0000.0001)      cg2d_iters(min,last) =      -1     131
(PID.TID 0000.0001)      cg2d_last_res =   8.98636305381150E-14
(PID.TID 0000.0001) // =======================================================
(PID.TID 0000.0001) // Begin MONITOR dynamic field statistics
(PID.TID 0000.0001) // =======================================================
(PID.TID 0000.0001) %MON time_tsnumber                =                    52
(PID.TID 0000.0001) %MON time_secondsf                =   4.4928000000000E+06
(PID.TID 0000.0001) %MON dynstat_eta_max              =   8.1041594528528E-01
(PID.TID 0000.0001) %MON dynstat_eta_min              =  -1.8658770009287E+00
(PID.TID 0000.0001) %MON dynstat_eta_mean             =  -3.9285192837134E-03
(PID.TID 0000.0001) %MON dynstat_eta_sd               =   6.0063945182382E-01
(PID.TID 0000.0001) %MON dynstat_eta_del2             =   2.2914623137223E-03
(PID.TID 0000.0001) %MON dynstat_uvel_max             =   1.8505146673017E-01
(PID.TID 0000.0001) %MON dynstat_uvel_min             =  -1.2553942908993E-01
(PID.TID 0000.0001) %MON dynstat_uvel_mean            =   2.2480063738724E-03
(PID.TID 0000.0001) %MON dynstat_uvel_sd              =   1.3950456297258E-02
(PID.TID 0000.0001) %MON dynstat_uvel_del2            =   8.3495111527093E-05
(PID.TID 0000.0001) %MON dynstat_vvel_max             =   1.3856895778011E-01
(PID.TID 0000.0001) %MON dynstat_vvel_min             =  -9.5453339974581E-02
(PID.TID 0000.0001) %MON dynstat_vvel_mean            =   2.5064974143482E-05
(PID.TID 0000.0001) %MON dynstat_vvel_sd              =   8.3561545369732E-03
(PID.TID 0000.0001) %MON dynstat_vvel_del2            =   7.2721868854974E-05
(PID.TID 0000.0001) %MON dynstat_wvel_max             =   1.3882474826580E-04
(PID.TID 0000.0001) %MON dynstat_wvel_min             =  -6.9485742926305E-05
(PID.TID 0000.0001) %MON dynstat_wvel_mean            =  -7.0602321991202E-12
(PID.TID 0000.0001) %MON dynstat_wvel_sd              =   1.1658860519179E-05
(PID.TID 0000.0001) %MON dynstat_wvel_del2            =   1.2168512490178E-07
(PID.TID 0000.0001) %MON dynstat_theta_max            =   2.9930698712120E+01
(PID.TID 0000.0001) %MON dynstat_theta_min            =  -1.9486445977676E+00
(PID.TID 0000.0001) %MON dynstat_theta_mean           =   3.6208779184697E+00
(PID.TID 0000.0001) %MON dynstat_theta_sd             =   4.4185658739992E+00
(PID.TID 0000.0001) %MON dynstat_theta_del2           =   4.6971639632225E-03
(PID.TID 0000.0001) %MON dynstat_salt_max             =   3.7454737521402E+01
(PID.TID 0000.0001) %MON dynstat_salt_min             =   2.9835709331408E+01
(PID.TID 0000.0001) %MON dynstat_salt_mean            =   3.4717292848777E+01
(PID.TID 0000.0001) %MON dynstat_salt_sd              =   2.9621747750977E-01
(PID.TID 0000.0001) %MON dynstat_salt_del2            =   9.7305577657799E-04
(PID.TID 0000.0001) %MON dynstat_sst_max              =   2.9930698712120E+01
(PID.TID 0000.0001) %MON dynstat_sst_min              =  -1.9486445977676E+00
(PID.TID 0000.0001) %MON dynstat_sst_mean             =   1.8782663317925E+01
(PID.TID 0000.0001) %MON dynstat_sst_sd               =   9.1070818727040E+00
(PID.TID 0000.0001) %MON dynstat_sst_del2             =   2.4949768199315E-02
(PID.TID 0000.0001) %MON dynstat_sss_max              =   3.7395514286740E+01
(PID.TID 0000.0001) %MON dynstat_sss_min              =   2.9835709331408E+01
(PID.TID 0000.0001) %MON dynstat_sss_mean             =   3.4842880424765E+01
(PID.TID 0000.0001) %MON dynstat_sss_sd               =   9.7598301312577E-01
(PID.TID 0000.0001) %MON dynstat_sss_del2             =   7.6764473176637E-03
(PID.TID 0000.0001) %MON forcing_qnet_max             =   3.4166333007812E+02
(PID.TID 0000.0001) %MON forcing_qnet_min             =  -1.7103829345703E+02
(PID.TID 0000.0001) %MON forcing_qnet_mean            =  -1.2625213981184E+01
(PID.TID 0000.0001) %MON forcing_qnet_sd              =   7.1234414492605E+01
(PID.TID 0000.0001) %MON forcing_qnet_del2            =   9.1767530219150E-01
(PID.TID 0000.0001) %MON forcing_qsw_max              =   0.0000000000000E+00
(PID.TID 0000.0001) %MON forcing_qsw_min              =   0.0000000000000E+00
(PID.TID 0000.0001) %MON forcing_qsw_mean             =   0.0000000000000E+00
(PID.TID 0000.0001) %MON forcing_qsw_sd               =   0.0000000000000E+00
(PID.TID 0000.0001) %MON forcing_qsw_del2             =   0.0000000000000E+00
(PID.TID 0000.0001) %MON forcing_empmr_max            =   6.9246974021553E-05
(PID.TID 0000.0001) %MON forcing_empmr_min            =  -7.4091350654726E-05
(PID.TID 0000.0001) %MON forcing_empmr_mean           =   8.6486939466325E-07
(PID.TID 0000.0001) %MON forcing_empmr_sd             =   2.7477668813451E-05
(PID.TID 0000.0001) %MON forcing_empmr_del2           =   3.5358321320213E-07
(PID.TID 0000.0001) %MON forcing_fu_max               =   3.1258164048195E-01
(PID.TID 0000.0001) %MON forcing_fu_min               =  -2.4804012775421E-01
(PID.TID 0000.0001) %MON forcing_fu_mean              =   1.8195939153386E-02
(PID.TID 0000.0001) %MON forcing_fu_sd                =   9.3365690565339E-02
(PID.TID 0000.0001) %MON forcing_fu_del2              =   7.1304989393077E-04
(PID.TID 0000.0001) %MON forcing_fv_max               =   1.6746481135488E-01
(PID.TID 0000.0001) %MON forcing_fv_min               =  -1.9076303839684E-01
(PID.TID 0000.0001) %MON forcing_fv_mean              =  -7.2792950407772E-03
(PID.TID 0000.0001) %MON forcing_fv_sd                =   4.3351289204055E-02
(PID.TID 0000.0001) %MON forcing_fv_del2              =   5.0024732875636E-04
(PID.TID 0000.0001) %MON trAdv_CFL_u_max              =   4.8673441805806E-02
(PID.TID 0000.0001) %MON trAdv_CFL_v_max              =   2.7238740188424E-02
(PID.TID 0000.0001) %MON trAdv_CFL_w_max              =   3.9740181362654E-02
(PID.TID 0000.0001) %MON advcfl_uvel_max              =   4.8378903928805E-02
(PID.TID 0000.0001) %MON advcfl_vvel_max              =   2.6921726117780E-02
(PID.TID 0000.0001) %MON advcfl_wvel_max              =   4.6187284610150E-02
(PID.TID 0000.0001) %MON advcfl_W_hf_max              =   5.6084559883754E-02
(PID.TID 0000.0001) %MON pe_b_mean                    =   4.6166557059559E-04
(PID.TID 0000.0001) %MON ke_max                       =   1.6826201946149E-02
(PID.TID 0000.0001) %MON ke_mean                      =   1.2206046939331E-04
(PID.TID 0000.0001) %MON ke_vol                       =   1.3226782436723E+18
(PID.TID 0000.0001) %MON vort_r_min                   =  -4.7343408507473E-07
(PID.TID 0000.0001) %MON vort_r_max                   =   4.2256207618526E-07
(PID.TID 0000.0001) %MON vort_a_mean                  =  -2.5274807055862E-05
(PID.TID 0000.0001) %MON vort_a_sd                    =   7.3604678949312E-05
(PID.TID 0000.0001) %MON vort_p_mean                  =  -3.1845655369078E-05
(PID.TID 0000.0001) %MON vort_p_sd                    =   1.3162471484716E-04
(PID.TID 0000.0001) %MON surfExpan_theta_mean         =   3.0799618379027E-07
(PID.TID 0000.0001) %MON surfExpan_salt_mean          =  -6.1425216813254E-08
(PID.TID 0000.0001) // =======================================================
(PID.TID 0000.0001) // End MONITOR dynamic field statistics
(PID.TID 0000.0001) // =======================================================
 EXTERNAL_FIELDS_LOAD,        52 : iP,iLd,i0,i1=    2    3    2    3 ; Wght=  0.7666666667  0.2333333333
 EXTERNAL_FIELDS_LOAD: (fu0,1),fu,fv= -1.4435E-02 -2.7199E-02 -1.7413E-02 -1.3655E-02
 EXTERNAL_FIELDS_LOAD: SST,SSS,Q,E-P= -4.5067E-01  3.4458E+01  2.3463E+02  8.5414E-06
DEBUG_STATS_RL:          Uvel (THERMODYNAMICS)  min= -1.25539429089932E-01
DEBUG_STATS_RL:          Uvel (THERMODYNAMICS)  max=  1.85051466730167E-01
DEBUG_STATS_RL:          Uvel (THERMODYNAMICS) mean=  5.54282399812443E-03
DEBUG_STATS_RL:          Uvel (THERMODYNAMICS) S.D.=  2.28601625540694E-02
DEBUG_STATS_RL:          Vvel (THERMODYNAMICS)  min= -9.54533399745811E-02
DEBUG_STATS_RL:          Vvel (THERMODYNAMICS)  max=  1.38568957780109E-01
DEBUG_STATS_RL:          Vvel (THERMODYNAMICS) mean=  1.60479657004260E-03
DEBUG_STATS_RL:          Vvel (THERMODYNAMICS) S.D.=  1.38268198611250E-02
DEBUG_STATS_RL:          Wvel (THERMODYNAMICS)  min= -6.94857429263048E-05
DEBUG_STATS_RL:          Wvel (THERMODYNAMICS)  max=  1.38824748265799E-04
DEBUG_STATS_RL:          Wvel (THERMODYNAMICS) mean=  6.42299872540341E-08
DEBUG_STATS_RL:          Wvel (THERMODYNAMICS) S.D.=  1.03596312872915E-05
DEBUG_STATS_RL:         Theta (THERMODYNAMICS)  min= -1.94735620257430E+00
DEBUG_STATS_RL:         Theta (THERMODYNAMICS)  max=  2.99279019409055E+01
DEBUG_STATS_RL:         Theta (THERMODYNAMICS) mean=  3.21141068702332E+00
DEBUG_STATS_RL:         Theta (THERMODYNAMICS) S.D.=  5.86371864656117E+00
DEBUG_STATS_RL:          Salt (THERMODYNAMICS)  min= -6.86350255588998E-04
DEBUG_STATS_RL:          Salt (THERMODYNAMICS)  max=  3.74554352329953E+01
DEBUG_STATS_RL:          Salt (THERMODYNAMICS) mean=  1.88442387837775E+01
DEBUG_STATS_RL:          Salt (THERMODYNAMICS) S.D.=  1.73004386501161E+01
DEBUG_STATS_RL:         GtNm1 (THERMODYNAMICS)  min= -2.68599801927429E-06
DEBUG_STATS_RL:         GtNm1 (THERMODYNAMICS)  max=  2.33554252848068E-06
DEBUG_STATS_RL:         GtNm1 (THERMODYNAMICS) mean=  7.90551486363812E-10
DEBUG_STATS_RL:         GtNm1 (THERMODYNAMICS) S.D.=  1.60518399670456E-07
DEBUG_STATS_RL:         GsNm1 (THERMODYNAMICS)  min= -4.61225472261032E-07
DEBUG_STATS_RL:         GsNm1 (THERMODYNAMICS)  max=  3.32899593587228E-07
DEBUG_STATS_RL:         GsNm1 (THERMODYNAMICS) mean= -1.36255095718051E-11
DEBUG_STATS_RL:         GsNm1 (THERMODYNAMICS) S.D.=  1.64332020292890E-08
DEBUG_STATS_RL:                EtaN (DYNAMICS)  min= -1.86587700092868E+00
DEBUG_STATS_RL:                EtaN (DYNAMICS)  max=  8.10415945285283E-01
DEBUG_STATS_RL:                EtaN (DYNAMICS) mean= -1.75972524464021E-01
DEBUG_STATS_RL:                EtaN (DYNAMICS) S.D.=  6.94223086472841E-01
DEBUG_STATS_RL:                Uvel (DYNAMICS)  min= -1.25539429089932E-01
DEBUG_STATS_RL:                Uvel (DYNAMICS)  max=  1.85051466730167E-01
DEBUG_STATS_RL:                Uvel (DYNAMICS) mean=  5.54282399812443E-03
DEBUG_STATS_RL:                Uvel (DYNAMICS) S.D.=  2.28601625540694E-02
DEBUG_STATS_RL:                Vvel (DYNAMICS)  min= -9.54533399745811E-02
DEBUG_STATS_RL:                Vvel (DYNAMICS)  max=  1.38568957780109E-01
DEBUG_STATS_RL:                Vvel (DYNAMICS) mean=  1.60479657004260E-03
DEBUG_STATS_RL:                Vvel (DYNAMICS) S.D.=  1.38268198611250E-02
DEBUG_STATS_RL:                Wvel (DYNAMICS)  min= -6.94857429263048E-05
DEBUG_STATS_RL:                Wvel (DYNAMICS)  max=  1.38824748265799E-04
DEBUG_STATS_RL:                Wvel (DYNAMICS) mean=  6.42299872540341E-08
DEBUG_STATS_RL:                Wvel (DYNAMICS) S.D.=  1.03596312872915E-05
DEBUG_STATS_RL:               Theta (DYNAMICS)  min= -1.94735620257430E+00
DEBUG_STATS_RL:               Theta (DYNAMICS)  max=  2.99279019409055E+01
DEBUG_STATS_RL:               Theta (DYNAMICS) mean=  3.21141068702332E+00
DEBUG_STATS_RL:               Theta (DYNAMICS) S.D.=  5.86371864656117E+00
DEBUG_STATS_RL:                Salt (DYNAMICS)  min= -6.86350255588998E-04
DEBUG_STATS_RL:                Salt (DYNAMICS)  max=  3.74554352329953E+01
DEBUG_STATS_RL:                Salt (DYNAMICS) mean=  1.88442387837775E+01
DEBUG_STATS_RL:                Salt (DYNAMICS) S.D.=  1.73004386501161E+01
DEBUG_STATS_RL:                  Gu (DYNAMICS)  min= -1.25387736582804E-01
DEBUG_STATS_RL:                  Gu (DYNAMICS)  max=  1.87625192422129E-01
DEBUG_STATS_RL:                  Gu (DYNAMICS) mean=  5.41516831968295E-03
DEBUG_STATS_RL:                  Gu (DYNAMICS) S.D.=  2.28181420006150E-02
DEBUG_STATS_RL:                  Gv (DYNAMICS)  min= -9.26697734515607E-02
DEBUG_STATS_RL:                  Gv (DYNAMICS)  max=  1.41718345148360E-01
DEBUG_STATS_RL:                  Gv (DYNAMICS) mean=  4.11710433485012E-03
DEBUG_STATS_RL:                  Gv (DYNAMICS) S.D.=  1.54528292573945E-02
DEBUG_STATS_RL:               GuNm1 (DYNAMICS)  min= -9.40883105517432E-06
DEBUG_STATS_RL:               GuNm1 (DYNAMICS)  max=  9.02471419581968E-06
DEBUG_STATS_RL:               GuNm1 (DYNAMICS) mean= -7.74285919314365E-09
DEBUG_STATS_RL:               GuNm1 (DYNAMICS) S.D.=  1.17745471830259E-06
DEBUG_STATS_RL:               GvNm1 (DYNAMICS)  min= -9.59415794525415E-06
DEBUG_STATS_RL:               GvNm1 (DYNAMICS)  max=  1.62695142715460E-05
DEBUG_STATS_RL:               GvNm1 (DYNAMICS) mean=  7.48157652047603E-07
DEBUG_STATS_RL:               GvNm1 (DYNAMICS) S.D.=  2.60810068381946E-06
DEBUG_STATS_RL:               GtNm1 (DYNAMICS)  min= -2.68599801927429E-06
DEBUG_STATS_RL:               GtNm1 (DYNAMICS)  max=  2.33554252848068E-06
DEBUG_STATS_RL:               GtNm1 (DYNAMICS) mean=  7.90551486363812E-10
DEBUG_STATS_RL:               GtNm1 (DYNAMICS) S.D.=  1.60518399670456E-07
DEBUG_STATS_RL:               GsNm1 (DYNAMICS)  min= -4.61225472261032E-07
DEBUG_STATS_RL:               GsNm1 (DYNAMICS)  max=  3.32899593587228E-07
DEBUG_STATS_RL:               GsNm1 (DYNAMICS) mean= -1.36255095718051E-11
DEBUG_STATS_RL:               GsNm1 (DYNAMICS) S.D.=  1.64332020292890E-08
DEBUG_STATS_RL:    cg2d_b (SOLVE_FOR_PRESSURE)  min= -1.94171328095808E+04
DEBUG_STATS_RL:    cg2d_b (SOLVE_FOR_PRESSURE)  max=  2.57564338324201E+04
DEBUG_STATS_RL:    cg2d_b (SOLVE_FOR_PRESSURE) mean=  3.83334899049152E+00
DEBUG_STATS_RL:    cg2d_b (SOLVE_FOR_PRESSURE) S.D.=  3.74897485737512E+03
 cg2d: Sum(rhs),rhsMax =   3.44543152624602E-01  1.69175153505154E+00
(PID.TID 0000.0001)  cg2d: iter=     1 ; resid.=  8.68607109449603E-02
(PID.TID 0000.0001)  cg2d: iter=     2 ; resid.=  6.43379929072280E-02
(PID.TID 0000.0001)  cg2d: iter=     3 ; resid.=  8.35037672898857E-02
(PID.TID 0000.0001)  cg2d: iter=     4 ; resid.=  7.98213660685318E-02
(PID.TID 0000.0001)  cg2d: iter=     5 ; resid.=  7.00810173773226E-02
(PID.TID 0000.0001)  cg2d: iter=     6 ; resid.=  6.01765398185605E-02
(PID.TID 0000.0001)  cg2d: iter=     7 ; resid.=  4.60203269305166E-02
(PID.TID 0000.0001)  cg2d: iter=     8 ; resid.=  3.25408977778038E-02
(PID.TID 0000.0001)  cg2d: iter=     9 ; resid.=  2.38114446070570E-02
(PID.TID 0000.0001)  cg2d: iter=    10 ; resid.=  1.89204663061398E-02
(PID.TID 0000.0001)  cg2d: iter=    11 ; resid.=  1.55676934415308E-02
(PID.TID 0000.0001)  cg2d: iter=    12 ; resid.=  1.34918521886683E-02
(PID.TID 0000.0001)  cg2d: iter=    13 ; resid.=  1.15947283897162E-02
(PID.TID 0000.0001)  cg2d: iter=    14 ; resid.=  1.03812242863728E-02
(PID.TID 0000.0001)  cg2d: iter=    15 ; resid.=  9.09076684538558E-03
(PID.TID 0000.0001)  cg2d: iter=    16 ; resid.=  7.33236925625601E-03
(PID.TID 0000.0001)  cg2d: iter=    17 ; resid.=  6.50281509926310E-03
(PID.TID 0000.0001)  cg2d: iter=    18 ; resid.=  5.48783591810068E-03
(PID.TID 0000.0001)  cg2d: iter=    19 ; resid.=  4.27602560417140E-03
(PID.TID 0000.0001)  cg2d: iter=    20 ; resid.=  3.25161201785540E-03
(PID.TID 0000.0001)  cg2d: iter=    21 ; resid.=  2.63144121546871E-03
(PID.TID 0000.0001)  cg2d: iter=    22 ; resid.=  2.51677058010894E-03
(PID.TID 0000.0001)  cg2d: iter=    23 ; resid.=  2.30861771979829E-03
(PID.TID 0000.0001)  cg2d: iter=    24 ; resid.=  1.87776921397630E-03
(PID.TID 0000.0001)  cg2d: iter=    25 ; resid.=  1.45137252287941E-03
(PID.TID 0000.0001)  cg2d: iter=    26 ; resid.=  1.07059313830369E-03
(PID.TID 0000.0001)  cg2d: iter=    27 ; resid.=  8.29675096998897E-04
(PID.TID 0000.0001)  cg2d: iter=    28 ; resid.=  7.00072537507118E-04
(PID.TID 0000.0001)  cg2d: iter=    29 ; resid.=  5.69590812823802E-04
(PID.TID 0000.0001)  cg2d: iter=    30 ; resid.=  4.53827199465721E-04
(PID.TID 0000.0001)  cg2d: iter=    31 ; resid.=  3.86483485453352E-04
(PID.TID 0000.0001)  cg2d: iter=    32 ; resid.=  3.08757279041053E-04
(PID.TID 0000.0001)  cg2d: iter=    33 ; resid.=  2.39334106263582E-04
(PID.TID 0000.0001)  cg2d: iter=    34 ; resid.=  1.93570410587850E-04
(PID.TID 0000.0001)  cg2d: iter=    35 ; resid.=  1.51263882126744E-04
(PID.TID 0000.0001)  cg2d: iter=    36 ; resid.=  1.25625767304508E-04
(PID.TID 0000.0001)  cg2d: iter=    37 ; resid.=  1.07600192214191E-04
(PID.TID 0000.0001)  cg2d: iter=    38 ; resid.=  1.03750797413394E-04
(PID.TID 0000.0001)  cg2d: iter=    39 ; resid.=  9.02268319528941E-05
(PID.TID 0000.0001)  cg2d: iter=    40 ; resid.=  7.02938342553133E-05
(PID.TID 0000.0001)  cg2d: iter=    41 ; resid.=  5.11871744143211E-05
(PID.TID 0000.0001)  cg2d: iter=    42 ; resid.=  4.45175364236476E-05
(PID.TID 0000.0001)  cg2d: iter=    43 ; resid.=  3.95474227732000E-05
(PID.TID 0000.0001)  cg2d: iter=    44 ; resid.=  3.08017894822075E-05
(PID.TID 0000.0001)  cg2d: iter=    45 ; resid.=  2.35702363115822E-05
(PID.TID 0000.0001)  cg2d: iter=    46 ; resid.=  1.97736969792245E-05
(PID.TID 0000.0001)  cg2d: iter=    47 ; resid.=  1.74724787677557E-05
(PID.TID 0000.0001)  cg2d: iter=    48 ; resid.=  1.61534223026426E-05
(PID.TID 0000.0001)  cg2d: iter=    49 ; resid.=  1.35211741783273E-05
(PID.TID 0000.0001)  cg2d: iter=    50 ; resid.=  1.16701724218901E-05
(PID.TID 0000.0001)  cg2d: iter=    51 ; resid.=  1.01402081615737E-05
(PID.TID 0000.0001)  cg2d: iter=    52 ; resid.=  8.72753618334545E-06
(PID.TID 0000.0001)  cg2d: iter=    53 ; resid.=  7.89443001419410E-06
(PID.TID 0000.0001)  cg2d: iter=    54 ; resid.=  6.43430628234618E-06
(PID.TID 0000.0001)  cg2d: iter=    55 ; resid.=  4.98457824012793E-06
(PID.TID 0000.0001)  cg2d: iter=    56 ; resid.=  4.36060434565602E-06
(PID.TID 0000.0001)  cg2d: iter=    57 ; resid.=  4.00463288313963E-06
(PID.TID 0000.0001)  cg2d: iter=    58 ; resid.=  3.44015133574354E-06
(PID.TID 0000.0001)  cg2d: iter=    59 ; resid.=  2.66608763549567E-06
(PID.TID 0000.0001)  cg2d: iter=    60 ; resid.=  1.94362714627738E-06
(PID.TID 0000.0001)  cg2d: iter=    61 ; resid.=  1.61199273428541E-06
(PID.TID 0000.0001)  cg2d: iter=    62 ; resid.=  1.37620263481216E-06
(PID.TID 0000.0001)  cg2d: iter=    63 ; resid.=  1.07123133787298E-06
(PID.TID 0000.0001)  cg2d: iter=    64 ; resid.=  8.62884123361729E-07
(PID.TID 0000.0001)  cg2d: iter=    65 ; resid.=  6.63099685312193E-07
(PID.TID 0000.0001)  cg2d: iter=    66 ; resid.=  5.50771951556857E-07
(PID.TID 0000.0001)  cg2d: iter=    67 ; resid.=  4.77754582089411E-07
(PID.TID 0000.0001)  cg2d: iter=    68 ; resid.=  3.91657245940385E-07
(PID.TID 0000.0001)  cg2d: iter=    69 ; resid.=  3.33086502288346E-07
(PID.TID 0000.0001)  cg2d: iter=    70 ; resid.=  2.82341000687969E-07
(PID.TID 0000.0001)  cg2d: iter=    71 ; resid.=  2.41001027881384E-07
(PID.TID 0000.0001)  cg2d: iter=    72 ; resid.=  2.19380525311462E-07
(PID.TID 0000.0001)  cg2d: iter=    73 ; resid.=  2.00405567309103E-07
(PID.TID 0000.0001)  cg2d: iter=    74 ; resid.=  1.77827929368321E-07
(PID.TID 0000.0001)  cg2d: iter=    75 ; resid.=  1.46999722297100E-07
(PID.TID 0000.0001)  cg2d: iter=    76 ; resid.=  1.11404110930990E-07
(PID.TID 0000.0001)  cg2d: iter=    77 ; resid.=  8.40730769248299E-08
(PID.TID 0000.0001)  cg2d: iter=    78 ; resid.=  6.37495586585348E-08
(PID.TID 0000.0001)  cg2d: iter=    79 ; resid.=  4.73979914197055E-08
(PID.TID 0000.0001)  cg2d: iter=    80 ; resid.=  3.44478232220884E-08
(PID.TID 0000.0001)  cg2d: iter=    81 ; resid.=  2.58939162875472E-08
(PID.TID 0000.0001)  cg2d: iter=    82 ; resid.=  1.98285874999539E-08
(PID.TID 0000.0001)  cg2d: iter=    83 ; resid.=  1.57705592670720E-08
(PID.TID 0000.0001)  cg2d: iter=    84 ; resid.=  1.29643350544286E-08
(PID.TID 0000.0001)  cg2d: iter=    85 ; resid.=  9.97305406568168E-09
(PID.TID 0000.0001)  cg2d: iter=    86 ; resid.=  7.23464613017018E-09
(PID.TID 0000.0001)  cg2d: iter=    87 ; resid.=  5.55214440832878E-09
(PID.TID 0000.0001)  cg2d: iter=    88 ; resid.=  4.37224799278380E-09
(PID.TID 0000.0001)  cg2d: iter=    89 ; resid.=  3.86411658283402E-09
(PID.TID 0000.0001)  cg2d: iter=    90 ; resid.=  3.34911677097187E-09
(PID.TID 0000.0001)  cg2d: iter=    91 ; resid.=  2.65706989535054E-09
(PID.TID 0000.0001)  cg2d: iter=    92 ; resid.=  1.93317676421874E-09
(PID.TID 0000.0001)  cg2d: iter=    93 ; resid.=  1.45024084758454E-09
(PID.TID 0000.0001)  cg2d: iter=    94 ; resid.=  1.19052113336639E-09
(PID.TID 0000.0001)  cg2d: iter=    95 ; resid.=  1.02095681862991E-09
(PID.TID 0000.0001)  cg2d: iter=    96 ; resid.=  8.64392206293149E-10
(PID.TID 0000.0001)  cg2d: iter=    97 ; resid.=  6.90943013708081E-10
(PID.TID 0000.0001)  cg2d: iter=    98 ; resid.=  5.31009660367634E-10
(PID.TID 0000.0001)  cg2d: iter=    99 ; resid.=  4.33142567589746E-10
(PID.TID 0000.0001)  cg2d: iter=   100 ; resid.=  4.10572812392124E-10
(PID.TID 0000.0001)  cg2d: iter=   101 ; resid.=  3.77770684772529E-10
(PID.TID 0000.0001)  cg2d: iter=   102 ; resid.=  2.84430501200967E-10
(PID.TID 0000.0001)  cg2d: iter=   103 ; resid.=  2.04676764630493E-10
(PID.TID 0000.0001)  cg2d: iter=   104 ; resid.=  1.54853685106963E-10
(PID.TID 0000.0001)  cg2d: iter=   105 ; resid.=  1.27677325480255E-10
(PID.TID 0000.0001)  cg2d: iter=   106 ; resid.=  1.04817907408649E-10
(PID.TID 0000.0001)  cg2d: iter=   107 ; resid.=  7.82183500727355E-11
(PID.TID 0000.0001)  cg2d: iter=   108 ; resid.=  5.83419807815970E-11
(PID.TID 0000.0001)  cg2d: iter=   109 ; resid.=  4.47998307431783E-11
(PID.TID 0000.0001)  cg2d: iter=   110 ; resid.=  3.65679101259820E-11
(PID.TID 0000.0001)  cg2d: iter=   111 ; resid.=  2.54586463918251E-11
(PID.TID 0000.0001)  cg2d: iter=   112 ; resid.=  1.84256498199490E-11
(PID.TID 0000.0001)  cg2d: iter=   113 ; resid.=  1.27252917784118E-11
(PID.TID 0000.0001)  cg2d: iter=   114 ; resid.=  9.45445956119657E-12
(PID.TID 0000.0001)  cg2d: iter=   115 ; resid.=  8.08699348260558E-12
(PID.TID 0000.0001)  cg2d: iter=   116 ; resid.=  6.97770961407839E-12
(PID.TID 0000.0001)  cg2d: iter=   117 ; resid.=  5.94074556714480E-12
(PID.TID 0000.0001)  cg2d: iter=   118 ; resid.=  4.69464050519394E-12
(PID.TID 0000.0001)  cg2d: iter=   119 ; resid.=  3.58709145911028E-12
(PID.TID 0000.0001)  cg2d: iter=   120 ; resid.=  2.74165519529972E-12
(PID.TID 0000.0001)  cg2d: iter=   121 ; resid.=  1.96318979927500E-12
(PID.TID 0000.0001)  cg2d: iter=   122 ; resid.=  1.36980887083193E-12
(PID.TID 0000.0001)  cg2d: iter=   123 ; resid.=  9.35280396219358E-13
(PID.TID 0000.0001)  cg2d: iter=   124 ; resid.=  6.37525055136547E-13
(PID.TID 0000.0001)  cg2d: iter=   125 ; resid.=  4.76348137344144E-13
(PID.TID 0000.0001)  cg2d: iter=   126 ; resid.=  3.62680542437804E-13
(PID.TID 0000.0001)  cg2d: iter=   127 ; resid.=  2.46109034897918E-13
(PID.TID 0000.0001)  cg2d: iter=   128 ; resid.=  1.53471835465119E-13
(PID.TID 0000.0001)  cg2d: iter=   129 ; resid.=  1.02613456203240E-13
(PID.TID 0000.0001)  cg2d: iter=   130 ; resid.=  7.82806061901481E-14
DEBUG_STATS_RL:    cg2d_x (SOLVE_FOR_PRESSURE)  min= -1.84872403914740E+01
DEBUG_STATS_RL:    cg2d_x (SOLVE_FOR_PRESSURE)  max=  8.09694962677585E+00
DEBUG_STATS_RL:    cg2d_x (SOLVE_FOR_PRESSURE) mean= -1.74002974236058E+00
DEBUG_STATS_RL:    cg2d_x (SOLVE_FOR_PRESSURE) S.D.=  6.88235882981134E+00
(PID.TID 0000.0001)      cg2d_init_res =   2.76321011544696E-01
(PID.TID 0000.0001)      cg2d_iters(min,last) =      -1     130
(PID.TID 0000.0001)      cg2d_last_res =   7.82806061901481E-14
(PID.TID 0000.0001) // =======================================================
(PID.TID 0000.0001) // Begin MONITOR dynamic field statistics
(PID.TID 0000.0001) // =======================================================
(PID.TID 0000.0001) %MON time_tsnumber                =                    53
(PID.TID 0000.0001) %MON time_secondsf                =   4.5792000000000E+06
(PID.TID 0000.0001) %MON dynstat_eta_max              =   8.2537712811172E-01
(PID.TID 0000.0001) %MON dynstat_eta_min              =  -1.8845301112614E+00
(PID.TID 0000.0001) %MON dynstat_eta_mean             =  -3.9996243519957E-03
(PID.TID 0000.0001) %MON dynstat_eta_sd               =   6.0837646953849E-01
(PID.TID 0000.0001) %MON dynstat_eta_del2             =   2.3070192241065E-03
(PID.TID 0000.0001) %MON dynstat_uvel_max             =   1.8197781573660E-01
(PID.TID 0000.0001) %MON dynstat_uvel_min             =  -1.2578956039579E-01
(PID.TID 0000.0001) %MON dynstat_uvel_mean            =   2.2633830533340E-03
(PID.TID 0000.0001) %MON dynstat_uvel_sd              =   1.3748068738409E-02
(PID.TID 0000.0001) %MON dynstat_uvel_del2            =   8.2529927419797E-05
(PID.TID 0000.0001) %MON dynstat_vvel_max             =   1.4011085661701E-01
(PID.TID 0000.0001) %MON dynstat_vvel_min             =  -9.2767010155235E-02
(PID.TID 0000.0001) %MON dynstat_vvel_mean            =   2.0391504868397E-06
(PID.TID 0000.0001) %MON dynstat_vvel_sd              =   8.3211492784358E-03
(PID.TID 0000.0001) %MON dynstat_vvel_del2            =   7.2320933722162E-05
(PID.TID 0000.0001) %MON dynstat_wvel_max             =   1.3442528744488E-04
(PID.TID 0000.0001) %MON dynstat_wvel_min             =  -6.3693502799732E-05
(PID.TID 0000.0001) %MON dynstat_wvel_mean            =  -1.3727748345640E-23
(PID.TID 0000.0001) %MON dynstat_wvel_sd              =   1.1481505280741E-05
(PID.TID 0000.0001) %MON dynstat_wvel_del2            =   1.2067393578497E-07
(PID.TID 0000.0001) %MON dynstat_theta_max            =   2.9927901940905E+01
(PID.TID 0000.0001) %MON dynstat_theta_min            =  -1.9473562025743E+00
(PID.TID 0000.0001) %MON dynstat_theta_mean           =   3.6209137819662E+00
(PID.TID 0000.0001) %MON dynstat_theta_sd             =   4.4187081843820E+00
(PID.TID 0000.0001) %MON dynstat_theta_del2           =   4.7075091389684E-03
(PID.TID 0000.0001) %MON dynstat_salt_max             =   3.7455435232995E+01
(PID.TID 0000.0001) %MON dynstat_salt_min             =   2.9837564788278E+01
(PID.TID 0000.0001) %MON dynstat_salt_mean            =   3.4717295687416E+01
(PID.TID 0000.0001) %MON dynstat_salt_sd              =   2.9622327846834E-01
(PID.TID 0000.0001) %MON dynstat_salt_del2            =   9.7277618773849E-04
(PID.TID 0000.0001) %MON dynstat_sst_max              =   2.9927901940905E+01
(PID.TID 0000.0001) %MON dynstat_sst_min              =  -1.9473562025743E+00
(PID.TID 0000.0001) %MON dynstat_sst_mean             =   1.8785258470007E+01
(PID.TID 0000.0001) %MON dynstat_sst_sd               =   9.1131486076436E+00
(PID.TID 0000.0001) %MON dynstat_sst_del2             =   2.4943177019532E-02
(PID.TID 0000.0001) %MON dynstat_sss_max              =   3.7395230465219E+01
(PID.TID 0000.0001) %MON dynstat_sss_min              =   2.9837564788278E+01
(PID.TID 0000.0001) %MON dynstat_sss_mean             =   3.4842628880274E+01
(PID.TID 0000.0001) %MON dynstat_sss_sd               =   9.7615553401608E-01
(PID.TID 0000.0001) %MON dynstat_sss_del2             =   7.6741153630067E-03
(PID.TID 0000.0001) %MON forcing_qnet_max             =   3.3886517842611E+02
(PID.TID 0000.0001) %MON forcing_qnet_min             =  -1.7073901418050E+02
(PID.TID 0000.0001) %MON forcing_qnet_mean            =  -1.2401874481557E+01
(PID.TID 0000.0001) %MON forcing_qnet_sd              =   6.9891135718298E+01
(PID.TID 0000.0001) %MON forcing_qnet_del2            =   9.1294827007943E-01
(PID.TID 0000.0001) %MON forcing_qsw_max              =   0.0000000000000E+00
(PID.TID 0000.0001) %MON forcing_qsw_min              =   0.0000000000000E+00
(PID.TID 0000.0001) %MON forcing_qsw_mean             =   0.0000000000000E+00
(PID.TID 0000.0001) %MON forcing_qsw_sd               =   0.0000000000000E+00
(PID.TID 0000.0001) %MON forcing_qsw_del2             =   0.0000000000000E+00
(PID.TID 0000.0001) %MON forcing_empmr_max            =   6.9241217678003E-05
(PID.TID 0000.0001) %MON forcing_empmr_min            =  -7.4083286942065E-05
(PID.TID 0000.0001) %MON forcing_empmr_mean           =   8.5177946378889E-07
(PID.TID 0000.0001) %MON forcing_empmr_sd             =   2.7401269076073E-05
(PID.TID 0000.0001) %MON forcing_empmr_del2           =   3.5339193351951E-07
(PID.TID 0000.0001) %MON forcing_fu_max               =   3.1390599310398E-01
(PID.TID 0000.0001) %MON forcing_fu_min               =  -2.5342475722233E-01
(PID.TID 0000.0001) %MON forcing_fu_mean              =   1.8290138742845E-02
(PID.TID 0000.0001) %MON forcing_fu_sd                =   9.3499658141920E-02
(PID.TID 0000.0001) %MON forcing_fu_del2              =   7.1000949682168E-04
(PID.TID 0000.0001) %MON forcing_fv_max               =   1.6197121615211E-01
(PID.TID 0000.0001) %MON forcing_fv_min               =  -1.8927700221539E-01
(PID.TID 0000.0001) %MON forcing_fv_mean              =  -7.2897233907466E-03
(PID.TID 0000.0001) %MON forcing_fv_sd                =   4.3122711947279E-02
(PID.TID 0000.0001) %MON forcing_fv_del2              =   4.9479609729253E-04
(PID.TID 0000.0001) %MON trAdv_CFL_u_max              =   4.8388730030205E-02
(PID.TID 0000.0001) %MON trAdv_CFL_v_max              =   2.6745088303242E-02
(PID.TID 0000.0001) %MON trAdv_CFL_w_max              =   3.9259191918628E-02
(PID.TID 0000.0001) %MON advcfl_uvel_max              =   4.7575344417737E-02
(PID.TID 0000.0001) %MON advcfl_vvel_max              =   2.7221292332706E-02
(PID.TID 0000.0001) %MON advcfl_wvel_max              =   4.4862288921987E-02
(PID.TID 0000.0001) %MON advcfl_W_hf_max              =   5.4475636548127E-02
(PID.TID 0000.0001) %MON pe_b_mean                    =   4.7363608968346E-04
(PID.TID 0000.0001) %MON ke_max                       =   1.6318607206296E-02
(PID.TID 0000.0001) %MON ke_mean                      =   1.1928279820384E-04
(PID.TID 0000.0001) %MON ke_vol                       =   1.3226782436723E+18
(PID.TID 0000.0001) %MON vort_r_min                   =  -4.6564472096565E-07
(PID.TID 0000.0001) %MON vort_r_max                   =   4.1215863744637E-07
(PID.TID 0000.0001) %MON vort_a_mean                  =  -2.5274806953931E-05
(PID.TID 0000.0001) %MON vort_a_sd                    =   7.3604679212738E-05
(PID.TID 0000.0001) %MON vort_p_mean                  =  -3.1845655240648E-05
(PID.TID 0000.0001) %MON vort_p_sd                    =   1.3162480371397E-04
(PID.TID 0000.0001) %MON surfExpan_theta_mean         =   3.7169941316899E-07
(PID.TID 0000.0001) %MON surfExpan_salt_mean          =  -6.2582400972605E-08
(PID.TID 0000.0001) // =======================================================
(PID.TID 0000.0001) // End MONITOR dynamic field statistics
(PID.TID 0000.0001) // =======================================================
 EXTERNAL_FIELDS_LOAD,        53 : iP,iLd,i0,i1=    2    3    2    3 ; Wght=  0.7333333333  0.2666666667
 EXTERNAL_FIELDS_LOAD: (fu0,1),fu,fv= -1.4435E-02 -2.7199E-02 -1.7838E-02 -1.3087E-02
 EXTERNAL_FIELDS_LOAD: SST,SSS,Q,E-P= -4.3907E-01  3.4463E+01  2.3379E+02  8.5648E-06
DEBUG_STATS_RL:          Uvel (THERMODYNAMICS)  min= -1.25789560395785E-01
DEBUG_STATS_RL:          Uvel (THERMODYNAMICS)  max=  1.81977815736605E-01
DEBUG_STATS_RL:          Uvel (THERMODYNAMICS) mean=  5.50108740773041E-03
DEBUG_STATS_RL:          Uvel (THERMODYNAMICS) S.D.=  2.24398854953809E-02
DEBUG_STATS_RL:          Vvel (THERMODYNAMICS)  min= -9.27670101552345E-02
DEBUG_STATS_RL:          Vvel (THERMODYNAMICS)  max=  1.40110856617014E-01
DEBUG_STATS_RL:          Vvel (THERMODYNAMICS) mean=  1.56137882864558E-03
DEBUG_STATS_RL:          Vvel (THERMODYNAMICS) S.D.=  1.37801328132635E-02
DEBUG_STATS_RL:          Wvel (THERMODYNAMICS)  min= -6.36935027997317E-05
DEBUG_STATS_RL:          Wvel (THERMODYNAMICS)  max=  1.34425287444875E-04
DEBUG_STATS_RL:          Wvel (THERMODYNAMICS) mean=  6.16968169121218E-08
DEBUG_STATS_RL:          Wvel (THERMODYNAMICS) S.D.=  1.01928856535657E-05
DEBUG_STATS_RL:         Theta (THERMODYNAMICS)  min= -1.94591820801055E+00
DEBUG_STATS_RL:         Theta (THERMODYNAMICS)  max=  2.99244082688124E+01
DEBUG_STATS_RL:         Theta (THERMODYNAMICS) mean=  3.21136082427682E+00
DEBUG_STATS_RL:         Theta (THERMODYNAMICS) S.D.=  5.86406259299068E+00
DEBUG_STATS_RL:          Salt (THERMODYNAMICS)  min= -6.86350255588998E-04
DEBUG_STATS_RL:          Salt (THERMODYNAMICS)  max=  3.74561378121527E+01
DEBUG_STATS_RL:          Salt (THERMODYNAMICS) mean=  1.88442351983478E+01
DEBUG_STATS_RL:          Salt (THERMODYNAMICS) S.D.=  1.73004356996916E+01
DEBUG_STATS_RL:         GtNm1 (THERMODYNAMICS)  min= -2.59317199089280E-06
DEBUG_STATS_RL:         GtNm1 (THERMODYNAMICS)  max=  2.33347129752021E-06
DEBUG_STATS_RL:         GtNm1 (THERMODYNAMICS) mean=  2.00706812825057E-10
DEBUG_STATS_RL:         GtNm1 (THERMODYNAMICS) S.D.=  1.60283245812916E-07
DEBUG_STATS_RL:         GsNm1 (THERMODYNAMICS)  min= -4.67798018281219E-07
DEBUG_STATS_RL:         GsNm1 (THERMODYNAMICS)  max=  3.63242051274489E-07
DEBUG_STATS_RL:         GsNm1 (THERMODYNAMICS) mean= -8.61975908897865E-11
DEBUG_STATS_RL:         GsNm1 (THERMODYNAMICS) S.D.=  1.66086436928456E-08
DEBUG_STATS_RL:                EtaN (DYNAMICS)  min= -1.88453011126139E+00
DEBUG_STATS_RL:                EtaN (DYNAMICS)  max=  8.25377128111720E-01
DEBUG_STATS_RL:                EtaN (DYNAMICS) mean= -1.77373062422079E-01
DEBUG_STATS_RL:                EtaN (DYNAMICS) S.D.=  7.01565629950189E-01
DEBUG_STATS_RL:                Uvel (DYNAMICS)  min= -1.25789560395785E-01
DEBUG_STATS_RL:                Uvel (DYNAMICS)  max=  1.81977815736605E-01
DEBUG_STATS_RL:                Uvel (DYNAMICS) mean=  5.50108740773041E-03
DEBUG_STATS_RL:                Uvel (DYNAMICS) S.D.=  2.24398854953809E-02
DEBUG_STATS_RL:                Vvel (DYNAMICS)  min= -9.27670101552345E-02
DEBUG_STATS_RL:                Vvel (DYNAMICS)  max=  1.40110856617014E-01
DEBUG_STATS_RL:                Vvel (DYNAMICS) mean=  1.56137882864558E-03
DEBUG_STATS_RL:                Vvel (DYNAMICS) S.D.=  1.37801328132635E-02
DEBUG_STATS_RL:                Wvel (DYNAMICS)  min= -6.36935027997317E-05
DEBUG_STATS_RL:                Wvel (DYNAMICS)  max=  1.34425287444875E-04
DEBUG_STATS_RL:                Wvel (DYNAMICS) mean=  6.16968169121218E-08
DEBUG_STATS_RL:                Wvel (DYNAMICS) S.D.=  1.01928856535657E-05
DEBUG_STATS_RL:               Theta (DYNAMICS)  min= -1.94591820801055E+00
DEBUG_STATS_RL:               Theta (DYNAMICS)  max=  2.99244082688124E+01
DEBUG_STATS_RL:               Theta (DYNAMICS) mean=  3.21136082427682E+00
DEBUG_STATS_RL:               Theta (DYNAMICS) S.D.=  5.86406259299068E+00
DEBUG_STATS_RL:                Salt (DYNAMICS)  min= -6.86350255588998E-04
DEBUG_STATS_RL:                Salt (DYNAMICS)  max=  3.74561378121527E+01
DEBUG_STATS_RL:                Salt (DYNAMICS) mean=  1.88442351983478E+01
DEBUG_STATS_RL:                Salt (DYNAMICS) S.D.=  1.73004356996916E+01
DEBUG_STATS_RL:                  Gu (DYNAMICS)  min= -1.25549871915784E-01
DEBUG_STATS_RL:                  Gu (DYNAMICS)  max=  1.82878853978445E-01
DEBUG_STATS_RL:                  Gu (DYNAMICS) mean=  5.37155943956675E-03
DEBUG_STATS_RL:                  Gu (DYNAMICS) S.D.=  2.23920714424752E-02
DEBUG_STATS_RL:                  Gv (DYNAMICS)  min= -9.10069763353275E-02
DEBUG_STATS_RL:                  Gv (DYNAMICS)  max=  1.43004215639389E-01
DEBUG_STATS_RL:                  Gv (DYNAMICS) mean=  4.05257874698642E-03
DEBUG_STATS_RL:                  Gv (DYNAMICS) S.D.=  1.54326172186570E-02
DEBUG_STATS_RL:               GuNm1 (DYNAMICS)  min= -9.47593466357198E-06
DEBUG_STATS_RL:               GuNm1 (DYNAMICS)  max=  9.07534649862797E-06
DEBUG_STATS_RL:               GuNm1 (DYNAMICS) mean= -6.79511828923589E-09
DEBUG_STATS_RL:               GuNm1 (DYNAMICS) S.D.=  1.17885267239355E-06
DEBUG_STATS_RL:               GvNm1 (DYNAMICS)  min= -9.62174275484531E-06
DEBUG_STATS_RL:               GvNm1 (DYNAMICS)  max=  1.62256979336142E-05
DEBUG_STATS_RL:               GvNm1 (DYNAMICS) mean=  7.47587564996744E-07
DEBUG_STATS_RL:               GvNm1 (DYNAMICS) S.D.=  2.61277026813212E-06
DEBUG_STATS_RL:               GtNm1 (DYNAMICS)  min= -2.59317199089280E-06
DEBUG_STATS_RL:               GtNm1 (DYNAMICS)  max=  2.33347129752021E-06
DEBUG_STATS_RL:               GtNm1 (DYNAMICS) mean=  2.00706812825057E-10
DEBUG_STATS_RL:               GtNm1 (DYNAMICS) S.D.=  1.60283245812916E-07
DEBUG_STATS_RL:               GsNm1 (DYNAMICS)  min= -4.67798018281219E-07
DEBUG_STATS_RL:               GsNm1 (DYNAMICS)  max=  3.63242051274489E-07
DEBUG_STATS_RL:               GsNm1 (DYNAMICS) mean= -8.61975908897865E-11
DEBUG_STATS_RL:               GsNm1 (DYNAMICS) S.D.=  1.66086436928456E-08
DEBUG_STATS_RL:    cg2d_b (SOLVE_FOR_PRESSURE)  min= -1.94687368668758E+04
DEBUG_STATS_RL:    cg2d_b (SOLVE_FOR_PRESSURE)  max=  2.57883834868225E+04
DEBUG_STATS_RL:    cg2d_b (SOLVE_FOR_PRESSURE) mean=  3.90045072883187E+00
DEBUG_STATS_RL:    cg2d_b (SOLVE_FOR_PRESSURE) S.D.=  3.77042188839532E+03
 cg2d: Sum(rhs),rhsMax =   3.50139955141368E-01  1.69385007389551E+00
(PID.TID 0000.0001)  cg2d: iter=     1 ; resid.=  8.58521816765297E-02
(PID.TID 0000.0001)  cg2d: iter=     2 ; resid.=  6.71083735371800E-02
(PID.TID 0000.0001)  cg2d: iter=     3 ; resid.=  8.73192112325915E-02
(PID.TID 0000.0001)  cg2d: iter=     4 ; resid.=  8.05783570986879E-02
(PID.TID 0000.0001)  cg2d: iter=     5 ; resid.=  6.99154478941268E-02
(PID.TID 0000.0001)  cg2d: iter=     6 ; resid.=  5.85056509849990E-02
(PID.TID 0000.0001)  cg2d: iter=     7 ; resid.=  4.49306659216921E-02
(PID.TID 0000.0001)  cg2d: iter=     8 ; resid.=  3.29822679906748E-02
(PID.TID 0000.0001)  cg2d: iter=     9 ; resid.=  2.49417865637663E-02
(PID.TID 0000.0001)  cg2d: iter=    10 ; resid.=  2.00846831145667E-02
(PID.TID 0000.0001)  cg2d: iter=    11 ; resid.=  1.62004956662396E-02
(PID.TID 0000.0001)  cg2d: iter=    12 ; resid.=  1.35220950604622E-02
(PID.TID 0000.0001)  cg2d: iter=    13 ; resid.=  1.10880660691512E-02
(PID.TID 0000.0001)  cg2d: iter=    14 ; resid.=  9.63775272407808E-03
(PID.TID 0000.0001)  cg2d: iter=    15 ; resid.=  8.26083502991780E-03
(PID.TID 0000.0001)  cg2d: iter=    16 ; resid.=  6.78639612741918E-03
(PID.TID 0000.0001)  cg2d: iter=    17 ; resid.=  6.29851548349041E-03
(PID.TID 0000.0001)  cg2d: iter=    18 ; resid.=  5.63185853076929E-03
(PID.TID 0000.0001)  cg2d: iter=    19 ; resid.=  4.33823954768202E-03
(PID.TID 0000.0001)  cg2d: iter=    20 ; resid.=  3.30881823155939E-03
(PID.TID 0000.0001)  cg2d: iter=    21 ; resid.=  2.72367091934043E-03
(PID.TID 0000.0001)  cg2d: iter=    22 ; resid.=  2.52017176424983E-03
(PID.TID 0000.0001)  cg2d: iter=    23 ; resid.=  2.17666270413284E-03
(PID.TID 0000.0001)  cg2d: iter=    24 ; resid.=  1.77590245427934E-03
(PID.TID 0000.0001)  cg2d: iter=    25 ; resid.=  1.40296599724454E-03
(PID.TID 0000.0001)  cg2d: iter=    26 ; resid.=  1.06753521226721E-03
(PID.TID 0000.0001)  cg2d: iter=    27 ; resid.=  8.61641949394152E-04
(PID.TID 0000.0001)  cg2d: iter=    28 ; resid.=  7.35458038995152E-04
(PID.TID 0000.0001)  cg2d: iter=    29 ; resid.=  5.67280036270382E-04
(PID.TID 0000.0001)  cg2d: iter=    30 ; resid.=  4.43093445185192E-04
(PID.TID 0000.0001)  cg2d: iter=    31 ; resid.=  3.90467886952969E-04
(PID.TID 0000.0001)  cg2d: iter=    32 ; resid.=  3.12585205124625E-04
(PID.TID 0000.0001)  cg2d: iter=    33 ; resid.=  2.45086698882749E-04
(PID.TID 0000.0001)  cg2d: iter=    34 ; resid.=  2.01738087472166E-04
(PID.TID 0000.0001)  cg2d: iter=    35 ; resid.=  1.58454314608655E-04
(PID.TID 0000.0001)  cg2d: iter=    36 ; resid.=  1.30167975632308E-04
(PID.TID 0000.0001)  cg2d: iter=    37 ; resid.=  1.10074423286406E-04
(PID.TID 0000.0001)  cg2d: iter=    38 ; resid.=  1.02423346716386E-04
(PID.TID 0000.0001)  cg2d: iter=    39 ; resid.=  8.36996092565675E-05
(PID.TID 0000.0001)  cg2d: iter=    40 ; resid.=  6.53417645020659E-05
(PID.TID 0000.0001)  cg2d: iter=    41 ; resid.=  5.08358540792573E-05
(PID.TID 0000.0001)  cg2d: iter=    42 ; resid.=  4.44714542007623E-05
(PID.TID 0000.0001)  cg2d: iter=    43 ; resid.=  3.84723817965944E-05
(PID.TID 0000.0001)  cg2d: iter=    44 ; resid.=  2.96049461882418E-05
(PID.TID 0000.0001)  cg2d: iter=    45 ; resid.=  2.20066954122734E-05
(PID.TID 0000.0001)  cg2d: iter=    46 ; resid.=  1.74543216660801E-05
(PID.TID 0000.0001)  cg2d: iter=    47 ; resid.=  1.43185987403985E-05
(PID.TID 0000.0001)  cg2d: iter=    48 ; resid.=  1.20454587200383E-05
(PID.TID 0000.0001)  cg2d: iter=    49 ; resid.=  9.66651585998347E-06
(PID.TID 0000.0001)  cg2d: iter=    50 ; resid.=  8.20061167529244E-06
(PID.TID 0000.0001)  cg2d: iter=    51 ; resid.=  6.93647128704335E-06
(PID.TID 0000.0001)  cg2d: iter=    52 ; resid.=  5.73787640635242E-06
(PID.TID 0000.0001)  cg2d: iter=    53 ; resid.=  5.02365523451484E-06
(PID.TID 0000.0001)  cg2d: iter=    54 ; resid.=  4.13610344481842E-06
(PID.TID 0000.0001)  cg2d: iter=    55 ; resid.=  3.23899276339233E-06
(PID.TID 0000.0001)  cg2d: iter=    56 ; resid.=  2.91359149217095E-06
(PID.TID 0000.0001)  cg2d: iter=    57 ; resid.=  2.67921206890563E-06
(PID.TID 0000.0001)  cg2d: iter=    58 ; resid.=  2.20095476749135E-06
(PID.TID 0000.0001)  cg2d: iter=    59 ; resid.=  1.67154764604925E-06
(PID.TID 0000.0001)  cg2d: iter=    60 ; resid.=  1.22052479730094E-06
(PID.TID 0000.0001)  cg2d: iter=    61 ; resid.=  1.00473893222173E-06
(PID.TID 0000.0001)  cg2d: iter=    62 ; resid.=  8.57988727015492E-07
(PID.TID 0000.0001)  cg2d: iter=    63 ; resid.=  6.76174874155422E-07
(PID.TID 0000.0001)  cg2d: iter=    64 ; resid.=  5.75397802301002E-07
(PID.TID 0000.0001)  cg2d: iter=    65 ; resid.=  4.50583413273331E-07
(PID.TID 0000.0001)  cg2d: iter=    66 ; resid.=  3.55679486602983E-07
(PID.TID 0000.0001)  cg2d: iter=    67 ; resid.=  2.63860037057337E-07
(PID.TID 0000.0001)  cg2d: iter=    68 ; resid.=  1.84616428184309E-07
(PID.TID 0000.0001)  cg2d: iter=    69 ; resid.=  1.34579282620156E-07
(PID.TID 0000.0001)  cg2d: iter=    70 ; resid.=  9.47282968069683E-08
(PID.TID 0000.0001)  cg2d: iter=    71 ; resid.=  6.78947707045765E-08
(PID.TID 0000.0001)  cg2d: iter=    72 ; resid.=  4.90017556380594E-08
(PID.TID 0000.0001)  cg2d: iter=    73 ; resid.=  3.74548851683584E-08
(PID.TID 0000.0001)  cg2d: iter=    74 ; resid.=  2.99491655985273E-08
(PID.TID 0000.0001)  cg2d: iter=    75 ; resid.=  2.36589508958254E-08
(PID.TID 0000.0001)  cg2d: iter=    76 ; resid.=  1.94031063566932E-08
(PID.TID 0000.0001)  cg2d: iter=    77 ; resid.=  1.57066549555371E-08
(PID.TID 0000.0001)  cg2d: iter=    78 ; resid.=  1.31433453644619E-08
(PID.TID 0000.0001)  cg2d: iter=    79 ; resid.=  1.20354982464825E-08
(PID.TID 0000.0001)  cg2d: iter=    80 ; resid.=  1.13312792916905E-08
(PID.TID 0000.0001)  cg2d: iter=    81 ; resid.=  1.07054341562152E-08
(PID.TID 0000.0001)  cg2d: iter=    82 ; resid.=  9.64136385448232E-09
(PID.TID 0000.0001)  cg2d: iter=    83 ; resid.=  8.68212529250333E-09
(PID.TID 0000.0001)  cg2d: iter=    84 ; resid.=  8.11551890511473E-09
(PID.TID 0000.0001)  cg2d: iter=    85 ; resid.=  6.70028537261166E-09
(PID.TID 0000.0001)  cg2d: iter=    86 ; resid.=  4.96088584812447E-09
(PID.TID 0000.0001)  cg2d: iter=    87 ; resid.=  3.65326950602500E-09
(PID.TID 0000.0001)  cg2d: iter=    88 ; resid.=  2.76570121068614E-09
(PID.TID 0000.0001)  cg2d: iter=    89 ; resid.=  2.45348301899666E-09
(PID.TID 0000.0001)  cg2d: iter=    90 ; resid.=  2.20981027230840E-09
(PID.TID 0000.0001)  cg2d: iter=    91 ; resid.=  1.82093732969416E-09
(PID.TID 0000.0001)  cg2d: iter=    92 ; resid.=  1.36513158775826E-09
(PID.TID 0000.0001)  cg2d: iter=    93 ; resid.=  9.76672781357547E-10
(PID.TID 0000.0001)  cg2d: iter=    94 ; resid.=  7.53857398831530E-10
(PID.TID 0000.0001)  cg2d: iter=    95 ; resid.=  6.09551998091128E-10
(PID.TID 0000.0001)  cg2d: iter=    96 ; resid.=  4.97239721389697E-10
(PID.TID 0000.0001)  cg2d: iter=    97 ; resid.=  3.86069524420070E-10
(PID.TID 0000.0001)  cg2d: iter=    98 ; resid.=  2.85327027229273E-10
(PID.TID 0000.0001)  cg2d: iter=    99 ; resid.=  2.22382258496719E-10
(PID.TID 0000.0001)  cg2d: iter=   100 ; resid.=  2.04054665152255E-10
(PID.TID 0000.0001)  cg2d: iter=   101 ; resid.=  1.85345993043623E-10
(PID.TID 0000.0001)  cg2d: iter=   102 ; resid.=  1.42712197551537E-10
(PID.TID 0000.0001)  cg2d: iter=   103 ; resid.=  1.07912500998690E-10
(PID.TID 0000.0001)  cg2d: iter=   104 ; resid.=  8.53340823076439E-11
(PID.TID 0000.0001)  cg2d: iter=   105 ; resid.=  7.42276988570068E-11
(PID.TID 0000.0001)  cg2d: iter=   106 ; resid.=  6.56305104174926E-11
(PID.TID 0000.0001)  cg2d: iter=   107 ; resid.=  5.32049247802251E-11
(PID.TID 0000.0001)  cg2d: iter=   108 ; resid.=  4.38291858622724E-11
(PID.TID 0000.0001)  cg2d: iter=   109 ; resid.=  3.66805627147409E-11
(PID.TID 0000.0001)  cg2d: iter=   110 ; resid.=  3.14817373190995E-11
(PID.TID 0000.0001)  cg2d: iter=   111 ; resid.=  2.20213955086097E-11
(PID.TID 0000.0001)  cg2d: iter=   112 ; resid.=  1.58485131363973E-11
(PID.TID 0000.0001)  cg2d: iter=   113 ; resid.=  1.06745316618775E-11
(PID.TID 0000.0001)  cg2d: iter=   114 ; resid.=  7.40472106420986E-12
(PID.TID 0000.0001)  cg2d: iter=   115 ; resid.=  5.70374233696579E-12
(PID.TID 0000.0001)  cg2d: iter=   116 ; resid.=  4.57669961968169E-12
(PID.TID 0000.0001)  cg2d: iter=   117 ; resid.=  3.72616301756462E-12
(PID.TID 0000.0001)  cg2d: iter=   118 ; resid.=  2.99849743591548E-12
(PID.TID 0000.0001)  cg2d: iter=   119 ; resid.=  2.45655631949621E-12
(PID.TID 0000.0001)  cg2d: iter=   120 ; resid.=  2.03465145167874E-12
(PID.TID 0000.0001)  cg2d: iter=   121 ; resid.=  1.54399689666855E-12
(PID.TID 0000.0001)  cg2d: iter=   122 ; resid.=  1.15813782664614E-12
(PID.TID 0000.0001)  cg2d: iter=   123 ; resid.=  8.66819633143746E-13
(PID.TID 0000.0001)  cg2d: iter=   124 ; resid.=  6.38106700521846E-13
(PID.TID 0000.0001)  cg2d: iter=   125 ; resid.=  4.98968671116939E-13
(PID.TID 0000.0001)  cg2d: iter=   126 ; resid.=  3.87455303425864E-13
(PID.TID 0000.0001)  cg2d: iter=   127 ; resid.=  2.63959744899465E-13
(PID.TID 0000.0001)  cg2d: iter=   128 ; resid.=  1.73675907700301E-13
(PID.TID 0000.0001)  cg2d: iter=   129 ; resid.=  1.25731494055939E-13
(PID.TID 0000.0001)  cg2d: iter=   130 ; resid.=  1.00884917763916E-13
(PID.TID 0000.0001)  cg2d: iter=   131 ; resid.=  8.38209742244492E-14
DEBUG_STATS_RL:    cg2d_x (SOLVE_FOR_PRESSURE)  min= -1.85873500636832E+01
DEBUG_STATS_RL:    cg2d_x (SOLVE_FOR_PRESSURE)  max=  8.28639088302936E+00
DEBUG_STATS_RL:    cg2d_x (SOLVE_FOR_PRESSURE) mean= -1.75759492290856E+00
DEBUG_STATS_RL:    cg2d_x (SOLVE_FOR_PRESSURE) S.D.=  6.95654830699809E+00
(PID.TID 0000.0001)      cg2d_init_res =   2.72080219750860E-01
(PID.TID 0000.0001)      cg2d_iters(min,last) =      -1     131
(PID.TID 0000.0001)      cg2d_last_res =   8.38209742244492E-14
(PID.TID 0000.0001) // =======================================================
(PID.TID 0000.0001) // Begin MONITOR dynamic field statistics
(PID.TID 0000.0001) // =======================================================
(PID.TID 0000.0001) %MON time_tsnumber                =                    54
(PID.TID 0000.0001) %MON time_secondsf                =   4.6656000000000E+06
(PID.TID 0000.0001) %MON dynstat_eta_max              =   8.4468816340773E-01
(PID.TID 0000.0001) %MON dynstat_eta_min              =  -1.8947349708137E+00
(PID.TID 0000.0001) %MON dynstat_eta_mean             =  -4.0696366956121E-03
(PID.TID 0000.0001) %MON dynstat_eta_sd               =   6.1644848552111E-01
(PID.TID 0000.0001) %MON dynstat_eta_del2             =   2.3212478790862E-03
(PID.TID 0000.0001) %MON dynstat_uvel_max             =   1.7711897299308E-01
(PID.TID 0000.0001) %MON dynstat_uvel_min             =  -1.2583652709640E-01
(PID.TID 0000.0001) %MON dynstat_uvel_mean            =   2.2745642132429E-03
(PID.TID 0000.0001) %MON dynstat_uvel_sd              =   1.3536915256873E-02
(PID.TID 0000.0001) %MON dynstat_uvel_del2            =   8.1553454789348E-05
(PID.TID 0000.0001) %MON dynstat_vvel_max             =   1.4118180164327E-01
(PID.TID 0000.0001) %MON dynstat_vvel_min             =  -8.9917458212559E-02
(PID.TID 0000.0001) %MON dynstat_vvel_mean            =  -1.9180472151808E-05
(PID.TID 0000.0001) %MON dynstat_vvel_sd              =   8.2916833509811E-03
(PID.TID 0000.0001) %MON dynstat_vvel_del2            =   7.1946570975957E-05
(PID.TID 0000.0001) %MON dynstat_wvel_max             =   1.2916023860212E-04
(PID.TID 0000.0001) %MON dynstat_wvel_min             =  -6.1191570124098E-05
(PID.TID 0000.0001) %MON dynstat_wvel_mean            =   1.4552330723293E-22
(PID.TID 0000.0001) %MON dynstat_wvel_sd              =   1.1343779150746E-05
(PID.TID 0000.0001) %MON dynstat_wvel_del2            =   1.1998483965303E-07
(PID.TID 0000.0001) %MON dynstat_theta_max            =   2.9924408268812E+01
(PID.TID 0000.0001) %MON dynstat_theta_min            =  -1.9459182080106E+00
(PID.TID 0000.0001) %MON dynstat_theta_mean           =   3.6209471359807E+00
(PID.TID 0000.0001) %MON dynstat_theta_sd             =   4.4188460119781E+00
(PID.TID 0000.0001) %MON dynstat_theta_del2           =   4.7175041784480E-03
(PID.TID 0000.0001) %MON dynstat_salt_max             =   3.7456137812153E+01
(PID.TID 0000.0001) %MON dynstat_salt_min             =   2.9839106386147E+01
(PID.TID 0000.0001) %MON dynstat_salt_mean            =   3.4717298536844E+01
(PID.TID 0000.0001) %MON dynstat_salt_sd              =   2.9622928003128E-01
(PID.TID 0000.0001) %MON dynstat_salt_del2            =   9.7243585484217E-04
(PID.TID 0000.0001) %MON dynstat_sst_max              =   2.9924408268812E+01
(PID.TID 0000.0001) %MON dynstat_sst_min              =  -1.9459182080106E+00
(PID.TID 0000.0001) %MON dynstat_sst_mean             =   1.8787580104198E+01
(PID.TID 0000.0001) %MON dynstat_sst_sd               =   9.1193435358816E+00
(PID.TID 0000.0001) %MON dynstat_sst_del2             =   2.4934992054406E-02
(PID.TID 0000.0001) %MON dynstat_sss_max              =   3.7394976567809E+01
(PID.TID 0000.0001) %MON dynstat_sss_min              =   2.9839106386147E+01
(PID.TID 0000.0001) %MON dynstat_sss_mean             =   3.4842350909668E+01
(PID.TID 0000.0001) %MON dynstat_sss_sd               =   9.7634784694852E-01
(PID.TID 0000.0001) %MON dynstat_sss_del2             =   7.6718754020947E-03
(PID.TID 0000.0001) %MON forcing_qnet_max             =   3.3606702677409E+02
(PID.TID 0000.0001) %MON forcing_qnet_min             =  -1.7043973490397E+02
(PID.TID 0000.0001) %MON forcing_qnet_mean            =  -1.2178534981930E+01
(PID.TID 0000.0001) %MON forcing_qnet_sd              =   6.8564785019729E+01
(PID.TID 0000.0001) %MON forcing_qnet_del2            =   9.0838036604570E-01
(PID.TID 0000.0001) %MON forcing_qsw_max              =   0.0000000000000E+00
(PID.TID 0000.0001) %MON forcing_qsw_min              =   0.0000000000000E+00
(PID.TID 0000.0001) %MON forcing_qsw_mean             =   0.0000000000000E+00
(PID.TID 0000.0001) %MON forcing_qsw_sd               =   0.0000000000000E+00
(PID.TID 0000.0001) %MON forcing_qsw_del2             =   0.0000000000000E+00
(PID.TID 0000.0001) %MON forcing_empmr_max            =   6.9235461334453E-05
(PID.TID 0000.0001) %MON forcing_empmr_min            =  -7.4482466535149E-05
(PID.TID 0000.0001) %MON forcing_empmr_mean           =   8.3868953291453E-07
(PID.TID 0000.0001) %MON forcing_empmr_sd             =   2.7327088528464E-05
(PID.TID 0000.0001) %MON forcing_empmr_del2           =   3.5326487369371E-07
(PID.TID 0000.0001) %MON forcing_fu_max               =   3.1523034572601E-01
(PID.TID 0000.0001) %MON forcing_fu_min               =  -2.5880938669046E-01
(PID.TID 0000.0001) %MON forcing_fu_mean              =   1.8384338332303E-02
(PID.TID 0000.0001) %MON forcing_fu_sd                =   9.3654975852564E-02
(PID.TID 0000.0001) %MON forcing_fu_del2              =   7.0776369504339E-04
(PID.TID 0000.0001) %MON forcing_fv_max               =   1.6049519777298E-01
(PID.TID 0000.0001) %MON forcing_fv_min               =  -1.8779096603394E-01
(PID.TID 0000.0001) %MON forcing_fv_mean              =  -7.3001517407161E-03
(PID.TID 0000.0001) %MON forcing_fv_sd                =   4.2910526443214E-02
(PID.TID 0000.0001) %MON forcing_fv_del2              =   4.8979344061927E-04
(PID.TID 0000.0001) %MON trAdv_CFL_u_max              =   4.7585007310452E-02
(PID.TID 0000.0001) %MON trAdv_CFL_v_max              =   2.7042689015611E-02
(PID.TID 0000.0001) %MON trAdv_CFL_w_max              =   3.8132945583689E-02
(PID.TID 0000.0001) %MON advcfl_uvel_max              =   4.6305073555000E-02
(PID.TID 0000.0001) %MON advcfl_vvel_max              =   2.7429359775414E-02
(PID.TID 0000.0001) %MON advcfl_wvel_max              =   4.2942443058487E-02
(PID.TID 0000.0001) %MON advcfl_W_hf_max              =   5.2144395142448E-02
(PID.TID 0000.0001) %MON pe_b_mean                    =   4.8628817334868E-04
(PID.TID 0000.0001) %MON ke_max                       =   1.5877825912217E-02
(PID.TID 0000.0001) %MON ke_mean                      =   1.1646879503332E-04
(PID.TID 0000.0001) %MON ke_vol                       =   1.3226782436723E+18
(PID.TID 0000.0001) %MON vort_r_min                   =  -4.5676627304911E-07
(PID.TID 0000.0001) %MON vort_r_max                   =   3.9932479622036E-07
(PID.TID 0000.0001) %MON vort_a_mean                  =  -2.5274806861034E-05
(PID.TID 0000.0001) %MON vort_a_sd                    =   7.3604678746059E-05
(PID.TID 0000.0001) %MON vort_p_mean                  =  -3.1845655123600E-05
(PID.TID 0000.0001) %MON vort_p_sd                    =   1.3162489195587E-04
(PID.TID 0000.0001) %MON surfExpan_theta_mean         =   4.2724797159624E-07
(PID.TID 0000.0001) %MON surfExpan_salt_mean          =  -6.2255216679125E-08
(PID.TID 0000.0001) // =======================================================
(PID.TID 0000.0001) // End MONITOR dynamic field statistics
(PID.TID 0000.0001) // =======================================================
 EXTERNAL_FIELDS_LOAD,        54 : iP,iLd,i0,i1=    2    3    2    3 ; Wght=  0.7000000000  0.3000000000
 EXTERNAL_FIELDS_LOAD: (fu0,1),fu,fv= -1.4435E-02 -2.7199E-02 -1.8264E-02 -1.2518E-02
 EXTERNAL_FIELDS_LOAD: SST,SSS,Q,E-P= -4.2747E-01  3.4469E+01  2.3296E+02  8.5883E-06
DEBUG_STATS_RL:          Uvel (THERMODYNAMICS)  min= -1.25836527096405E-01
DEBUG_STATS_RL:          Uvel (THERMODYNAMICS)  max=  1.77118972993084E-01
DEBUG_STATS_RL:          Uvel (THERMODYNAMICS) mean=  5.45321265943501E-03
DEBUG_STATS_RL:          Uvel (THERMODYNAMICS) S.D.=  2.20118022092348E-02
DEBUG_STATS_RL:          Vvel (THERMODYNAMICS)  min= -8.99174582125592E-02
DEBUG_STATS_RL:          Vvel (THERMODYNAMICS)  max=  1.41181801643268E-01
DEBUG_STATS_RL:          Vvel (THERMODYNAMICS) mean=  1.49210680060217E-03
DEBUG_STATS_RL:          Vvel (THERMODYNAMICS) S.D.=  1.37322684966490E-02
DEBUG_STATS_RL:          Wvel (THERMODYNAMICS)  min= -6.11915701240982E-05
DEBUG_STATS_RL:          Wvel (THERMODYNAMICS)  max=  1.29160238602119E-04
DEBUG_STATS_RL:          Wvel (THERMODYNAMICS) mean=  5.24599029851159E-08
DEBUG_STATS_RL:          Wvel (THERMODYNAMICS) S.D.=  1.00639775311893E-05
DEBUG_STATS_RL:         Theta (THERMODYNAMICS)  min= -1.94452757278704E+00
DEBUG_STATS_RL:         Theta (THERMODYNAMICS)  max=  2.99202453849905E+01
DEBUG_STATS_RL:         Theta (THERMODYNAMICS) mean=  3.21129320796202E+00
DEBUG_STATS_RL:         Theta (THERMODYNAMICS) S.D.=  5.86437458608859E+00
DEBUG_STATS_RL:          Salt (THERMODYNAMICS)  min= -6.86350255588998E-04
DEBUG_STATS_RL:          Salt (THERMODYNAMICS)  max=  3.74568199278099E+01
DEBUG_STATS_RL:          Salt (THERMODYNAMICS) mean=  1.88442283132552E+01
DEBUG_STATS_RL:          Salt (THERMODYNAMICS) S.D.=  1.73004297460809E+01
DEBUG_STATS_RL:         GtNm1 (THERMODYNAMICS)  min= -2.58278478497616E-06
DEBUG_STATS_RL:         GtNm1 (THERMODYNAMICS)  max=  2.10736454688982E-06
DEBUG_STATS_RL:         GtNm1 (THERMODYNAMICS) mean= -2.84832012198865E-10
DEBUG_STATS_RL:         GtNm1 (THERMODYNAMICS) S.D.=  1.56930924668468E-07
DEBUG_STATS_RL:         GsNm1 (THERMODYNAMICS)  min= -4.69630745607226E-07
DEBUG_STATS_RL:         GsNm1 (THERMODYNAMICS)  max=  2.70265855934360E-07
DEBUG_STATS_RL:         GsNm1 (THERMODYNAMICS) mean= -1.60434468099091E-10
DEBUG_STATS_RL:         GsNm1 (THERMODYNAMICS) S.D.=  1.60252208547083E-08
DEBUG_STATS_RL:                EtaN (DYNAMICS)  min= -1.89473497081370E+00
DEBUG_STATS_RL:                EtaN (DYNAMICS)  max=  8.44688163407731E-01
DEBUG_STATS_RL:                EtaN (DYNAMICS) mean= -1.79163600704236E-01
DEBUG_STATS_RL:                EtaN (DYNAMICS) S.D.=  7.09128267787782E-01
DEBUG_STATS_RL:                Uvel (DYNAMICS)  min= -1.25836527096405E-01
DEBUG_STATS_RL:                Uvel (DYNAMICS)  max=  1.77118972993084E-01
DEBUG_STATS_RL:                Uvel (DYNAMICS) mean=  5.45321265943501E-03
DEBUG_STATS_RL:                Uvel (DYNAMICS) S.D.=  2.20118022092348E-02
DEBUG_STATS_RL:                Vvel (DYNAMICS)  min= -8.99174582125592E-02
DEBUG_STATS_RL:                Vvel (DYNAMICS)  max=  1.41181801643268E-01
DEBUG_STATS_RL:                Vvel (DYNAMICS) mean=  1.49210680060217E-03
DEBUG_STATS_RL:                Vvel (DYNAMICS) S.D.=  1.37322684966490E-02
DEBUG_STATS_RL:                Wvel (DYNAMICS)  min= -6.11915701240982E-05
DEBUG_STATS_RL:                Wvel (DYNAMICS)  max=  1.29160238602119E-04
DEBUG_STATS_RL:                Wvel (DYNAMICS) mean=  5.24599029851159E-08
DEBUG_STATS_RL:                Wvel (DYNAMICS) S.D.=  1.00639775311893E-05
DEBUG_STATS_RL:               Theta (DYNAMICS)  min= -1.94452757278704E+00
DEBUG_STATS_RL:               Theta (DYNAMICS)  max=  2.99202453849905E+01
DEBUG_STATS_RL:               Theta (DYNAMICS) mean=  3.21129320796202E+00
DEBUG_STATS_RL:               Theta (DYNAMICS) S.D.=  5.86437458608859E+00
DEBUG_STATS_RL:                Salt (DYNAMICS)  min= -6.86350255588998E-04
DEBUG_STATS_RL:                Salt (DYNAMICS)  max=  3.74568199278099E+01
DEBUG_STATS_RL:                Salt (DYNAMICS) mean=  1.88442283132552E+01
DEBUG_STATS_RL:                Salt (DYNAMICS) S.D.=  1.73004297460809E+01
DEBUG_STATS_RL:                  Gu (DYNAMICS)  min= -1.25510405242515E-01
DEBUG_STATS_RL:                  Gu (DYNAMICS)  max=  1.76572224985640E-01
DEBUG_STATS_RL:                  Gu (DYNAMICS) mean=  5.32651948963306E-03
DEBUG_STATS_RL:                  Gu (DYNAMICS) S.D.=  2.19736204829199E-02
DEBUG_STATS_RL:                  Gv (DYNAMICS)  min= -9.07418762397546E-02
DEBUG_STATS_RL:                  Gv (DYNAMICS)  max=  1.43822787883488E-01
DEBUG_STATS_RL:                  Gv (DYNAMICS) mean=  3.96484513674274E-03
DEBUG_STATS_RL:                  Gv (DYNAMICS) S.D.=  1.53943129992037E-02
DEBUG_STATS_RL:               GuNm1 (DYNAMICS)  min= -9.53564923199403E-06
DEBUG_STATS_RL:               GuNm1 (DYNAMICS)  max=  9.12163263689599E-06
DEBUG_STATS_RL:               GuNm1 (DYNAMICS) mean= -5.88675528496726E-09
DEBUG_STATS_RL:               GuNm1 (DYNAMICS) S.D.=  1.18013478642627E-06
DEBUG_STATS_RL:               GvNm1 (DYNAMICS)  min= -9.65558058414475E-06
DEBUG_STATS_RL:               GvNm1 (DYNAMICS)  max=  1.61768625668291E-05
DEBUG_STATS_RL:               GvNm1 (DYNAMICS) mean=  7.46925782067497E-07
DEBUG_STATS_RL:               GvNm1 (DYNAMICS) S.D.=  2.61708047429514E-06
DEBUG_STATS_RL:               GtNm1 (DYNAMICS)  min= -2.58278478497616E-06
DEBUG_STATS_RL:               GtNm1 (DYNAMICS)  max=  2.10736454688982E-06
DEBUG_STATS_RL:               GtNm1 (DYNAMICS) mean= -2.84832012198865E-10
DEBUG_STATS_RL:               GtNm1 (DYNAMICS) S.D.=  1.56930924668468E-07
DEBUG_STATS_RL:               GsNm1 (DYNAMICS)  min= -4.69630745607226E-07
DEBUG_STATS_RL:               GsNm1 (DYNAMICS)  max=  2.70265855934360E-07
DEBUG_STATS_RL:               GsNm1 (DYNAMICS) mean= -1.60434468099091E-10
DEBUG_STATS_RL:               GsNm1 (DYNAMICS) S.D.=  1.60252208547083E-08
DEBUG_STATS_RL:    cg2d_b (SOLVE_FOR_PRESSURE)  min= -1.94997145082733E+04
DEBUG_STATS_RL:    cg2d_b (SOLVE_FOR_PRESSURE)  max=  2.57692229463515E+04
DEBUG_STATS_RL:    cg2d_b (SOLVE_FOR_PRESSURE) mean=  3.96650517007175E+00
DEBUG_STATS_RL:    cg2d_b (SOLVE_FOR_PRESSURE) S.D.=  3.79119439836807E+03
 cg2d: Sum(rhs),rhsMax =   3.56334356213705E-01  1.69259155829645E+00
(PID.TID 0000.0001)  cg2d: iter=     1 ; resid.=  8.53073526264615E-02
(PID.TID 0000.0001)  cg2d: iter=     2 ; resid.=  7.03649567687136E-02
(PID.TID 0000.0001)  cg2d: iter=     3 ; resid.=  8.90800811519540E-02
(PID.TID 0000.0001)  cg2d: iter=     4 ; resid.=  8.04236217613475E-02
(PID.TID 0000.0001)  cg2d: iter=     5 ; resid.=  7.00735572421053E-02
(PID.TID 0000.0001)  cg2d: iter=     6 ; resid.=  5.65254795178296E-02
(PID.TID 0000.0001)  cg2d: iter=     7 ; resid.=  4.38703135110851E-02
(PID.TID 0000.0001)  cg2d: iter=     8 ; resid.=  3.43871602474024E-02
(PID.TID 0000.0001)  cg2d: iter=     9 ; resid.=  2.68723252755505E-02
(PID.TID 0000.0001)  cg2d: iter=    10 ; resid.=  2.15825447542932E-02
(PID.TID 0000.0001)  cg2d: iter=    11 ; resid.=  1.72756585038485E-02
(PID.TID 0000.0001)  cg2d: iter=    12 ; resid.=  1.40027731127827E-02
(PID.TID 0000.0001)  cg2d: iter=    13 ; resid.=  1.08138237293796E-02
(PID.TID 0000.0001)  cg2d: iter=    14 ; resid.=  9.38040413270855E-03
(PID.TID 0000.0001)  cg2d: iter=    15 ; resid.=  8.11372466811426E-03
(PID.TID 0000.0001)  cg2d: iter=    16 ; resid.=  6.70068062747013E-03
(PID.TID 0000.0001)  cg2d: iter=    17 ; resid.=  6.32612752018777E-03
(PID.TID 0000.0001)  cg2d: iter=    18 ; resid.=  5.77239499009084E-03
(PID.TID 0000.0001)  cg2d: iter=    19 ; resid.=  4.30125688643419E-03
(PID.TID 0000.0001)  cg2d: iter=    20 ; resid.=  3.27755487476424E-03
(PID.TID 0000.0001)  cg2d: iter=    21 ; resid.=  2.74871581301467E-03
(PID.TID 0000.0001)  cg2d: iter=    22 ; resid.=  2.47119284981057E-03
(PID.TID 0000.0001)  cg2d: iter=    23 ; resid.=  2.11571363192345E-03
(PID.TID 0000.0001)  cg2d: iter=    24 ; resid.=  1.78607849435898E-03
(PID.TID 0000.0001)  cg2d: iter=    25 ; resid.=  1.42159417464443E-03
(PID.TID 0000.0001)  cg2d: iter=    26 ; resid.=  1.08994929180077E-03
(PID.TID 0000.0001)  cg2d: iter=    27 ; resid.=  9.06510346552089E-04
(PID.TID 0000.0001)  cg2d: iter=    28 ; resid.=  7.65457783756235E-04
(PID.TID 0000.0001)  cg2d: iter=    29 ; resid.=  5.69930986541918E-04
(PID.TID 0000.0001)  cg2d: iter=    30 ; resid.=  4.50838483165294E-04
(PID.TID 0000.0001)  cg2d: iter=    31 ; resid.=  4.05677603387281E-04
(PID.TID 0000.0001)  cg2d: iter=    32 ; resid.=  3.18903554704053E-04
(PID.TID 0000.0001)  cg2d: iter=    33 ; resid.=  2.52738570626472E-04
(PID.TID 0000.0001)  cg2d: iter=    34 ; resid.=  2.13011647317193E-04
(PID.TID 0000.0001)  cg2d: iter=    35 ; resid.=  1.68999373494205E-04
(PID.TID 0000.0001)  cg2d: iter=    36 ; resid.=  1.40624120164756E-04
(PID.TID 0000.0001)  cg2d: iter=    37 ; resid.=  1.20575233488027E-04
(PID.TID 0000.0001)  cg2d: iter=    38 ; resid.=  1.11945658954216E-04
(PID.TID 0000.0001)  cg2d: iter=    39 ; resid.=  9.11426787772903E-05
(PID.TID 0000.0001)  cg2d: iter=    40 ; resid.=  7.41415971992007E-05
(PID.TID 0000.0001)  cg2d: iter=    41 ; resid.=  6.02947730572302E-05
(PID.TID 0000.0001)  cg2d: iter=    42 ; resid.=  5.25506676932610E-05
(PID.TID 0000.0001)  cg2d: iter=    43 ; resid.=  4.50079801912576E-05
(PID.TID 0000.0001)  cg2d: iter=    44 ; resid.=  3.49663511439079E-05
(PID.TID 0000.0001)  cg2d: iter=    45 ; resid.=  2.69097332342358E-05
(PID.TID 0000.0001)  cg2d: iter=    46 ; resid.=  2.22798987196595E-05
(PID.TID 0000.0001)  cg2d: iter=    47 ; resid.=  1.89472817968549E-05
(PID.TID 0000.0001)  cg2d: iter=    48 ; resid.=  1.61006473396086E-05
(PID.TID 0000.0001)  cg2d: iter=    49 ; resid.=  1.32500670491305E-05
(PID.TID 0000.0001)  cg2d: iter=    50 ; resid.=  1.14921124925864E-05
(PID.TID 0000.0001)  cg2d: iter=    51 ; resid.=  9.92758224395519E-06
(PID.TID 0000.0001)  cg2d: iter=    52 ; resid.=  8.31529651399653E-06
(PID.TID 0000.0001)  cg2d: iter=    53 ; resid.=  7.49946896973376E-06
(PID.TID 0000.0001)  cg2d: iter=    54 ; resid.=  6.39412873765172E-06
(PID.TID 0000.0001)  cg2d: iter=    55 ; resid.=  5.22870581712054E-06
(PID.TID 0000.0001)  cg2d: iter=    56 ; resid.=  4.76699595448028E-06
(PID.TID 0000.0001)  cg2d: iter=    57 ; resid.=  4.11491901076722E-06
(PID.TID 0000.0001)  cg2d: iter=    58 ; resid.=  3.13745236496721E-06
(PID.TID 0000.0001)  cg2d: iter=    59 ; resid.=  2.34741414755344E-06
(PID.TID 0000.0001)  cg2d: iter=    60 ; resid.=  1.75576425054786E-06
(PID.TID 0000.0001)  cg2d: iter=    61 ; resid.=  1.49480813919312E-06
(PID.TID 0000.0001)  cg2d: iter=    62 ; resid.=  1.34252196487626E-06
(PID.TID 0000.0001)  cg2d: iter=    63 ; resid.=  1.14887556558247E-06
(PID.TID 0000.0001)  cg2d: iter=    64 ; resid.=  1.02832546736120E-06
(PID.TID 0000.0001)  cg2d: iter=    65 ; resid.=  8.37588461475590E-07
(PID.TID 0000.0001)  cg2d: iter=    66 ; resid.=  6.90648497554194E-07
(PID.TID 0000.0001)  cg2d: iter=    67 ; resid.=  5.35359898536786E-07
(PID.TID 0000.0001)  cg2d: iter=    68 ; resid.=  4.22999076147077E-07
(PID.TID 0000.0001)  cg2d: iter=    69 ; resid.=  3.80457737405112E-07
(PID.TID 0000.0001)  cg2d: iter=    70 ; resid.=  3.43255866155791E-07
(PID.TID 0000.0001)  cg2d: iter=    71 ; resid.=  3.16314332504311E-07
(PID.TID 0000.0001)  cg2d: iter=    72 ; resid.=  2.80230119044257E-07
(PID.TID 0000.0001)  cg2d: iter=    73 ; resid.=  2.49980722910456E-07
(PID.TID 0000.0001)  cg2d: iter=    74 ; resid.=  2.08679984237211E-07
(PID.TID 0000.0001)  cg2d: iter=    75 ; resid.=  1.59130367953429E-07
(PID.TID 0000.0001)  cg2d: iter=    76 ; resid.=  1.23963848540929E-07
(PID.TID 0000.0001)  cg2d: iter=    77 ; resid.=  9.22900600856379E-08
(PID.TID 0000.0001)  cg2d: iter=    78 ; resid.=  6.97551711130981E-08
(PID.TID 0000.0001)  cg2d: iter=    79 ; resid.=  5.56708077660684E-08
(PID.TID 0000.0001)  cg2d: iter=    80 ; resid.=  4.16032828658536E-08
(PID.TID 0000.0001)  cg2d: iter=    81 ; resid.=  3.07027745427940E-08
(PID.TID 0000.0001)  cg2d: iter=    82 ; resid.=  2.21738792903996E-08
(PID.TID 0000.0001)  cg2d: iter=    83 ; resid.=  1.68435439279736E-08
(PID.TID 0000.0001)  cg2d: iter=    84 ; resid.=  1.31028575483030E-08
(PID.TID 0000.0001)  cg2d: iter=    85 ; resid.=  9.07573185977892E-09
(PID.TID 0000.0001)  cg2d: iter=    86 ; resid.=  6.28869219030992E-09
(PID.TID 0000.0001)  cg2d: iter=    87 ; resid.=  4.43333509532277E-09
(PID.TID 0000.0001)  cg2d: iter=    88 ; resid.=  3.36013925909621E-09
(PID.TID 0000.0001)  cg2d: iter=    89 ; resid.=  2.93421199959757E-09
(PID.TID 0000.0001)  cg2d: iter=    90 ; resid.=  2.53022143324256E-09
(PID.TID 0000.0001)  cg2d: iter=    91 ; resid.=  1.97836658431984E-09
(PID.TID 0000.0001)  cg2d: iter=    92 ; resid.=  1.44842675805356E-09
(PID.TID 0000.0001)  cg2d: iter=    93 ; resid.=  1.01699563948593E-09
(PID.TID 0000.0001)  cg2d: iter=    94 ; resid.=  7.73921682568133E-10
(PID.TID 0000.0001)  cg2d: iter=    95 ; resid.=  6.13620995142989E-10
(PID.TID 0000.0001)  cg2d: iter=    96 ; resid.=  5.04317721932989E-10
(PID.TID 0000.0001)  cg2d: iter=    97 ; resid.=  3.93440689685570E-10
(PID.TID 0000.0001)  cg2d: iter=    98 ; resid.=  2.95584449250062E-10
(PID.TID 0000.0001)  cg2d: iter=    99 ; resid.=  2.36098631274482E-10
(PID.TID 0000.0001)  cg2d: iter=   100 ; resid.=  2.18181538895769E-10
(PID.TID 0000.0001)  cg2d: iter=   101 ; resid.=  1.95446667020998E-10
(PID.TID 0000.0001)  cg2d: iter=   102 ; resid.=  1.52062590594910E-10
(PID.TID 0000.0001)  cg2d: iter=   103 ; resid.=  1.18981758568742E-10
(PID.TID 0000.0001)  cg2d: iter=   104 ; resid.=  9.63649510238199E-11
(PID.TID 0000.0001)  cg2d: iter=   105 ; resid.=  8.29077907977249E-11
(PID.TID 0000.0001)  cg2d: iter=   106 ; resid.=  7.14358413230079E-11
(PID.TID 0000.0001)  cg2d: iter=   107 ; resid.=  5.69535299945232E-11
(PID.TID 0000.0001)  cg2d: iter=   108 ; resid.=  4.59333589181258E-11
(PID.TID 0000.0001)  cg2d: iter=   109 ; resid.=  3.73102655888444E-11
(PID.TID 0000.0001)  cg2d: iter=   110 ; resid.=  3.08476448001696E-11
(PID.TID 0000.0001)  cg2d: iter=   111 ; resid.=  2.12007228912434E-11
(PID.TID 0000.0001)  cg2d: iter=   112 ; resid.=  1.53662483850399E-11
(PID.TID 0000.0001)  cg2d: iter=   113 ; resid.=  1.03168047363032E-11
(PID.TID 0000.0001)  cg2d: iter=   114 ; resid.=  7.18704806984723E-12
(PID.TID 0000.0001)  cg2d: iter=   115 ; resid.=  5.48755597254165E-12
(PID.TID 0000.0001)  cg2d: iter=   116 ; resid.=  4.21864951089019E-12
(PID.TID 0000.0001)  cg2d: iter=   117 ; resid.=  3.30528771456080E-12
(PID.TID 0000.0001)  cg2d: iter=   118 ; resid.=  2.54011550355376E-12
(PID.TID 0000.0001)  cg2d: iter=   119 ; resid.=  1.93030426448522E-12
(PID.TID 0000.0001)  cg2d: iter=   120 ; resid.=  1.50239517578451E-12
(PID.TID 0000.0001)  cg2d: iter=   121 ; resid.=  1.14398962528216E-12
(PID.TID 0000.0001)  cg2d: iter=   122 ; resid.=  9.08870623894848E-13
(PID.TID 0000.0001)  cg2d: iter=   123 ; resid.=  7.16642087466475E-13
(PID.TID 0000.0001)  cg2d: iter=   124 ; resid.=  5.42286305111439E-13
(PID.TID 0000.0001)  cg2d: iter=   125 ; resid.=  4.27396448939504E-13
(PID.TID 0000.0001)  cg2d: iter=   126 ; resid.=  3.27616968284975E-13
(PID.TID 0000.0001)  cg2d: iter=   127 ; resid.=  2.19881497939970E-13
(PID.TID 0000.0001)  cg2d: iter=   128 ; resid.=  1.40972255825452E-13
(PID.TID 0000.0001)  cg2d: iter=   129 ; resid.=  9.35209990831899E-14
DEBUG_STATS_RL:    cg2d_x (SOLVE_FOR_PRESSURE)  min= -1.86131422558280E+01
DEBUG_STATS_RL:    cg2d_x (SOLVE_FOR_PRESSURE)  max=  8.49637224282583E+00
DEBUG_STATS_RL:    cg2d_x (SOLVE_FOR_PRESSURE) mean= -1.77810752342017E+00
DEBUG_STATS_RL:    cg2d_x (SOLVE_FOR_PRESSURE) S.D.=  7.03261998026895E+00
(PID.TID 0000.0001)      cg2d_init_res =   2.69829099381383E-01
(PID.TID 0000.0001)      cg2d_iters(min,last) =      -1     129
(PID.TID 0000.0001)      cg2d_last_res =   9.35209990831899E-14
(PID.TID 0000.0001) // =======================================================
(PID.TID 0000.0001) // Begin MONITOR dynamic field statistics
(PID.TID 0000.0001) // =======================================================
(PID.TID 0000.0001) %MON time_tsnumber                =                    55
(PID.TID 0000.0001) %MON time_secondsf                =   4.7520000000000E+06
(PID.TID 0000.0001) %MON dynstat_eta_max              =   8.6609299111371E-01
(PID.TID 0000.0001) %MON dynstat_eta_min              =  -1.8973641443251E+00
(PID.TID 0000.0001) %MON dynstat_eta_mean             =  -4.1385563145653E-03
(PID.TID 0000.0001) %MON dynstat_eta_sd               =   6.2470062386829E-01
(PID.TID 0000.0001) %MON dynstat_eta_del2             =   2.3348899982885E-03
(PID.TID 0000.0001) %MON dynstat_uvel_max             =   1.7073453906211E-01
(PID.TID 0000.0001) %MON dynstat_uvel_min             =  -1.2568074207512E-01
(PID.TID 0000.0001) %MON dynstat_uvel_mean            =   2.2818929757101E-03
(PID.TID 0000.0001) %MON dynstat_uvel_sd              =   1.3325647358847E-02
(PID.TID 0000.0001) %MON dynstat_uvel_del2            =   8.0604959931417E-05
(PID.TID 0000.0001) %MON dynstat_vvel_max             =   1.4176813298278E-01
(PID.TID 0000.0001) %MON dynstat_vvel_min             =  -8.8118623711982E-02
(PID.TID 0000.0001) %MON dynstat_vvel_mean            =  -3.6137883909197E-05
(PID.TID 0000.0001) %MON dynstat_vvel_sd              =   8.2685170955469E-03
(PID.TID 0000.0001) %MON dynstat_vvel_del2            =   7.1631208056980E-05
(PID.TID 0000.0001) %MON dynstat_wvel_max             =   1.2339394410922E-04
(PID.TID 0000.0001) %MON dynstat_wvel_min             =  -6.1651277259605E-05
(PID.TID 0000.0001) %MON dynstat_wvel_mean            =  -2.9519819750774E-23
(PID.TID 0000.0001) %MON dynstat_wvel_sd              =   1.1243632749251E-05
(PID.TID 0000.0001) %MON dynstat_wvel_del2            =   1.1951708204316E-07
(PID.TID 0000.0001) %MON dynstat_theta_max            =   2.9920245384991E+01
(PID.TID 0000.0001) %MON dynstat_theta_min            =  -1.9445275727870E+00
(PID.TID 0000.0001) %MON dynstat_theta_mean           =   3.6209783504736E+00
(PID.TID 0000.0001) %MON dynstat_theta_sd             =   4.4189804764843E+00
(PID.TID 0000.0001) %MON dynstat_theta_del2           =   4.7267192156999E-03
(PID.TID 0000.0001) %MON dynstat_salt_max             =   3.7456819927810E+01
(PID.TID 0000.0001) %MON dynstat_salt_min             =   2.9840279304202E+01
(PID.TID 0000.0001) %MON dynstat_salt_mean            =   3.4717301335616E+01
(PID.TID 0000.0001) %MON dynstat_salt_sd              =   2.9623532505807E-01
(PID.TID 0000.0001) %MON dynstat_salt_del2            =   9.7197717094333E-04
(PID.TID 0000.0001) %MON dynstat_sst_max              =   2.9920245384991E+01
(PID.TID 0000.0001) %MON dynstat_sst_min              =  -1.9445275727870E+00
(PID.TID 0000.0001) %MON dynstat_sst_mean             =   1.8789602348787E+01
(PID.TID 0000.0001) %MON dynstat_sst_sd               =   9.1256656693710E+00
(PID.TID 0000.0001) %MON dynstat_sst_del2             =   2.4919717140826E-02
(PID.TID 0000.0001) %MON dynstat_sss_max              =   3.7394754548227E+01
(PID.TID 0000.0001) %MON dynstat_sss_min              =   2.9840279304202E+01
(PID.TID 0000.0001) %MON dynstat_sss_mean             =   3.4842045094519E+01
(PID.TID 0000.0001) %MON dynstat_sss_sd               =   9.7655415651251E-01
(PID.TID 0000.0001) %MON dynstat_sss_del2             =   7.6686837358800E-03
(PID.TID 0000.0001) %MON forcing_qnet_max             =   3.3326887512207E+02
(PID.TID 0000.0001) %MON forcing_qnet_min             =  -1.7014045562744E+02
(PID.TID 0000.0001) %MON forcing_qnet_mean            =  -1.1955195482304E+01
(PID.TID 0000.0001) %MON forcing_qnet_sd              =   6.7256363910996E+01
(PID.TID 0000.0001) %MON forcing_qnet_del2            =   9.0397400238124E-01
(PID.TID 0000.0001) %MON forcing_qsw_max              =   0.0000000000000E+00
(PID.TID 0000.0001) %MON forcing_qsw_min              =   0.0000000000000E+00
(PID.TID 0000.0001) %MON forcing_qsw_mean             =   0.0000000000000E+00
(PID.TID 0000.0001) %MON forcing_qsw_sd               =   0.0000000000000E+00
(PID.TID 0000.0001) %MON forcing_qsw_del2             =   0.0000000000000E+00
(PID.TID 0000.0001) %MON forcing_empmr_max            =   6.9229704990903E-05
(PID.TID 0000.0001) %MON forcing_empmr_min            =  -7.4881646128233E-05
(PID.TID 0000.0001) %MON forcing_empmr_mean           =   8.2559960204017E-07
(PID.TID 0000.0001) %MON forcing_empmr_sd             =   2.7255145290589E-05
(PID.TID 0000.0001) %MON forcing_empmr_del2           =   3.5320210303148E-07
(PID.TID 0000.0001) %MON forcing_fu_max               =   3.1678166687489E-01
(PID.TID 0000.0001) %MON forcing_fu_min               =  -2.6419401615858E-01
(PID.TID 0000.0001) %MON forcing_fu_mean              =   1.8478537921761E-02
(PID.TID 0000.0001) %MON forcing_fu_sd                =   9.3831537675814E-02
(PID.TID 0000.0001) %MON forcing_fu_del2              =   7.0632006807691E-04
(PID.TID 0000.0001) %MON forcing_fv_max               =   1.5941785573959E-01
(PID.TID 0000.0001) %MON forcing_fv_min               =  -1.8630492985249E-01
(PID.TID 0000.0001) %MON forcing_fv_mean              =  -7.3105800906856E-03
(PID.TID 0000.0001) %MON forcing_fv_sd                =   4.2714976969337E-02
(PID.TID 0000.0001) %MON forcing_fv_del2              =   4.8525323250971E-04
(PID.TID 0000.0001) %MON trAdv_CFL_u_max              =   4.6314478446619E-02
(PID.TID 0000.0001) %MON trAdv_CFL_v_max              =   2.7249391294057E-02
(PID.TID 0000.0001) %MON trAdv_CFL_w_max              =   3.6501076599714E-02
(PID.TID 0000.0001) %MON advcfl_uvel_max              =   4.4635959976793E-02
(PID.TID 0000.0001) %MON advcfl_vvel_max              =   2.7543274551057E-02
(PID.TID 0000.0001) %MON advcfl_wvel_max              =   4.0476100863024E-02
(PID.TID 0000.0001) %MON advcfl_W_hf_max              =   4.9149551047958E-02
(PID.TID 0000.0001) %MON pe_b_mean                    =   4.9939494240845E-04
(PID.TID 0000.0001) %MON ke_max                       =   1.5337756139712E-02
(PID.TID 0000.0001) %MON ke_mean                      =   1.1373382742442E-04
(PID.TID 0000.0001) %MON ke_vol                       =   1.3226782436723E+18
(PID.TID 0000.0001) %MON vort_r_min                   =  -4.4688373360657E-07
(PID.TID 0000.0001) %MON vort_r_max                   =   3.8492438577829E-07
(PID.TID 0000.0001) %MON vort_a_mean                  =  -2.5274806794566E-05
(PID.TID 0000.0001) %MON vort_a_sd                    =   7.3604677455293E-05
(PID.TID 0000.0001) %MON vort_p_mean                  =  -3.1845655039852E-05
(PID.TID 0000.0001) %MON vort_p_sd                    =   1.3162497385315E-04
(PID.TID 0000.0001) %MON surfExpan_theta_mean         =   4.6279699489508E-07
(PID.TID 0000.0001) %MON surfExpan_salt_mean          =  -5.9238655240286E-08
(PID.TID 0000.0001) // =======================================================
(PID.TID 0000.0001) // End MONITOR dynamic field statistics
(PID.TID 0000.0001) // =======================================================
 EXTERNAL_FIELDS_LOAD,        55 : iP,iLd,i0,i1=    2    3    2    3 ; Wght=  0.6666666667  0.3333333333
 EXTERNAL_FIELDS_LOAD: (fu0,1),fu,fv= -1.4435E-02 -2.7199E-02 -1.8689E-02 -1.1950E-02
 EXTERNAL_FIELDS_LOAD: SST,SSS,Q,E-P= -4.1587E-01  3.4474E+01  2.3212E+02  8.6117E-06
DEBUG_STATS_RL:          Uvel (THERMODYNAMICS)  min= -1.25680742075117E-01
DEBUG_STATS_RL:          Uvel (THERMODYNAMICS)  max=  1.70734539062108E-01
DEBUG_STATS_RL:          Uvel (THERMODYNAMICS) mean=  5.40531527720583E-03
DEBUG_STATS_RL:          Uvel (THERMODYNAMICS) S.D.=  2.15923705853283E-02
DEBUG_STATS_RL:          Vvel (THERMODYNAMICS)  min= -8.81186237119825E-02
DEBUG_STATS_RL:          Vvel (THERMODYNAMICS)  max=  1.41768132982780E-01
DEBUG_STATS_RL:          Vvel (THERMODYNAMICS) mean=  1.40375837339269E-03
DEBUG_STATS_RL:          Vvel (THERMODYNAMICS) S.D.=  1.36879013245681E-02
DEBUG_STATS_RL:          Wvel (THERMODYNAMICS)  min= -6.16512772596047E-05
DEBUG_STATS_RL:          Wvel (THERMODYNAMICS)  max=  1.23393944109223E-04
DEBUG_STATS_RL:          Wvel (THERMODYNAMICS) mean=  3.77184407474726E-08
DEBUG_STATS_RL:          Wvel (THERMODYNAMICS) S.D.=  9.97326941479509E-06
DEBUG_STATS_RL:         Theta (THERMODYNAMICS)  min= -1.94317659048047E+00
DEBUG_STATS_RL:         Theta (THERMODYNAMICS)  max=  2.99154034899041E+01
DEBUG_STATS_RL:         Theta (THERMODYNAMICS) mean=  3.21121608854439E+00
DEBUG_STATS_RL:         Theta (THERMODYNAMICS) S.D.=  5.86466130144740E+00
DEBUG_STATS_RL:          Salt (THERMODYNAMICS)  min= -6.86350255588998E-04
DEBUG_STATS_RL:          Salt (THERMODYNAMICS)  max=  3.74574568057522E+01
DEBUG_STATS_RL:          Salt (THERMODYNAMICS) mean=  1.88442184957898E+01
DEBUG_STATS_RL:          Salt (THERMODYNAMICS) S.D.=  1.73004211284518E+01
DEBUG_STATS_RL:         GtNm1 (THERMODYNAMICS)  min= -2.56802540594850E-06
DEBUG_STATS_RL:         GtNm1 (THERMODYNAMICS)  max=  2.32439192091101E-06
DEBUG_STATS_RL:         GtNm1 (THERMODYNAMICS) mean= -5.95370269383659E-10
DEBUG_STATS_RL:         GtNm1 (THERMODYNAMICS) S.D.=  1.56144376159427E-07
DEBUG_STATS_RL:         GsNm1 (THERMODYNAMICS)  min= -5.34176033291746E-07
DEBUG_STATS_RL:         GsNm1 (THERMODYNAMICS)  max=  4.05631953791326E-07
DEBUG_STATS_RL:         GsNm1 (THERMODYNAMICS) mean= -2.30970270353512E-10
DEBUG_STATS_RL:         GsNm1 (THERMODYNAMICS) S.D.=  1.62634945349216E-08
DEBUG_STATS_RL:                EtaN (DYNAMICS)  min= -1.89736414432513E+00
DEBUG_STATS_RL:                EtaN (DYNAMICS)  max=  8.66092991113708E-01
DEBUG_STATS_RL:                EtaN (DYNAMICS) mean= -1.81254589543340E-01
DEBUG_STATS_RL:                EtaN (DYNAMICS) S.D.=  7.16882770669615E-01
DEBUG_STATS_RL:                Uvel (DYNAMICS)  min= -1.25680742075117E-01
DEBUG_STATS_RL:                Uvel (DYNAMICS)  max=  1.70734539062108E-01
DEBUG_STATS_RL:                Uvel (DYNAMICS) mean=  5.40531527720583E-03
DEBUG_STATS_RL:                Uvel (DYNAMICS) S.D.=  2.15923705853283E-02
DEBUG_STATS_RL:                Vvel (DYNAMICS)  min= -8.81186237119825E-02
DEBUG_STATS_RL:                Vvel (DYNAMICS)  max=  1.41768132982780E-01
DEBUG_STATS_RL:                Vvel (DYNAMICS) mean=  1.40375837339269E-03
DEBUG_STATS_RL:                Vvel (DYNAMICS) S.D.=  1.36879013245681E-02
DEBUG_STATS_RL:                Wvel (DYNAMICS)  min= -6.16512772596047E-05
DEBUG_STATS_RL:                Wvel (DYNAMICS)  max=  1.23393944109223E-04
DEBUG_STATS_RL:                Wvel (DYNAMICS) mean=  3.77184407474726E-08
DEBUG_STATS_RL:                Wvel (DYNAMICS) S.D.=  9.97326941479509E-06
DEBUG_STATS_RL:               Theta (DYNAMICS)  min= -1.94317659048047E+00
DEBUG_STATS_RL:               Theta (DYNAMICS)  max=  2.99154034899041E+01
DEBUG_STATS_RL:               Theta (DYNAMICS) mean=  3.21121608854439E+00
DEBUG_STATS_RL:               Theta (DYNAMICS) S.D.=  5.86466130144740E+00
DEBUG_STATS_RL:                Salt (DYNAMICS)  min= -6.86350255588998E-04
DEBUG_STATS_RL:                Salt (DYNAMICS)  max=  3.74574568057522E+01
DEBUG_STATS_RL:                Salt (DYNAMICS) mean=  1.88442184957898E+01
DEBUG_STATS_RL:                Salt (DYNAMICS) S.D.=  1.73004211284518E+01
DEBUG_STATS_RL:                  Gu (DYNAMICS)  min= -1.25269302509692E-01
DEBUG_STATS_RL:                  Gu (DYNAMICS)  max=  1.69003752666904E-01
DEBUG_STATS_RL:                  Gu (DYNAMICS) mean=  5.28552033626159E-03
DEBUG_STATS_RL:                  Gu (DYNAMICS) S.D.=  2.15790767973587E-02
DEBUG_STATS_RL:                  Gv (DYNAMICS)  min= -9.01101646698741E-02
DEBUG_STATS_RL:                  Gv (DYNAMICS)  max=  1.44162012874514E-01
DEBUG_STATS_RL:                  Gv (DYNAMICS) mean=  3.86143994152926E-03
DEBUG_STATS_RL:                  Gv (DYNAMICS) S.D.=  1.53422060262862E-02
DEBUG_STATS_RL:               GuNm1 (DYNAMICS)  min= -9.58705967936773E-06
DEBUG_STATS_RL:               GuNm1 (DYNAMICS)  max=  9.16275875206197E-06
DEBUG_STATS_RL:               GuNm1 (DYNAMICS) mean= -5.05194206322579E-09
DEBUG_STATS_RL:               GuNm1 (DYNAMICS) S.D.=  1.18134785098841E-06
DEBUG_STATS_RL:               GvNm1 (DYNAMICS)  min= -9.69449807687989E-06
DEBUG_STATS_RL:               GvNm1 (DYNAMICS)  max=  1.61245277877826E-05
DEBUG_STATS_RL:               GvNm1 (DYNAMICS) mean=  7.46167599893953E-07
DEBUG_STATS_RL:               GvNm1 (DYNAMICS) S.D.=  2.62094990999740E-06
DEBUG_STATS_RL:               GtNm1 (DYNAMICS)  min= -2.56802540594850E-06
DEBUG_STATS_RL:               GtNm1 (DYNAMICS)  max=  2.32439192091101E-06
DEBUG_STATS_RL:               GtNm1 (DYNAMICS) mean= -5.95370269383659E-10
DEBUG_STATS_RL:               GtNm1 (DYNAMICS) S.D.=  1.56144376159427E-07
DEBUG_STATS_RL:               GsNm1 (DYNAMICS)  min= -5.34176033291746E-07
DEBUG_STATS_RL:               GsNm1 (DYNAMICS)  max=  4.05631953791326E-07
DEBUG_STATS_RL:               GsNm1 (DYNAMICS) mean= -2.30970270353512E-10
DEBUG_STATS_RL:               GsNm1 (DYNAMICS) S.D.=  1.62634945349216E-08
DEBUG_STATS_RL:    cg2d_b (SOLVE_FOR_PRESSURE)  min= -1.95025697092795E+04
DEBUG_STATS_RL:    cg2d_b (SOLVE_FOR_PRESSURE)  max=  2.57054667275188E+04
DEBUG_STATS_RL:    cg2d_b (SOLVE_FOR_PRESSURE) mean=  4.03151231420996E+00
DEBUG_STATS_RL:    cg2d_b (SOLVE_FOR_PRESSURE) S.D.=  3.81083495164672E+03
 cg2d: Sum(rhs),rhsMax =   3.63072614332541E-01  1.68840387914099E+00
(PID.TID 0000.0001)  cg2d: iter=     1 ; resid.=  8.43023617745724E-02
(PID.TID 0000.0001)  cg2d: iter=     2 ; resid.=  7.22469156258679E-02
(PID.TID 0000.0001)  cg2d: iter=     3 ; resid.=  8.75755223250868E-02
(PID.TID 0000.0001)  cg2d: iter=     4 ; resid.=  7.88762276279574E-02
(PID.TID 0000.0001)  cg2d: iter=     5 ; resid.=  6.94057478586272E-02
(PID.TID 0000.0001)  cg2d: iter=     6 ; resid.=  5.40579138219394E-02
(PID.TID 0000.0001)  cg2d: iter=     7 ; resid.=  4.30098927820874E-02
(PID.TID 0000.0001)  cg2d: iter=     8 ; resid.=  3.57355241296061E-02
(PID.TID 0000.0001)  cg2d: iter=     9 ; resid.=  2.81666192148985E-02
(PID.TID 0000.0001)  cg2d: iter=    10 ; resid.=  2.25519125469561E-02
(PID.TID 0000.0001)  cg2d: iter=    11 ; resid.=  1.80409797750172E-02
(PID.TID 0000.0001)  cg2d: iter=    12 ; resid.=  1.43069214148228E-02
(PID.TID 0000.0001)  cg2d: iter=    13 ; resid.=  1.06330442389589E-02
(PID.TID 0000.0001)  cg2d: iter=    14 ; resid.=  9.37987423023926E-03
(PID.TID 0000.0001)  cg2d: iter=    15 ; resid.=  8.18786426142499E-03
(PID.TID 0000.0001)  cg2d: iter=    16 ; resid.=  6.75413340502809E-03
(PID.TID 0000.0001)  cg2d: iter=    17 ; resid.=  6.43390459069854E-03
(PID.TID 0000.0001)  cg2d: iter=    18 ; resid.=  5.90095069240782E-03
(PID.TID 0000.0001)  cg2d: iter=    19 ; resid.=  4.22852084046644E-03
(PID.TID 0000.0001)  cg2d: iter=    20 ; resid.=  3.20328904945298E-03
(PID.TID 0000.0001)  cg2d: iter=    21 ; resid.=  2.71206794717669E-03
(PID.TID 0000.0001)  cg2d: iter=    22 ; resid.=  2.39355494548565E-03
(PID.TID 0000.0001)  cg2d: iter=    23 ; resid.=  2.07005573021289E-03
(PID.TID 0000.0001)  cg2d: iter=    24 ; resid.=  1.80943193088356E-03
(PID.TID 0000.0001)  cg2d: iter=    25 ; resid.=  1.43779639631406E-03
(PID.TID 0000.0001)  cg2d: iter=    26 ; resid.=  1.11226254785940E-03
(PID.TID 0000.0001)  cg2d: iter=    27 ; resid.=  9.44973180971940E-04
(PID.TID 0000.0001)  cg2d: iter=    28 ; resid.=  7.85999026492113E-04
(PID.TID 0000.0001)  cg2d: iter=    29 ; resid.=  5.79327791986961E-04
(PID.TID 0000.0001)  cg2d: iter=    30 ; resid.=  4.68556170241835E-04
(PID.TID 0000.0001)  cg2d: iter=    31 ; resid.=  4.21791846011557E-04
(PID.TID 0000.0001)  cg2d: iter=    32 ; resid.=  3.24888494762274E-04
(PID.TID 0000.0001)  cg2d: iter=    33 ; resid.=  2.61051732653985E-04
(PID.TID 0000.0001)  cg2d: iter=    34 ; resid.=  2.23054270303121E-04
(PID.TID 0000.0001)  cg2d: iter=    35 ; resid.=  1.77804113024970E-04
(PID.TID 0000.0001)  cg2d: iter=    36 ; resid.=  1.51370005832370E-04
(PID.TID 0000.0001)  cg2d: iter=    37 ; resid.=  1.32233428578991E-04
(PID.TID 0000.0001)  cg2d: iter=    38 ; resid.=  1.23840886071816E-04
(PID.TID 0000.0001)  cg2d: iter=    39 ; resid.=  1.02476099825594E-04
(PID.TID 0000.0001)  cg2d: iter=    40 ; resid.=  8.60747605780763E-05
(PID.TID 0000.0001)  cg2d: iter=    41 ; resid.=  7.08261499085774E-05
(PID.TID 0000.0001)  cg2d: iter=    42 ; resid.=  6.07773418812682E-05
(PID.TID 0000.0001)  cg2d: iter=    43 ; resid.=  5.15929545557673E-05
(PID.TID 0000.0001)  cg2d: iter=    44 ; resid.=  4.02430683717499E-05
(PID.TID 0000.0001)  cg2d: iter=    45 ; resid.=  3.18575779041517E-05
(PID.TID 0000.0001)  cg2d: iter=    46 ; resid.=  2.71962966632350E-05
(PID.TID 0000.0001)  cg2d: iter=    47 ; resid.=  2.33747665544890E-05
(PID.TID 0000.0001)  cg2d: iter=    48 ; resid.=  1.98197212656292E-05
(PID.TID 0000.0001)  cg2d: iter=    49 ; resid.=  1.64085919483388E-05
(PID.TID 0000.0001)  cg2d: iter=    50 ; resid.=  1.40764533120798E-05
(PID.TID 0000.0001)  cg2d: iter=    51 ; resid.=  1.22050475160718E-05
(PID.TID 0000.0001)  cg2d: iter=    52 ; resid.=  1.01830984446037E-05
(PID.TID 0000.0001)  cg2d: iter=    53 ; resid.=  9.20018357579694E-06
(PID.TID 0000.0001)  cg2d: iter=    54 ; resid.=  7.81990152108671E-06
(PID.TID 0000.0001)  cg2d: iter=    55 ; resid.=  6.41673951634318E-06
(PID.TID 0000.0001)  cg2d: iter=    56 ; resid.=  5.75021860795807E-06
(PID.TID 0000.0001)  cg2d: iter=    57 ; resid.=  4.70812481163523E-06
(PID.TID 0000.0001)  cg2d: iter=    58 ; resid.=  3.45694932377172E-06
(PID.TID 0000.0001)  cg2d: iter=    59 ; resid.=  2.58866967659714E-06
(PID.TID 0000.0001)  cg2d: iter=    60 ; resid.=  1.92255178282360E-06
(PID.TID 0000.0001)  cg2d: iter=    61 ; resid.=  1.61795584214789E-06
(PID.TID 0000.0001)  cg2d: iter=    62 ; resid.=  1.47029337848365E-06
(PID.TID 0000.0001)  cg2d: iter=    63 ; resid.=  1.29169594878153E-06
(PID.TID 0000.0001)  cg2d: iter=    64 ; resid.=  1.16590732321125E-06
(PID.TID 0000.0001)  cg2d: iter=    65 ; resid.=  9.47724448023999E-07
(PID.TID 0000.0001)  cg2d: iter=    66 ; resid.=  7.71318577120418E-07
(PID.TID 0000.0001)  cg2d: iter=    67 ; resid.=  5.81939885958348E-07
(PID.TID 0000.0001)  cg2d: iter=    68 ; resid.=  4.58183838830056E-07
(PID.TID 0000.0001)  cg2d: iter=    69 ; resid.=  4.17869490999399E-07
(PID.TID 0000.0001)  cg2d: iter=    70 ; resid.=  3.78051597412930E-07
(PID.TID 0000.0001)  cg2d: iter=    71 ; resid.=  3.50139866899293E-07
(PID.TID 0000.0001)  cg2d: iter=    72 ; resid.=  3.04450259946960E-07
(PID.TID 0000.0001)  cg2d: iter=    73 ; resid.=  2.64677327182635E-07
(PID.TID 0000.0001)  cg2d: iter=    74 ; resid.=  2.15019810127311E-07
(PID.TID 0000.0001)  cg2d: iter=    75 ; resid.=  1.57123378864235E-07
(PID.TID 0000.0001)  cg2d: iter=    76 ; resid.=  1.21745122547884E-07
(PID.TID 0000.0001)  cg2d: iter=    77 ; resid.=  8.93858392480247E-08
(PID.TID 0000.0001)  cg2d: iter=    78 ; resid.=  6.77256195876289E-08
(PID.TID 0000.0001)  cg2d: iter=    79 ; resid.=  5.45435411824998E-08
(PID.TID 0000.0001)  cg2d: iter=    80 ; resid.=  4.10066469305816E-08
(PID.TID 0000.0001)  cg2d: iter=    81 ; resid.=  3.03278003616078E-08
(PID.TID 0000.0001)  cg2d: iter=    82 ; resid.=  2.20543401632468E-08
(PID.TID 0000.0001)  cg2d: iter=    83 ; resid.=  1.73602611965261E-08
(PID.TID 0000.0001)  cg2d: iter=    84 ; resid.=  1.38462586476696E-08
(PID.TID 0000.0001)  cg2d: iter=    85 ; resid.=  9.54295879766758E-09
(PID.TID 0000.0001)  cg2d: iter=    86 ; resid.=  6.81920742622426E-09
(PID.TID 0000.0001)  cg2d: iter=    87 ; resid.=  4.94739196444882E-09
(PID.TID 0000.0001)  cg2d: iter=    88 ; resid.=  3.98939720058185E-09
(PID.TID 0000.0001)  cg2d: iter=    89 ; resid.=  3.58368225325213E-09
(PID.TID 0000.0001)  cg2d: iter=    90 ; resid.=  3.04723636539916E-09
(PID.TID 0000.0001)  cg2d: iter=    91 ; resid.=  2.35858684584582E-09
(PID.TID 0000.0001)  cg2d: iter=    92 ; resid.=  1.75339279523927E-09
(PID.TID 0000.0001)  cg2d: iter=    93 ; resid.=  1.26451222405871E-09
(PID.TID 0000.0001)  cg2d: iter=    94 ; resid.=  1.01905774801540E-09
(PID.TID 0000.0001)  cg2d: iter=    95 ; resid.=  8.51770433539789E-10
(PID.TID 0000.0001)  cg2d: iter=    96 ; resid.=  7.43366358878812E-10
(PID.TID 0000.0001)  cg2d: iter=    97 ; resid.=  6.06059740537663E-10
(PID.TID 0000.0001)  cg2d: iter=    98 ; resid.=  4.85192880205243E-10
(PID.TID 0000.0001)  cg2d: iter=    99 ; resid.=  4.02784771570195E-10
(PID.TID 0000.0001)  cg2d: iter=   100 ; resid.=  3.70816343158937E-10
(PID.TID 0000.0001)  cg2d: iter=   101 ; resid.=  3.15061114575837E-10
(PID.TID 0000.0001)  cg2d: iter=   102 ; resid.=  2.34486985225812E-10
(PID.TID 0000.0001)  cg2d: iter=   103 ; resid.=  1.80404748580491E-10
(PID.TID 0000.0001)  cg2d: iter=   104 ; resid.=  1.42751331196887E-10
(PID.TID 0000.0001)  cg2d: iter=   105 ; resid.=  1.16092112879422E-10
(PID.TID 0000.0001)  cg2d: iter=   106 ; resid.=  9.36095930903222E-11
(PID.TID 0000.0001)  cg2d: iter=   107 ; resid.=  7.12088564118881E-11
(PID.TID 0000.0001)  cg2d: iter=   108 ; resid.=  5.51558289023889E-11
(PID.TID 0000.0001)  cg2d: iter=   109 ; resid.=  4.24241401388511E-11
(PID.TID 0000.0001)  cg2d: iter=   110 ; resid.=  3.31491079777148E-11
(PID.TID 0000.0001)  cg2d: iter=   111 ; resid.=  2.24946142280730E-11
(PID.TID 0000.0001)  cg2d: iter=   112 ; resid.=  1.65829153693202E-11
(PID.TID 0000.0001)  cg2d: iter=   113 ; resid.=  1.15343565337958E-11
(PID.TID 0000.0001)  cg2d: iter=   114 ; resid.=  8.60697281569533E-12
(PID.TID 0000.0001)  cg2d: iter=   115 ; resid.=  6.99003603375682E-12
(PID.TID 0000.0001)  cg2d: iter=   116 ; resid.=  5.57615487030157E-12
(PID.TID 0000.0001)  cg2d: iter=   117 ; resid.=  4.59158429019329E-12
(PID.TID 0000.0001)  cg2d: iter=   118 ; resid.=  3.57823098783565E-12
(PID.TID 0000.0001)  cg2d: iter=   119 ; resid.=  2.67218126342990E-12
(PID.TID 0000.0001)  cg2d: iter=   120 ; resid.=  2.05101108432933E-12
(PID.TID 0000.0001)  cg2d: iter=   121 ; resid.=  1.60783149627100E-12
(PID.TID 0000.0001)  cg2d: iter=   122 ; resid.=  1.31486919954626E-12
(PID.TID 0000.0001)  cg2d: iter=   123 ; resid.=  1.02337878041792E-12
(PID.TID 0000.0001)  cg2d: iter=   124 ; resid.=  7.50316852497514E-13
(PID.TID 0000.0001)  cg2d: iter=   125 ; resid.=  5.66851736914465E-13
(PID.TID 0000.0001)  cg2d: iter=   126 ; resid.=  4.13877505057724E-13
(PID.TID 0000.0001)  cg2d: iter=   127 ; resid.=  2.78419499210700E-13
(PID.TID 0000.0001)  cg2d: iter=   128 ; resid.=  1.86156608441563E-13
(PID.TID 0000.0001)  cg2d: iter=   129 ; resid.=  1.31925458537524E-13
(PID.TID 0000.0001)  cg2d: iter=   130 ; resid.=  1.05665093068339E-13
(PID.TID 0000.0001)  cg2d: iter=   131 ; resid.=  9.05798558118383E-14
DEBUG_STATS_RL:    cg2d_x (SOLVE_FOR_PRESSURE)  min= -1.85928979365153E+01
DEBUG_STATS_RL:    cg2d_x (SOLVE_FOR_PRESSURE)  max=  8.71171139437012E+00
DEBUG_STATS_RL:    cg2d_x (SOLVE_FOR_PRESSURE) mean= -1.80041808485583E+00
DEBUG_STATS_RL:    cg2d_x (SOLVE_FOR_PRESSURE) S.D.=  7.10995145537060E+00
(PID.TID 0000.0001)      cg2d_init_res =   2.67764451495668E-01
(PID.TID 0000.0001)      cg2d_iters(min,last) =      -1     131
(PID.TID 0000.0001)      cg2d_last_res =   9.05798558118383E-14
(PID.TID 0000.0001) // =======================================================
(PID.TID 0000.0001) // Begin MONITOR dynamic field statistics
(PID.TID 0000.0001) // =======================================================
(PID.TID 0000.0001) %MON time_tsnumber                =                    56
(PID.TID 0000.0001) %MON time_secondsf                =   4.8384000000000E+06
(PID.TID 0000.0001) %MON dynstat_eta_max              =   8.8804397496127E-01
(PID.TID 0000.0001) %MON dynstat_eta_min              =  -1.8953005032125E+00
(PID.TID 0000.0001) %MON dynstat_eta_mean             =  -4.2063832088542E-03
(PID.TID 0000.0001) %MON dynstat_eta_sd               =   6.3295724846621E-01
(PID.TID 0000.0001) %MON dynstat_eta_del2             =   2.3477636582985E-03
(PID.TID 0000.0001) %MON dynstat_uvel_max             =   1.6312325328003E-01
(PID.TID 0000.0001) %MON dynstat_uvel_min             =  -1.2532497143328E-01
(PID.TID 0000.0001) %MON dynstat_uvel_mean            =   2.2852504834406E-03
(PID.TID 0000.0001) %MON dynstat_uvel_sd              =   1.3122828136049E-02
(PID.TID 0000.0001) %MON dynstat_uvel_del2            =   7.9719358583215E-05
(PID.TID 0000.0001) %MON dynstat_vvel_max             =   1.4185796528415E-01
(PID.TID 0000.0001) %MON dynstat_vvel_min             =  -8.8537730490147E-02
(PID.TID 0000.0001) %MON dynstat_vvel_mean            =  -4.7480479159987E-05
(PID.TID 0000.0001) %MON dynstat_vvel_sd              =   8.2517896347624E-03
(PID.TID 0000.0001) %MON dynstat_vvel_del2            =   7.1389232368462E-05
(PID.TID 0000.0001) %MON dynstat_wvel_max             =   1.1755237735309E-04
(PID.TID 0000.0001) %MON dynstat_wvel_min             =  -6.4487778488145E-05
(PID.TID 0000.0001) %MON dynstat_wvel_mean            =   1.8240587922924E-23
(PID.TID 0000.0001) %MON dynstat_wvel_sd              =   1.1173579482326E-05
(PID.TID 0000.0001) %MON dynstat_wvel_del2            =   1.1912683456862E-07
(PID.TID 0000.0001) %MON dynstat_theta_max            =   2.9915403489904E+01
(PID.TID 0000.0001) %MON dynstat_theta_min            =  -1.9431765904805E+00
(PID.TID 0000.0001) %MON dynstat_theta_mean           =   3.6210080895451E+00
(PID.TID 0000.0001) %MON dynstat_theta_sd             =   4.4191135829898E+00
(PID.TID 0000.0001) %MON dynstat_theta_del2           =   4.7348521451922E-03
(PID.TID 0000.0001) %MON dynstat_salt_max             =   3.7457456805752E+01
(PID.TID 0000.0001) %MON dynstat_salt_min             =   2.9841072599134E+01
(PID.TID 0000.0001) %MON dynstat_salt_mean            =   3.4717304038702E+01
(PID.TID 0000.0001) %MON dynstat_salt_sd              =   2.9624137522839E-01
(PID.TID 0000.0001) %MON dynstat_salt_del2            =   9.7140110029203E-04
(PID.TID 0000.0001) %MON dynstat_sst_max              =   2.9915403489904E+01
(PID.TID 0000.0001) %MON dynstat_sst_min              =  -1.9431765904805E+00
(PID.TID 0000.0001) %MON dynstat_sst_mean             =   1.8791444963313E+01
(PID.TID 0000.0001) %MON dynstat_sst_sd               =   9.1319986091123E+00
(PID.TID 0000.0001) %MON dynstat_sst_del2             =   2.4896102676866E-02
(PID.TID 0000.0001) %MON dynstat_sss_max              =   3.7394567331812E+01
(PID.TID 0000.0001) %MON dynstat_sss_min              =   2.9841072599134E+01
(PID.TID 0000.0001) %MON dynstat_sss_mean             =   3.4841721434958E+01
(PID.TID 0000.0001) %MON dynstat_sss_sd               =   9.7677312888403E-01
(PID.TID 0000.0001) %MON dynstat_sss_del2             =   7.6645472572331E-03
(PID.TID 0000.0001) %MON forcing_qnet_max             =   3.3047072347005E+02
(PID.TID 0000.0001) %MON forcing_qnet_min             =  -1.6984117635091E+02
(PID.TID 0000.0001) %MON forcing_qnet_mean            =  -1.1731855982677E+01
(PID.TID 0000.0001) %MON forcing_qnet_sd              =   6.5966939273954E+01
(PID.TID 0000.0001) %MON forcing_qnet_del2            =   8.9973155248247E-01
(PID.TID 0000.0001) %MON forcing_qsw_max              =   0.0000000000000E+00
(PID.TID 0000.0001) %MON forcing_qsw_min              =   0.0000000000000E+00
(PID.TID 0000.0001) %MON forcing_qsw_mean             =   0.0000000000000E+00
(PID.TID 0000.0001) %MON forcing_qsw_sd               =   0.0000000000000E+00
(PID.TID 0000.0001) %MON forcing_qsw_del2             =   0.0000000000000E+00
(PID.TID 0000.0001) %MON forcing_empmr_max            =   6.9223948647353E-05
(PID.TID 0000.0001) %MON forcing_empmr_min            =  -7.5280825721317E-05
(PID.TID 0000.0001) %MON forcing_empmr_mean           =   8.1250967116582E-07
(PID.TID 0000.0001) %MON forcing_empmr_sd             =   2.7185457124815E-05
(PID.TID 0000.0001) %MON forcing_empmr_del2           =   3.5320365580887E-07
(PID.TID 0000.0001) %MON forcing_fu_max               =   3.1872308254242E-01
(PID.TID 0000.0001) %MON forcing_fu_min               =  -2.6957864562670E-01
(PID.TID 0000.0001) %MON forcing_fu_mean              =   1.8572737511220E-02
(PID.TID 0000.0001) %MON forcing_fu_sd                =   9.4029223939401E-02
(PID.TID 0000.0001) %MON forcing_fu_del2              =   7.0568353900108E-04
(PID.TID 0000.0001) %MON forcing_fv_max               =   1.5834051370621E-01
(PID.TID 0000.0001) %MON forcing_fv_min               =  -1.8481889367104E-01
(PID.TID 0000.0001) %MON forcing_fv_mean              =  -7.3210084406550E-03
(PID.TID 0000.0001) %MON forcing_fv_sd                =   4.2536292965649E-02
(PID.TID 0000.0001) %MON forcing_fv_del2              =   4.8118856330786E-04
(PID.TID 0000.0001) %MON trAdv_CFL_u_max              =   4.4645025859506E-02
(PID.TID 0000.0001) %MON trAdv_CFL_v_max              =   2.7362558656369E-02
(PID.TID 0000.0001) %MON trAdv_CFL_w_max              =   3.4404685733570E-02
(PID.TID 0000.0001) %MON advcfl_uvel_max              =   4.2646104559096E-02
(PID.TID 0000.0001) %MON advcfl_vvel_max              =   2.7560727526477E-02
(PID.TID 0000.0001) %MON advcfl_wvel_max              =   3.7537223533786E-02
(PID.TID 0000.0001) %MON advcfl_W_hf_max              =   4.5580914291025E-02
(PID.TID 0000.0001) %MON pe_b_mean                    =   5.1268325772104E-04
(PID.TID 0000.0001) %MON ke_max                       =   1.4934936300289E-02
(PID.TID 0000.0001) %MON ke_mean                      =   1.1118009325974E-04
(PID.TID 0000.0001) %MON ke_vol                       =   1.3226782436723E+18
(PID.TID 0000.0001) %MON vort_r_min                   =  -4.3610437837485E-07
(PID.TID 0000.0001) %MON vort_r_max                   =   3.6979122066319E-07
(PID.TID 0000.0001) %MON vort_a_mean                  =  -2.5274806746762E-05
(PID.TID 0000.0001) %MON vort_a_sd                    =   7.3604675383336E-05
(PID.TID 0000.0001) %MON vort_p_mean                  =  -3.1845654979619E-05
(PID.TID 0000.0001) %MON vort_p_sd                    =   1.3162504706750E-04
(PID.TID 0000.0001) %MON surfExpan_theta_mean         =   4.7675185582605E-07
(PID.TID 0000.0001) %MON surfExpan_salt_mean          =  -5.3841841519481E-08
(PID.TID 0000.0001) // =======================================================
(PID.TID 0000.0001) // End MONITOR dynamic field statistics
(PID.TID 0000.0001) // =======================================================
 EXTERNAL_FIELDS_LOAD,        56 : iP,iLd,i0,i1=    2    3    2    3 ; Wght=  0.6333333333  0.3666666667
 EXTERNAL_FIELDS_LOAD: (fu0,1),fu,fv= -1.4435E-02 -2.7199E-02 -1.9115E-02 -1.1381E-02
 EXTERNAL_FIELDS_LOAD: SST,SSS,Q,E-P= -4.0427E-01  3.4479E+01  2.3128E+02  8.6352E-06
DEBUG_STATS_RL:          Uvel (THERMODYNAMICS)  min= -1.25324971433280E-01
DEBUG_STATS_RL:          Uvel (THERMODYNAMICS)  max=  1.63123253280031E-01
DEBUG_STATS_RL:          Uvel (THERMODYNAMICS) mean=  5.36208049540084E-03
DEBUG_STATS_RL:          Uvel (THERMODYNAMICS) S.D.=  2.11978239893628E-02
DEBUG_STATS_RL:          Vvel (THERMODYNAMICS)  min= -8.85377304901468E-02
DEBUG_STATS_RL:          Vvel (THERMODYNAMICS)  max=  1.41857965284153E-01
DEBUG_STATS_RL:          Vvel (THERMODYNAMICS) mean=  1.30270990236194E-03
DEBUG_STATS_RL:          Vvel (THERMODYNAMICS) S.D.=  1.36501832011085E-02
DEBUG_STATS_RL:          Wvel (THERMODYNAMICS)  min= -6.44877784881451E-05
DEBUG_STATS_RL:          Wvel (THERMODYNAMICS)  max=  1.17552377353091E-04
DEBUG_STATS_RL:          Wvel (THERMODYNAMICS) mean=  1.88616652571865E-08
DEBUG_STATS_RL:          Wvel (THERMODYNAMICS) S.D.=  9.91428018798774E-06
DEBUG_STATS_RL:         Theta (THERMODYNAMICS)  min= -1.94184262549726E+00
DEBUG_STATS_RL:         Theta (THERMODYNAMICS)  max=  2.99098814096876E+01
DEBUG_STATS_RL:         Theta (THERMODYNAMICS) mean=  3.21113843591477E+00
DEBUG_STATS_RL:         Theta (THERMODYNAMICS) S.D.=  5.86492783688822E+00
DEBUG_STATS_RL:          Salt (THERMODYNAMICS)  min= -6.86350255588998E-04
DEBUG_STATS_RL:          Salt (THERMODYNAMICS)  max=  3.74580221113076E+01
DEBUG_STATS_RL:          Salt (THERMODYNAMICS) mean=  1.88442064393622E+01
DEBUG_STATS_RL:          Salt (THERMODYNAMICS) S.D.=  1.73004104824500E+01
DEBUG_STATS_RL:         GtNm1 (THERMODYNAMICS)  min= -2.53190102711122E-06
DEBUG_STATS_RL:         GtNm1 (THERMODYNAMICS)  max=  1.82397310231273E-06
DEBUG_STATS_RL:         GtNm1 (THERMODYNAMICS) mean= -7.76898599458455E-10
DEBUG_STATS_RL:         GtNm1 (THERMODYNAMICS) S.D.=  1.53147595884277E-07
DEBUG_STATS_RL:         GsNm1 (THERMODYNAMICS)  min= -4.56469999746740E-07
DEBUG_STATS_RL:         GsNm1 (THERMODYNAMICS)  max=  2.51610917651128E-07
DEBUG_STATS_RL:         GsNm1 (THERMODYNAMICS) mean= -2.96383417157314E-10
DEBUG_STATS_RL:         GsNm1 (THERMODYNAMICS) S.D.=  1.56017212598184E-08
DEBUG_STATS_RL:                EtaN (DYNAMICS)  min= -1.89530050321251E+00
DEBUG_STATS_RL:                EtaN (DYNAMICS)  max=  8.88043974961275E-01
DEBUG_STATS_RL:                EtaN (DYNAMICS) mean= -1.83528856764102E-01
DEBUG_STATS_RL:                EtaN (DYNAMICS) S.D.=  7.24765693717698E-01
DEBUG_STATS_RL:                Uvel (DYNAMICS)  min= -1.25324971433280E-01
DEBUG_STATS_RL:                Uvel (DYNAMICS)  max=  1.63123253280031E-01
DEBUG_STATS_RL:                Uvel (DYNAMICS) mean=  5.36208049540084E-03
DEBUG_STATS_RL:                Uvel (DYNAMICS) S.D.=  2.11978239893628E-02
DEBUG_STATS_RL:                Vvel (DYNAMICS)  min= -8.85377304901468E-02
DEBUG_STATS_RL:                Vvel (DYNAMICS)  max=  1.41857965284153E-01
DEBUG_STATS_RL:                Vvel (DYNAMICS) mean=  1.30270990236194E-03
DEBUG_STATS_RL:                Vvel (DYNAMICS) S.D.=  1.36501832011085E-02
DEBUG_STATS_RL:                Wvel (DYNAMICS)  min= -6.44877784881451E-05
DEBUG_STATS_RL:                Wvel (DYNAMICS)  max=  1.17552377353091E-04
DEBUG_STATS_RL:                Wvel (DYNAMICS) mean=  1.88616652571865E-08
DEBUG_STATS_RL:                Wvel (DYNAMICS) S.D.=  9.91428018798774E-06
DEBUG_STATS_RL:               Theta (DYNAMICS)  min= -1.94184262549726E+00
DEBUG_STATS_RL:               Theta (DYNAMICS)  max=  2.99098814096876E+01
DEBUG_STATS_RL:               Theta (DYNAMICS) mean=  3.21113843591477E+00
DEBUG_STATS_RL:               Theta (DYNAMICS) S.D.=  5.86492783688822E+00
DEBUG_STATS_RL:                Salt (DYNAMICS)  min= -6.86350255588998E-04
DEBUG_STATS_RL:                Salt (DYNAMICS)  max=  3.74580221113076E+01
DEBUG_STATS_RL:                Salt (DYNAMICS) mean=  1.88442064393622E+01
DEBUG_STATS_RL:                Salt (DYNAMICS) S.D.=  1.73004104824500E+01
DEBUG_STATS_RL:                  Gu (DYNAMICS)  min= -1.24829012031924E-01
DEBUG_STATS_RL:                  Gu (DYNAMICS)  max=  1.60499693215686E-01
DEBUG_STATS_RL:                  Gu (DYNAMICS) mean=  5.25257202953405E-03
DEBUG_STATS_RL:                  Gu (DYNAMICS) S.D.=  2.12237834935260E-02
DEBUG_STATS_RL:                  Gv (DYNAMICS)  min= -9.20733954909554E-02
DEBUG_STATS_RL:                  Gv (DYNAMICS)  max=  1.44011649113206E-01
DEBUG_STATS_RL:                  Gv (DYNAMICS) mean=  3.74930926146502E-03
DEBUG_STATS_RL:                  Gv (DYNAMICS) S.D.=  1.52800963339246E-02
DEBUG_STATS_RL:               GuNm1 (DYNAMICS)  min= -9.63041575205539E-06
DEBUG_STATS_RL:               GuNm1 (DYNAMICS)  max=  9.19803199001951E-06
DEBUG_STATS_RL:               GuNm1 (DYNAMICS) mean= -4.27913262301467E-09
DEBUG_STATS_RL:               GuNm1 (DYNAMICS) S.D.=  1.18246987616196E-06
DEBUG_STATS_RL:               GvNm1 (DYNAMICS)  min= -9.73698055848759E-06
DEBUG_STATS_RL:               GvNm1 (DYNAMICS)  max=  1.60702852218797E-05
DEBUG_STATS_RL:               GvNm1 (DYNAMICS) mean=  7.45320184090065E-07
DEBUG_STATS_RL:               GvNm1 (DYNAMICS) S.D.=  2.62429144181453E-06
DEBUG_STATS_RL:               GtNm1 (DYNAMICS)  min= -2.53190102711122E-06
DEBUG_STATS_RL:               GtNm1 (DYNAMICS)  max=  1.82397310231273E-06
DEBUG_STATS_RL:               GtNm1 (DYNAMICS) mean= -7.76898599458455E-10
DEBUG_STATS_RL:               GtNm1 (DYNAMICS) S.D.=  1.53147595884277E-07
DEBUG_STATS_RL:               GsNm1 (DYNAMICS)  min= -4.56469999746740E-07
DEBUG_STATS_RL:               GsNm1 (DYNAMICS)  max=  2.51610917651128E-07
DEBUG_STATS_RL:               GsNm1 (DYNAMICS) mean= -2.96383417157314E-10
DEBUG_STATS_RL:               GsNm1 (DYNAMICS) S.D.=  1.56017212598184E-08
DEBUG_STATS_RL:    cg2d_b (SOLVE_FOR_PRESSURE)  min= -1.94740226319192E+04
DEBUG_STATS_RL:    cg2d_b (SOLVE_FOR_PRESSURE)  max=  2.56058680635075E+04
DEBUG_STATS_RL:    cg2d_b (SOLVE_FOR_PRESSURE) mean=  4.09547216124678E+00
DEBUG_STATS_RL:    cg2d_b (SOLVE_FOR_PRESSURE) S.D.=  3.82899221957515E+03
 cg2d: Sum(rhs),rhsMax =   3.70267394558642E-01  1.68186197222069E+00
(PID.TID 0000.0001)  cg2d: iter=     1 ; resid.=  8.23836639658136E-02
(PID.TID 0000.0001)  cg2d: iter=     2 ; resid.=  7.14325684824399E-02
(PID.TID 0000.0001)  cg2d: iter=     3 ; resid.=  8.24929767948741E-02
(PID.TID 0000.0001)  cg2d: iter=     4 ; resid.=  7.53799112285842E-02
(PID.TID 0000.0001)  cg2d: iter=     5 ; resid.=  6.72347853104254E-02
(PID.TID 0000.0001)  cg2d: iter=     6 ; resid.=  5.09748221760279E-02
(PID.TID 0000.0001)  cg2d: iter=     7 ; resid.=  4.16737010387004E-02
(PID.TID 0000.0001)  cg2d: iter=     8 ; resid.=  3.60475266791839E-02
(PID.TID 0000.0001)  cg2d: iter=     9 ; resid.=  2.84594998904464E-02
(PID.TID 0000.0001)  cg2d: iter=    10 ; resid.=  2.27690739287340E-02
(PID.TID 0000.0001)  cg2d: iter=    11 ; resid.=  1.82358474037970E-02
(PID.TID 0000.0001)  cg2d: iter=    12 ; resid.=  1.42596986067129E-02
(PID.TID 0000.0001)  cg2d: iter=    13 ; resid.=  1.03453225184403E-02
(PID.TID 0000.0001)  cg2d: iter=    14 ; resid.=  9.26694855379531E-03
(PID.TID 0000.0001)  cg2d: iter=    15 ; resid.=  8.14935118675483E-03
(PID.TID 0000.0001)  cg2d: iter=    16 ; resid.=  6.72324384855098E-03
(PID.TID 0000.0001)  cg2d: iter=    17 ; resid.=  6.42668426948334E-03
(PID.TID 0000.0001)  cg2d: iter=    18 ; resid.=  5.90722232992546E-03
(PID.TID 0000.0001)  cg2d: iter=    19 ; resid.=  4.11796129625407E-03
(PID.TID 0000.0001)  cg2d: iter=    20 ; resid.=  3.09010750687693E-03
(PID.TID 0000.0001)  cg2d: iter=    21 ; resid.=  2.61883768884944E-03
(PID.TID 0000.0001)  cg2d: iter=    22 ; resid.=  2.27480318306147E-03
(PID.TID 0000.0001)  cg2d: iter=    23 ; resid.=  1.99361877504112E-03
(PID.TID 0000.0001)  cg2d: iter=    24 ; resid.=  1.79361371103302E-03
(PID.TID 0000.0001)  cg2d: iter=    25 ; resid.=  1.42535503991183E-03
(PID.TID 0000.0001)  cg2d: iter=    26 ; resid.=  1.11344246481768E-03
(PID.TID 0000.0001)  cg2d: iter=    27 ; resid.=  9.56554910404619E-04
(PID.TID 0000.0001)  cg2d: iter=    28 ; resid.=  7.83603677678647E-04
(PID.TID 0000.0001)  cg2d: iter=    29 ; resid.=  5.77448054869992E-04
(PID.TID 0000.0001)  cg2d: iter=    30 ; resid.=  4.76281753890470E-04
(PID.TID 0000.0001)  cg2d: iter=    31 ; resid.=  4.26630507474885E-04
(PID.TID 0000.0001)  cg2d: iter=    32 ; resid.=  3.24517862748986E-04
(PID.TID 0000.0001)  cg2d: iter=    33 ; resid.=  2.65138287572140E-04
(PID.TID 0000.0001)  cg2d: iter=    34 ; resid.=  2.27287646198006E-04
(PID.TID 0000.0001)  cg2d: iter=    35 ; resid.=  1.80319433714335E-04
(PID.TID 0000.0001)  cg2d: iter=    36 ; resid.=  1.55871594803343E-04
(PID.TID 0000.0001)  cg2d: iter=    37 ; resid.=  1.37355445450692E-04
(PID.TID 0000.0001)  cg2d: iter=    38 ; resid.=  1.29986999144069E-04
(PID.TID 0000.0001)  cg2d: iter=    39 ; resid.=  1.09708531028324E-04
(PID.TID 0000.0001)  cg2d: iter=    40 ; resid.=  9.37192457879237E-05
(PID.TID 0000.0001)  cg2d: iter=    41 ; resid.=  7.65722430497065E-05
(PID.TID 0000.0001)  cg2d: iter=    42 ; resid.=  6.44717520147858E-05
(PID.TID 0000.0001)  cg2d: iter=    43 ; resid.=  5.43763595547533E-05
(PID.TID 0000.0001)  cg2d: iter=    44 ; resid.=  4.23000978222007E-05
(PID.TID 0000.0001)  cg2d: iter=    45 ; resid.=  3.39786841489440E-05
(PID.TID 0000.0001)  cg2d: iter=    46 ; resid.=  2.93035208802342E-05
(PID.TID 0000.0001)  cg2d: iter=    47 ; resid.=  2.50495094548773E-05
(PID.TID 0000.0001)  cg2d: iter=    48 ; resid.=  2.10657201763483E-05
(PID.TID 0000.0001)  cg2d: iter=    49 ; resid.=  1.74539065179286E-05
(PID.TID 0000.0001)  cg2d: iter=    50 ; resid.=  1.47227518436090E-05
(PID.TID 0000.0001)  cg2d: iter=    51 ; resid.=  1.27947127551693E-05
(PID.TID 0000.0001)  cg2d: iter=    52 ; resid.=  1.06060616612568E-05
(PID.TID 0000.0001)  cg2d: iter=    53 ; resid.=  9.50217589773668E-06
(PID.TID 0000.0001)  cg2d: iter=    54 ; resid.=  8.01339516301791E-06
(PID.TID 0000.0001)  cg2d: iter=    55 ; resid.=  6.61198335540596E-06
(PID.TID 0000.0001)  cg2d: iter=    56 ; resid.=  5.91117028142920E-06
(PID.TID 0000.0001)  cg2d: iter=    57 ; resid.=  4.73414429168892E-06
(PID.TID 0000.0001)  cg2d: iter=    58 ; resid.=  3.44157710617403E-06
(PID.TID 0000.0001)  cg2d: iter=    59 ; resid.=  2.59218450876316E-06
(PID.TID 0000.0001)  cg2d: iter=    60 ; resid.=  1.90765727863353E-06
(PID.TID 0000.0001)  cg2d: iter=    61 ; resid.=  1.57562195162686E-06
(PID.TID 0000.0001)  cg2d: iter=    62 ; resid.=  1.42893216818007E-06
(PID.TID 0000.0001)  cg2d: iter=    63 ; resid.=  1.26785810643398E-06
(PID.TID 0000.0001)  cg2d: iter=    64 ; resid.=  1.15970052005697E-06
(PID.TID 0000.0001)  cg2d: iter=    65 ; resid.=  9.53382556193885E-07
(PID.TID 0000.0001)  cg2d: iter=    66 ; resid.=  7.70129903920252E-07
(PID.TID 0000.0001)  cg2d: iter=    67 ; resid.=  5.68676760572889E-07
(PID.TID 0000.0001)  cg2d: iter=    68 ; resid.=  4.44946469315292E-07
(PID.TID 0000.0001)  cg2d: iter=    69 ; resid.=  4.06370627313929E-07
(PID.TID 0000.0001)  cg2d: iter=    70 ; resid.=  3.66654812817101E-07
(PID.TID 0000.0001)  cg2d: iter=    71 ; resid.=  3.44594768439543E-07
(PID.TID 0000.0001)  cg2d: iter=    72 ; resid.=  2.99385503563775E-07
(PID.TID 0000.0001)  cg2d: iter=    73 ; resid.=  2.58900427462340E-07
(PID.TID 0000.0001)  cg2d: iter=    74 ; resid.=  2.09331238152271E-07
(PID.TID 0000.0001)  cg2d: iter=    75 ; resid.=  1.49311868113030E-07
(PID.TID 0000.0001)  cg2d: iter=    76 ; resid.=  1.15427167990957E-07
(PID.TID 0000.0001)  cg2d: iter=    77 ; resid.=  8.40124751892604E-08
(PID.TID 0000.0001)  cg2d: iter=    78 ; resid.=  6.41845305548334E-08
(PID.TID 0000.0001)  cg2d: iter=    79 ; resid.=  5.23660230654226E-08
(PID.TID 0000.0001)  cg2d: iter=    80 ; resid.=  4.00150010146169E-08
(PID.TID 0000.0001)  cg2d: iter=    81 ; resid.=  2.93638382733726E-08
(PID.TID 0000.0001)  cg2d: iter=    82 ; resid.=  2.12062377678703E-08
(PID.TID 0000.0001)  cg2d: iter=    83 ; resid.=  1.71148550666200E-08
(PID.TID 0000.0001)  cg2d: iter=    84 ; resid.=  1.39576199923605E-08
(PID.TID 0000.0001)  cg2d: iter=    85 ; resid.=  9.59785619966452E-09
(PID.TID 0000.0001)  cg2d: iter=    86 ; resid.=  7.00792269473168E-09
(PID.TID 0000.0001)  cg2d: iter=    87 ; resid.=  5.14412414824909E-09
(PID.TID 0000.0001)  cg2d: iter=    88 ; resid.=  4.29955464014888E-09
(PID.TID 0000.0001)  cg2d: iter=    89 ; resid.=  3.88346324824952E-09
(PID.TID 0000.0001)  cg2d: iter=    90 ; resid.=  3.26994965118175E-09
(PID.TID 0000.0001)  cg2d: iter=    91 ; resid.=  2.53147946606411E-09
(PID.TID 0000.0001)  cg2d: iter=    92 ; resid.=  1.91080759047531E-09
(PID.TID 0000.0001)  cg2d: iter=    93 ; resid.=  1.39820488680408E-09
(PID.TID 0000.0001)  cg2d: iter=    94 ; resid.=  1.15623503887824E-09
(PID.TID 0000.0001)  cg2d: iter=    95 ; resid.=  9.76411825487730E-10
(PID.TID 0000.0001)  cg2d: iter=    96 ; resid.=  8.71013804876312E-10
(PID.TID 0000.0001)  cg2d: iter=    97 ; resid.=  7.14466095674715E-10
(PID.TID 0000.0001)  cg2d: iter=    98 ; resid.=  5.78155558466915E-10
(PID.TID 0000.0001)  cg2d: iter=    99 ; resid.=  4.66896747792644E-10
(PID.TID 0000.0001)  cg2d: iter=   100 ; resid.=  4.17193442591398E-10
(PID.TID 0000.0001)  cg2d: iter=   101 ; resid.=  3.49466305730942E-10
(PID.TID 0000.0001)  cg2d: iter=   102 ; resid.=  2.57156445791288E-10
(PID.TID 0000.0001)  cg2d: iter=   103 ; resid.=  1.97073658695397E-10
(PID.TID 0000.0001)  cg2d: iter=   104 ; resid.=  1.53194121023489E-10
(PID.TID 0000.0001)  cg2d: iter=   105 ; resid.=  1.20205136643592E-10
(PID.TID 0000.0001)  cg2d: iter=   106 ; resid.=  9.50718655944614E-11
(PID.TID 0000.0001)  cg2d: iter=   107 ; resid.=  7.26751923266417E-11
(PID.TID 0000.0001)  cg2d: iter=   108 ; resid.=  5.63090272582950E-11
(PID.TID 0000.0001)  cg2d: iter=   109 ; resid.=  4.26919890956128E-11
(PID.TID 0000.0001)  cg2d: iter=   110 ; resid.=  3.28623373610677E-11
(PID.TID 0000.0001)  cg2d: iter=   111 ; resid.=  2.26697778941398E-11
(PID.TID 0000.0001)  cg2d: iter=   112 ; resid.=  1.71194037252649E-11
(PID.TID 0000.0001)  cg2d: iter=   113 ; resid.=  1.23186685983516E-11
(PID.TID 0000.0001)  cg2d: iter=   114 ; resid.=  9.53661203077351E-12
(PID.TID 0000.0001)  cg2d: iter=   115 ; resid.=  7.84030511996193E-12
(PID.TID 0000.0001)  cg2d: iter=   116 ; resid.=  6.23037842604268E-12
(PID.TID 0000.0001)  cg2d: iter=   117 ; resid.=  5.12918085323709E-12
(PID.TID 0000.0001)  cg2d: iter=   118 ; resid.=  3.92262038594955E-12
(PID.TID 0000.0001)  cg2d: iter=   119 ; resid.=  2.86497649648243E-12
(PID.TID 0000.0001)  cg2d: iter=   120 ; resid.=  2.17008125399235E-12
(PID.TID 0000.0001)  cg2d: iter=   121 ; resid.=  1.73695290268927E-12
(PID.TID 0000.0001)  cg2d: iter=   122 ; resid.=  1.43719782944912E-12
(PID.TID 0000.0001)  cg2d: iter=   123 ; resid.=  1.09847406945866E-12
(PID.TID 0000.0001)  cg2d: iter=   124 ; resid.=  7.81452535103368E-13
(PID.TID 0000.0001)  cg2d: iter=   125 ; resid.=  5.72790635342331E-13
(PID.TID 0000.0001)  cg2d: iter=   126 ; resid.=  4.09704417143247E-13
(PID.TID 0000.0001)  cg2d: iter=   127 ; resid.=  2.83197111348644E-13
(PID.TID 0000.0001)  cg2d: iter=   128 ; resid.=  1.93204055188510E-13
(PID.TID 0000.0001)  cg2d: iter=   129 ; resid.=  1.38118101250281E-13
(PID.TID 0000.0001)  cg2d: iter=   130 ; resid.=  1.12991024730644E-13
(PID.TID 0000.0001)  cg2d: iter=   131 ; resid.=  9.80375907568189E-14
DEBUG_STATS_RL:    cg2d_x (SOLVE_FOR_PRESSURE)  min= -1.85467053261201E+01
DEBUG_STATS_RL:    cg2d_x (SOLVE_FOR_PRESSURE)  max=  8.92225381062996E+00
DEBUG_STATS_RL:    cg2d_x (SOLVE_FOR_PRESSURE) mean= -1.82322580439220E+00
DEBUG_STATS_RL:    cg2d_x (SOLVE_FOR_PRESSURE) S.D.=  7.18713352159181E+00
(PID.TID 0000.0001)      cg2d_init_res =   2.65690314988259E-01
(PID.TID 0000.0001)      cg2d_iters(min,last) =      -1     131
(PID.TID 0000.0001)      cg2d_last_res =   9.80375907568189E-14
(PID.TID 0000.0001) // =======================================================
(PID.TID 0000.0001) // Begin MONITOR dynamic field statistics
(PID.TID 0000.0001) // =======================================================
(PID.TID 0000.0001) %MON time_tsnumber                =                    57
(PID.TID 0000.0001) %MON time_secondsf                =   4.9248000000000E+06
(PID.TID 0000.0001) %MON dynstat_eta_max              =   9.0950599496730E-01
(PID.TID 0000.0001) %MON dynstat_eta_min              =  -1.8905917763628E+00
(PID.TID 0000.0001) %MON dynstat_eta_mean             =  -4.2731173784786E-03
(PID.TID 0000.0001) %MON dynstat_eta_sd               =   6.4101479936536E-01
(PID.TID 0000.0001) %MON dynstat_eta_del2             =   2.3595257829179E-03
(PID.TID 0000.0001) %MON dynstat_uvel_max             =   1.5747243773218E-01
(PID.TID 0000.0001) %MON dynstat_uvel_min             =  -1.2477597772439E-01
(PID.TID 0000.0001) %MON dynstat_uvel_mean            =   2.2844987869857E-03
(PID.TID 0000.0001) %MON dynstat_uvel_sd              =   1.2936498270723E-02
(PID.TID 0000.0001) %MON dynstat_uvel_del2            =   7.8927809189782E-05
(PID.TID 0000.0001) %MON dynstat_vvel_max             =   1.4144406478148E-01
(PID.TID 0000.0001) %MON dynstat_vvel_min             =  -9.0132714327632E-02
(PID.TID 0000.0001) %MON dynstat_vvel_mean            =  -5.2705624701694E-05
(PID.TID 0000.0001) %MON dynstat_vvel_sd              =   8.2411116255450E-03
(PID.TID 0000.0001) %MON dynstat_vvel_del2            =   7.1233007371272E-05
(PID.TID 0000.0001) %MON dynstat_wvel_max             =   1.1208579663843E-04
(PID.TID 0000.0001) %MON dynstat_wvel_min             =  -6.7032751832971E-05
(PID.TID 0000.0001) %MON dynstat_wvel_mean            =   1.7709024735104E-22
(PID.TID 0000.0001) %MON dynstat_wvel_sd              =   1.1122277163012E-05
(PID.TID 0000.0001) %MON dynstat_wvel_del2            =   1.1867419751100E-07
(PID.TID 0000.0001) %MON dynstat_theta_max            =   2.9909881409688E+01
(PID.TID 0000.0001) %MON dynstat_theta_min            =  -1.9418426254973E+00
(PID.TID 0000.0001) %MON dynstat_theta_mean           =   3.6210368845864E+00
(PID.TID 0000.0001) %MON dynstat_theta_sd             =   4.4192466521096E+00
(PID.TID 0000.0001) %MON dynstat_theta_del2           =   4.7419263345070E-03
(PID.TID 0000.0001) %MON dynstat_salt_max             =   3.7458022111308E+01
(PID.TID 0000.0001) %MON dynstat_salt_min             =   2.9841521837130E+01
(PID.TID 0000.0001) %MON dynstat_salt_mean            =   3.4717306597481E+01
(PID.TID 0000.0001) %MON dynstat_salt_sd              =   2.9624728684074E-01
(PID.TID 0000.0001) %MON dynstat_salt_del2            =   9.7077403261553E-04
(PID.TID 0000.0001) %MON dynstat_sst_max              =   2.9909881409688E+01
(PID.TID 0000.0001) %MON dynstat_sst_min              =  -1.9418426254973E+00
(PID.TID 0000.0001) %MON dynstat_sst_mean             =   1.8793132754730E+01
(PID.TID 0000.0001) %MON dynstat_sst_sd               =   9.1382972793889E+00
(PID.TID 0000.0001) %MON dynstat_sst_del2             =   2.4869391217418E-02
(PID.TID 0000.0001) %MON dynstat_sss_max              =   3.7394418762229E+01
(PID.TID 0000.0001) %MON dynstat_sss_min              =   2.9841521837130E+01
(PID.TID 0000.0001) %MON dynstat_sss_mean             =   3.4841383270926E+01
(PID.TID 0000.0001) %MON dynstat_sss_sd               =   9.7700163740989E-01
(PID.TID 0000.0001) %MON dynstat_sss_del2             =   7.6599852564441E-03
(PID.TID 0000.0001) %MON forcing_qnet_max             =   3.2767257181803E+02
(PID.TID 0000.0001) %MON forcing_qnet_min             =  -1.6954189707438E+02
(PID.TID 0000.0001) %MON forcing_qnet_mean            =  -1.1508516483050E+01
(PID.TID 0000.0001) %MON forcing_qnet_sd              =   6.4697646918086E+01
(PID.TID 0000.0001) %MON forcing_qnet_del2            =   8.9565534558300E-01
(PID.TID 0000.0001) %MON forcing_qsw_max              =   0.0000000000000E+00
(PID.TID 0000.0001) %MON forcing_qsw_min              =   0.0000000000000E+00
(PID.TID 0000.0001) %MON forcing_qsw_mean             =   0.0000000000000E+00
(PID.TID 0000.0001) %MON forcing_qsw_sd               =   0.0000000000000E+00
(PID.TID 0000.0001) %MON forcing_qsw_del2             =   0.0000000000000E+00
(PID.TID 0000.0001) %MON forcing_empmr_max            =   6.9218192303803E-05
(PID.TID 0000.0001) %MON forcing_empmr_min            =  -7.5680005314401E-05
(PID.TID 0000.0001) %MON forcing_empmr_mean           =   7.9941974029146E-07
(PID.TID 0000.0001) %MON forcing_empmr_sd             =   2.7118041416458E-05
(PID.TID 0000.0001) %MON forcing_empmr_del2           =   3.5326953117768E-07
(PID.TID 0000.0001) %MON forcing_fu_max               =   3.2066449820995E-01
(PID.TID 0000.0001) %MON forcing_fu_min               =  -2.7496327509483E-01
(PID.TID 0000.0001) %MON forcing_fu_mean              =   1.8666937100678E-02
(PID.TID 0000.0001) %MON forcing_fu_sd                =   9.4247901717010E-02
(PID.TID 0000.0001) %MON forcing_fu_del2              =   7.0585629130029E-04
(PID.TID 0000.0001) %MON forcing_fv_max               =   1.5726317167282E-01
(PID.TID 0000.0001) %MON forcing_fv_min               =  -1.8333285748959E-01
(PID.TID 0000.0001) %MON forcing_fv_mean              =  -7.3314367906246E-03
(PID.TID 0000.0001) %MON forcing_fv_sd                =   4.2374687785746E-02
(PID.TID 0000.0001) %MON forcing_fv_del2              =   4.7761157425794E-04
(PID.TID 0000.0001) %MON trAdv_CFL_u_max              =   4.2654766287942E-02
(PID.TID 0000.0001) %MON trAdv_CFL_v_max              =   2.7379897119984E-02
(PID.TID 0000.0001) %MON trAdv_CFL_w_max              =   3.1906640003718E-02
(PID.TID 0000.0001) %MON advcfl_uvel_max              =   4.1168784398713E-02
(PID.TID 0000.0001) %MON advcfl_vvel_max              =   2.7480313296973E-02
(PID.TID 0000.0001) %MON advcfl_wvel_max              =   3.4220368900648E-02
(PID.TID 0000.0001) %MON advcfl_W_hf_max              =   4.1553305093644E-02
(PID.TID 0000.0001) %MON pe_b_mean                    =   5.2581940766958E-04
(PID.TID 0000.0001) %MON ke_max                       =   1.4396605949094E-02
(PID.TID 0000.0001) %MON ke_mean                      =   1.0889371703256E-04
(PID.TID 0000.0001) %MON ke_vol                       =   1.3226782436723E+18
(PID.TID 0000.0001) %MON vort_r_min                   =  -4.2456155594006E-07
(PID.TID 0000.0001) %MON vort_r_max                   =   3.6750094737199E-07
(PID.TID 0000.0001) %MON vort_a_mean                  =  -2.5274806726100E-05
(PID.TID 0000.0001) %MON vort_a_sd                    =   7.3604672405464E-05
(PID.TID 0000.0001) %MON vort_p_mean                  =  -3.1845654953586E-05
(PID.TID 0000.0001) %MON vort_p_sd                    =   1.3162510823826E-04
(PID.TID 0000.0001) %MON surfExpan_theta_mean         =   4.7135814697236E-07
(PID.TID 0000.0001) %MON surfExpan_salt_mean          =  -4.6338569175535E-08
(PID.TID 0000.0001) // =======================================================
(PID.TID 0000.0001) // End MONITOR dynamic field statistics
(PID.TID 0000.0001) // =======================================================
 EXTERNAL_FIELDS_LOAD,        57 : iP,iLd,i0,i1=    2    3    2    3 ; Wght=  0.6000000000  0.4000000000
 EXTERNAL_FIELDS_LOAD: (fu0,1),fu,fv= -1.4435E-02 -2.7199E-02 -1.9540E-02 -1.0813E-02
 EXTERNAL_FIELDS_LOAD: SST,SSS,Q,E-P= -3.9268E-01  3.4484E+01  2.3045E+02  8.6586E-06
DEBUG_STATS_RL:          Uvel (THERMODYNAMICS)  min= -1.24775977724392E-01
DEBUG_STATS_RL:          Uvel (THERMODYNAMICS)  max=  1.57472437732179E-01
DEBUG_STATS_RL:          Uvel (THERMODYNAMICS) mean=  5.32716453743494E-03
DEBUG_STATS_RL:          Uvel (THERMODYNAMICS) S.D.=  2.08433065653784E-02
DEBUG_STATS_RL:          Vvel (THERMODYNAMICS)  min= -9.01327143276315E-02
DEBUG_STATS_RL:          Vvel (THERMODYNAMICS)  max=  1.41444064781478E-01
DEBUG_STATS_RL:          Vvel (THERMODYNAMICS) mean=  1.19488648014480E-03
DEBUG_STATS_RL:          Vvel (THERMODYNAMICS) S.D.=  1.36206702102647E-02
DEBUG_STATS_RL:          Wvel (THERMODYNAMICS)  min= -6.70327518329711E-05
DEBUG_STATS_RL:          Wvel (THERMODYNAMICS)  max=  1.12085796638435E-04
DEBUG_STATS_RL:          Wvel (THERMODYNAMICS) mean= -2.64937812716743E-09
DEBUG_STATS_RL:          Wvel (THERMODYNAMICS) S.D.=  9.87578893157584E-06
DEBUG_STATS_RL:         Theta (THERMODYNAMICS)  min= -1.94051202828990E+00
DEBUG_STATS_RL:         Theta (THERMODYNAMICS)  max=  2.99140071027837E+01
DEBUG_STATS_RL:         Theta (THERMODYNAMICS) mean=  3.21106085462056E+00
DEBUG_STATS_RL:         Theta (THERMODYNAMICS) S.D.=  5.86518179250615E+00
DEBUG_STATS_RL:          Salt (THERMODYNAMICS)  min= -6.86350255588998E-04
DEBUG_STATS_RL:          Salt (THERMODYNAMICS)  max=  3.74584931617622E+01
DEBUG_STATS_RL:          Salt (THERMODYNAMICS) mean=  1.88441918955302E+01
DEBUG_STATS_RL:          Salt (THERMODYNAMICS) S.D.=  1.73003975771168E+01
DEBUG_STATS_RL:         GtNm1 (THERMODYNAMICS)  min= -2.46954040649356E-06
DEBUG_STATS_RL:         GtNm1 (THERMODYNAMICS)  max=  2.24022839609911E-06
DEBUG_STATS_RL:         GtNm1 (THERMODYNAMICS) mean= -7.81693456846014E-10
DEBUG_STATS_RL:         GtNm1 (THERMODYNAMICS) S.D.=  1.52928942744159E-07
DEBUG_STATS_RL:         GsNm1 (THERMODYNAMICS)  min= -4.47002344561241E-07
DEBUG_STATS_RL:         GsNm1 (THERMODYNAMICS)  max=  3.36063248075830E-07
DEBUG_STATS_RL:         GsNm1 (THERMODYNAMICS) mean= -3.46208998892648E-10
DEBUG_STATS_RL:         GsNm1 (THERMODYNAMICS) S.D.=  1.57738952529085E-08
DEBUG_STATS_RL:                EtaN (DYNAMICS)  min= -1.89059177636282E+00
DEBUG_STATS_RL:                EtaN (DYNAMICS)  max=  9.09505994967303E-01
DEBUG_STATS_RL:                EtaN (DYNAMICS) mean= -1.85853802690338E-01
DEBUG_STATS_RL:                EtaN (DYNAMICS) S.D.=  7.32633386502734E-01
DEBUG_STATS_RL:                Uvel (DYNAMICS)  min= -1.24775977724392E-01
DEBUG_STATS_RL:                Uvel (DYNAMICS)  max=  1.57472437732179E-01
DEBUG_STATS_RL:                Uvel (DYNAMICS) mean=  5.32716453743494E-03
DEBUG_STATS_RL:                Uvel (DYNAMICS) S.D.=  2.08433065653784E-02
DEBUG_STATS_RL:                Vvel (DYNAMICS)  min= -9.01327143276315E-02
DEBUG_STATS_RL:                Vvel (DYNAMICS)  max=  1.41444064781478E-01
DEBUG_STATS_RL:                Vvel (DYNAMICS) mean=  1.19488648014480E-03
DEBUG_STATS_RL:                Vvel (DYNAMICS) S.D.=  1.36206702102647E-02
DEBUG_STATS_RL:                Wvel (DYNAMICS)  min= -6.70327518329711E-05
DEBUG_STATS_RL:                Wvel (DYNAMICS)  max=  1.12085796638435E-04
DEBUG_STATS_RL:                Wvel (DYNAMICS) mean= -2.64937812716743E-09
DEBUG_STATS_RL:                Wvel (DYNAMICS) S.D.=  9.87578893157584E-06
DEBUG_STATS_RL:               Theta (DYNAMICS)  min= -1.94051202828990E+00
DEBUG_STATS_RL:               Theta (DYNAMICS)  max=  2.99140071027837E+01
DEBUG_STATS_RL:               Theta (DYNAMICS) mean=  3.21106085462056E+00
DEBUG_STATS_RL:               Theta (DYNAMICS) S.D.=  5.86518179250615E+00
DEBUG_STATS_RL:                Salt (DYNAMICS)  min= -6.86350255588998E-04
DEBUG_STATS_RL:                Salt (DYNAMICS)  max=  3.74584931617622E+01
DEBUG_STATS_RL:                Salt (DYNAMICS) mean=  1.88441918955302E+01
DEBUG_STATS_RL:                Salt (DYNAMICS) S.D.=  1.73003975771168E+01
DEBUG_STATS_RL:                  Gu (DYNAMICS)  min= -1.24196068471136E-01
DEBUG_STATS_RL:                  Gu (DYNAMICS)  max=  1.51399473540035E-01
DEBUG_STATS_RL:                  Gu (DYNAMICS) mean=  5.23041453867324E-03
DEBUG_STATS_RL:                  Gu (DYNAMICS) S.D.=  2.09213559831258E-02
DEBUG_STATS_RL:                  Gv (DYNAMICS)  min= -9.33977786925337E-02
DEBUG_STATS_RL:                  Gv (DYNAMICS)  max=  1.43366071799865E-01
DEBUG_STATS_RL:                  Gv (DYNAMICS) mean=  3.63473431305393E-03
DEBUG_STATS_RL:                  Gv (DYNAMICS) S.D.=  1.52109524814610E-02
DEBUG_STATS_RL:               GuNm1 (DYNAMICS)  min= -9.66644645006719E-06
DEBUG_STATS_RL:               GuNm1 (DYNAMICS)  max=  9.22699167627207E-06
DEBUG_STATS_RL:               GuNm1 (DYNAMICS) mean= -3.57654272364866E-09
DEBUG_STATS_RL:               GuNm1 (DYNAMICS) S.D.=  1.18353074361308E-06
DEBUG_STATS_RL:               GvNm1 (DYNAMICS)  min= -9.78152557237009E-06
DEBUG_STATS_RL:               GvNm1 (DYNAMICS)  max=  1.60156466594917E-05
DEBUG_STATS_RL:               GvNm1 (DYNAMICS) mean=  7.44401491314135E-07
DEBUG_STATS_RL:               GvNm1 (DYNAMICS) S.D.=  2.62705791300863E-06
DEBUG_STATS_RL:               GtNm1 (DYNAMICS)  min= -2.46954040649356E-06
DEBUG_STATS_RL:               GtNm1 (DYNAMICS)  max=  2.24022839609911E-06
DEBUG_STATS_RL:               GtNm1 (DYNAMICS) mean= -7.81693456846014E-10
DEBUG_STATS_RL:               GtNm1 (DYNAMICS) S.D.=  1.52928942744159E-07
DEBUG_STATS_RL:               GsNm1 (DYNAMICS)  min= -4.47002344561241E-07
DEBUG_STATS_RL:               GsNm1 (DYNAMICS)  max=  3.36063248075830E-07
DEBUG_STATS_RL:               GsNm1 (DYNAMICS) mean= -3.46208998892648E-10
DEBUG_STATS_RL:               GsNm1 (DYNAMICS) S.D.=  1.57738952529085E-08
DEBUG_STATS_RL:    cg2d_b (SOLVE_FOR_PRESSURE)  min= -1.94130907454471E+04
DEBUG_STATS_RL:    cg2d_b (SOLVE_FOR_PRESSURE)  max=  2.54790712994424E+04
DEBUG_STATS_RL:    cg2d_b (SOLVE_FOR_PRESSURE) mean=  4.15838471118322E+00
DEBUG_STATS_RL:    cg2d_b (SOLVE_FOR_PRESSURE) S.D.=  3.84544456229223E+03
 cg2d: Sum(rhs),rhsMax =   3.77826196773554E-01  1.67353362126799E+00
(PID.TID 0000.0001)  cg2d: iter=     1 ; resid.=  7.94466435760458E-02
(PID.TID 0000.0001)  cg2d: iter=     2 ; resid.=  6.73139960999046E-02
(PID.TID 0000.0001)  cg2d: iter=     3 ; resid.=  7.42542561377442E-02
(PID.TID 0000.0001)  cg2d: iter=     4 ; resid.=  6.94656943029078E-02
(PID.TID 0000.0001)  cg2d: iter=     5 ; resid.=  6.30813632361065E-02
(PID.TID 0000.0001)  cg2d: iter=     6 ; resid.=  4.70863788262220E-02
(PID.TID 0000.0001)  cg2d: iter=     7 ; resid.=  3.91607540974985E-02
(PID.TID 0000.0001)  cg2d: iter=     8 ; resid.=  3.47866172965084E-02
(PID.TID 0000.0001)  cg2d: iter=     9 ; resid.=  2.76995153108622E-02
(PID.TID 0000.0001)  cg2d: iter=    10 ; resid.=  2.21552061663988E-02
(PID.TID 0000.0001)  cg2d: iter=    11 ; resid.=  1.77471808524868E-02
(PID.TID 0000.0001)  cg2d: iter=    12 ; resid.=  1.37581927187728E-02
(PID.TID 0000.0001)  cg2d: iter=    13 ; resid.=  9.80387000483128E-03
(PID.TID 0000.0001)  cg2d: iter=    14 ; resid.=  8.81586379997355E-03
(PID.TID 0000.0001)  cg2d: iter=    15 ; resid.=  7.81677633659341E-03
(PID.TID 0000.0001)  cg2d: iter=    16 ; resid.=  6.45567130369937E-03
(PID.TID 0000.0001)  cg2d: iter=    17 ; resid.=  6.13848545694738E-03
(PID.TID 0000.0001)  cg2d: iter=    18 ; resid.=  5.68189888126708E-03
(PID.TID 0000.0001)  cg2d: iter=    19 ; resid.=  3.94445145094175E-03
(PID.TID 0000.0001)  cg2d: iter=    20 ; resid.=  2.92280531772007E-03
(PID.TID 0000.0001)  cg2d: iter=    21 ; resid.=  2.46020446244469E-03
(PID.TID 0000.0001)  cg2d: iter=    22 ; resid.=  2.10775950666505E-03
(PID.TID 0000.0001)  cg2d: iter=    23 ; resid.=  1.85696208990503E-03
(PID.TID 0000.0001)  cg2d: iter=    24 ; resid.=  1.70869757637569E-03
(PID.TID 0000.0001)  cg2d: iter=    25 ; resid.=  1.36961875728825E-03
(PID.TID 0000.0001)  cg2d: iter=    26 ; resid.=  1.07614795352472E-03
(PID.TID 0000.0001)  cg2d: iter=    27 ; resid.=  9.28897540566755E-04
(PID.TID 0000.0001)  cg2d: iter=    28 ; resid.=  7.53402610965135E-04
(PID.TID 0000.0001)  cg2d: iter=    29 ; resid.=  5.54477941208718E-04
(PID.TID 0000.0001)  cg2d: iter=    30 ; resid.=  4.62522984726387E-04
(PID.TID 0000.0001)  cg2d: iter=    31 ; resid.=  4.14509195086200E-04
(PID.TID 0000.0001)  cg2d: iter=    32 ; resid.=  3.14318787251366E-04
(PID.TID 0000.0001)  cg2d: iter=    33 ; resid.=  2.60516144394617E-04
(PID.TID 0000.0001)  cg2d: iter=    34 ; resid.=  2.22884176850311E-04
(PID.TID 0000.0001)  cg2d: iter=    35 ; resid.=  1.75007257725348E-04
(PID.TID 0000.0001)  cg2d: iter=    36 ; resid.=  1.51171260029421E-04
(PID.TID 0000.0001)  cg2d: iter=    37 ; resid.=  1.32818451461190E-04
(PID.TID 0000.0001)  cg2d: iter=    38 ; resid.=  1.26942311997859E-04
(PID.TID 0000.0001)  cg2d: iter=    39 ; resid.=  1.09783458185058E-04
(PID.TID 0000.0001)  cg2d: iter=    40 ; resid.=  9.48941290111228E-05
(PID.TID 0000.0001)  cg2d: iter=    41 ; resid.=  7.66490449030368E-05
(PID.TID 0000.0001)  cg2d: iter=    42 ; resid.=  6.34149887103178E-05
(PID.TID 0000.0001)  cg2d: iter=    43 ; resid.=  5.34402588472020E-05
(PID.TID 0000.0001)  cg2d: iter=    44 ; resid.=  4.14582095200737E-05
(PID.TID 0000.0001)  cg2d: iter=    45 ; resid.=  3.34230099997683E-05
(PID.TID 0000.0001)  cg2d: iter=    46 ; resid.=  2.88875826192106E-05
(PID.TID 0000.0001)  cg2d: iter=    47 ; resid.=  2.45473853498302E-05
(PID.TID 0000.0001)  cg2d: iter=    48 ; resid.=  2.04925287514192E-05
(PID.TID 0000.0001)  cg2d: iter=    49 ; resid.=  1.70642206416155E-05
(PID.TID 0000.0001)  cg2d: iter=    50 ; resid.=  1.42392907783232E-05
(PID.TID 0000.0001)  cg2d: iter=    51 ; resid.=  1.23854093738679E-05
(PID.TID 0000.0001)  cg2d: iter=    52 ; resid.=  1.01794651758164E-05
(PID.TID 0000.0001)  cg2d: iter=    53 ; resid.=  9.02992441766997E-06
(PID.TID 0000.0001)  cg2d: iter=    54 ; resid.=  7.50303586598272E-06
(PID.TID 0000.0001)  cg2d: iter=    55 ; resid.=  6.27789717979090E-06
(PID.TID 0000.0001)  cg2d: iter=    56 ; resid.=  5.65866687549844E-06
(PID.TID 0000.0001)  cg2d: iter=    57 ; resid.=  4.48802651599658E-06
(PID.TID 0000.0001)  cg2d: iter=    58 ; resid.=  3.26720961155759E-06
(PID.TID 0000.0001)  cg2d: iter=    59 ; resid.=  2.46564540250667E-06
(PID.TID 0000.0001)  cg2d: iter=    60 ; resid.=  1.80664344171452E-06
(PID.TID 0000.0001)  cg2d: iter=    61 ; resid.=  1.47319375182811E-06
(PID.TID 0000.0001)  cg2d: iter=    62 ; resid.=  1.32238593986496E-06
(PID.TID 0000.0001)  cg2d: iter=    63 ; resid.=  1.17468701756958E-06
(PID.TID 0000.0001)  cg2d: iter=    64 ; resid.=  1.08587614497583E-06
(PID.TID 0000.0001)  cg2d: iter=    65 ; resid.=  9.07373667500876E-07
(PID.TID 0000.0001)  cg2d: iter=    66 ; resid.=  7.33126776699686E-07
(PID.TID 0000.0001)  cg2d: iter=    67 ; resid.=  5.38253840776352E-07
(PID.TID 0000.0001)  cg2d: iter=    68 ; resid.=  4.21655226852139E-07
(PID.TID 0000.0001)  cg2d: iter=    69 ; resid.=  3.84638970696510E-07
(PID.TID 0000.0001)  cg2d: iter=    70 ; resid.=  3.43528278840251E-07
(PID.TID 0000.0001)  cg2d: iter=    71 ; resid.=  3.25502952911654E-07
(PID.TID 0000.0001)  cg2d: iter=    72 ; resid.=  2.79785850548563E-07
(PID.TID 0000.0001)  cg2d: iter=    73 ; resid.=  2.40360191531905E-07
(PID.TID 0000.0001)  cg2d: iter=    74 ; resid.=  1.93157788253436E-07
(PID.TID 0000.0001)  cg2d: iter=    75 ; resid.=  1.38437428106402E-07
(PID.TID 0000.0001)  cg2d: iter=    76 ; resid.=  1.07462864305616E-07
(PID.TID 0000.0001)  cg2d: iter=    77 ; resid.=  7.88439211551654E-08
(PID.TID 0000.0001)  cg2d: iter=    78 ; resid.=  6.11087076218681E-08
(PID.TID 0000.0001)  cg2d: iter=    79 ; resid.=  5.05608111435963E-08
(PID.TID 0000.0001)  cg2d: iter=    80 ; resid.=  3.94467179010886E-08
(PID.TID 0000.0001)  cg2d: iter=    81 ; resid.=  2.84969418718688E-08
(PID.TID 0000.0001)  cg2d: iter=    82 ; resid.=  2.01891463782134E-08
(PID.TID 0000.0001)  cg2d: iter=    83 ; resid.=  1.63483283510180E-08
(PID.TID 0000.0001)  cg2d: iter=    84 ; resid.=  1.34529521708116E-08
(PID.TID 0000.0001)  cg2d: iter=    85 ; resid.=  9.20856215282128E-09
(PID.TID 0000.0001)  cg2d: iter=    86 ; resid.=  6.86214633536486E-09
(PID.TID 0000.0001)  cg2d: iter=    87 ; resid.=  5.09637912189648E-09
(PID.TID 0000.0001)  cg2d: iter=    88 ; resid.=  4.37933311074662E-09
(PID.TID 0000.0001)  cg2d: iter=    89 ; resid.=  3.97700425463849E-09
(PID.TID 0000.0001)  cg2d: iter=    90 ; resid.=  3.35246617550017E-09
(PID.TID 0000.0001)  cg2d: iter=    91 ; resid.=  2.59059634474171E-09
(PID.TID 0000.0001)  cg2d: iter=    92 ; resid.=  1.95876474223112E-09
(PID.TID 0000.0001)  cg2d: iter=    93 ; resid.=  1.43677574979303E-09
(PID.TID 0000.0001)  cg2d: iter=    94 ; resid.=  1.19695707854333E-09
(PID.TID 0000.0001)  cg2d: iter=    95 ; resid.=  1.01225824819533E-09
(PID.TID 0000.0001)  cg2d: iter=    96 ; resid.=  9.15414931333298E-10
(PID.TID 0000.0001)  cg2d: iter=    97 ; resid.=  7.52633772273849E-10
(PID.TID 0000.0001)  cg2d: iter=    98 ; resid.=  6.14059623967913E-10
(PID.TID 0000.0001)  cg2d: iter=    99 ; resid.=  4.84235406541671E-10
(PID.TID 0000.0001)  cg2d: iter=   100 ; resid.=  4.24851485194958E-10
(PID.TID 0000.0001)  cg2d: iter=   101 ; resid.=  3.57308174115334E-10
(PID.TID 0000.0001)  cg2d: iter=   102 ; resid.=  2.61513596792983E-10
(PID.TID 0000.0001)  cg2d: iter=   103 ; resid.=  1.99019409916386E-10
(PID.TID 0000.0001)  cg2d: iter=   104 ; resid.=  1.51167007111083E-10
(PID.TID 0000.0001)  cg2d: iter=   105 ; resid.=  1.14527335114186E-10
(PID.TID 0000.0001)  cg2d: iter=   106 ; resid.=  8.92286554036392E-11
(PID.TID 0000.0001)  cg2d: iter=   107 ; resid.=  6.85536595775736E-11
(PID.TID 0000.0001)  cg2d: iter=   108 ; resid.=  5.35220348428620E-11
(PID.TID 0000.0001)  cg2d: iter=   109 ; resid.=  4.08429002774236E-11
(PID.TID 0000.0001)  cg2d: iter=   110 ; resid.=  3.15467117319807E-11
(PID.TID 0000.0001)  cg2d: iter=   111 ; resid.=  2.22026278900477E-11
(PID.TID 0000.0001)  cg2d: iter=   112 ; resid.=  1.69472008856947E-11
(PID.TID 0000.0001)  cg2d: iter=   113 ; resid.=  1.23115623279560E-11
(PID.TID 0000.0001)  cg2d: iter=   114 ; resid.=  9.50114039724662E-12
(PID.TID 0000.0001)  cg2d: iter=   115 ; resid.=  7.63712392891504E-12
(PID.TID 0000.0001)  cg2d: iter=   116 ; resid.=  5.95382699530331E-12
(PID.TID 0000.0001)  cg2d: iter=   117 ; resid.=  4.82747091249618E-12
(PID.TID 0000.0001)  cg2d: iter=   118 ; resid.=  3.66282876725735E-12
(PID.TID 0000.0001)  cg2d: iter=   119 ; resid.=  2.71260368892540E-12
(PID.TID 0000.0001)  cg2d: iter=   120 ; resid.=  2.07496835090532E-12
(PID.TID 0000.0001)  cg2d: iter=   121 ; resid.=  1.71061890455360E-12
(PID.TID 0000.0001)  cg2d: iter=   122 ; resid.=  1.43819571464034E-12
(PID.TID 0000.0001)  cg2d: iter=   123 ; resid.=  1.08820030257217E-12
(PID.TID 0000.0001)  cg2d: iter=   124 ; resid.=  7.55049755151206E-13
(PID.TID 0000.0001)  cg2d: iter=   125 ; resid.=  5.37800934207991E-13
(PID.TID 0000.0001)  cg2d: iter=   126 ; resid.=  3.77872727231936E-13
(PID.TID 0000.0001)  cg2d: iter=   127 ; resid.=  2.69527839110619E-13
(PID.TID 0000.0001)  cg2d: iter=   128 ; resid.=  1.87835988549283E-13
(PID.TID 0000.0001)  cg2d: iter=   129 ; resid.=  1.35568842109249E-13
(PID.TID 0000.0001)  cg2d: iter=   130 ; resid.=  1.12105794876483E-13
(PID.TID 0000.0001)  cg2d: iter=   131 ; resid.=  9.68249133441918E-14
DEBUG_STATS_RL:    cg2d_x (SOLVE_FOR_PRESSURE)  min= -1.84859206227661E+01
DEBUG_STATS_RL:    cg2d_x (SOLVE_FOR_PRESSURE)  max=  9.12032754786571E+00
DEBUG_STATS_RL:    cg2d_x (SOLVE_FOR_PRESSURE) mean= -1.84522218937624E+00
DEBUG_STATS_RL:    cg2d_x (SOLVE_FOR_PRESSURE) S.D.=  7.26173330251417E+00
(PID.TID 0000.0001)      cg2d_init_res =   2.63483852458078E-01
(PID.TID 0000.0001)      cg2d_iters(min,last) =      -1     131
(PID.TID 0000.0001)      cg2d_last_res =   9.68249133441918E-14
(PID.TID 0000.0001) // =======================================================
(PID.TID 0000.0001) // Begin MONITOR dynamic field statistics
(PID.TID 0000.0001) // =======================================================
(PID.TID 0000.0001) %MON time_tsnumber                =                    58
(PID.TID 0000.0001) %MON time_secondsf                =   5.0112000000000E+06
(PID.TID 0000.0001) %MON dynstat_eta_max              =   9.2969699774368E-01
(PID.TID 0000.0001) %MON dynstat_eta_min              =  -1.8843955782637E+00
(PID.TID 0000.0001) %MON dynstat_eta_mean             =  -4.3387588234385E-03
(PID.TID 0000.0001) %MON dynstat_eta_sd               =   6.4861632521910E-01
(PID.TID 0000.0001) %MON dynstat_eta_del2             =   2.3700100885673E-03
(PID.TID 0000.0001) %MON dynstat_uvel_max             =   1.5161709260213E-01
(PID.TID 0000.0001) %MON dynstat_uvel_min             =  -1.2404915873065E-01
(PID.TID 0000.0001) %MON dynstat_uvel_mean            =   2.2797500683464E-03
(PID.TID 0000.0001) %MON dynstat_uvel_sd              =   1.2773827026029E-02
(PID.TID 0000.0001) %MON dynstat_uvel_del2            =   7.8257401017012E-05
(PID.TID 0000.0001) %MON dynstat_vvel_max             =   1.4052509642499E-01
(PID.TID 0000.0001) %MON dynstat_vvel_min             =  -9.1059322453773E-02
(PID.TID 0000.0001) %MON dynstat_vvel_mean            =  -5.1998799176239E-05
(PID.TID 0000.0001) %MON dynstat_vvel_sd              =   8.2355778668980E-03
(PID.TID 0000.0001) %MON dynstat_vvel_del2            =   7.1165435665260E-05
(PID.TID 0000.0001) %MON dynstat_wvel_max             =   1.0771653412591E-04
(PID.TID 0000.0001) %MON dynstat_wvel_min             =  -6.8150533484591E-05
(PID.TID 0000.0001) %MON dynstat_wvel_mean            =  -2.1183681840384E-22
(PID.TID 0000.0001) %MON dynstat_wvel_sd              =   1.1076892023993E-05
(PID.TID 0000.0001) %MON dynstat_wvel_del2            =   1.1803458350045E-07
(PID.TID 0000.0001) %MON dynstat_theta_max            =   2.9914007102784E+01
(PID.TID 0000.0001) %MON dynstat_theta_min            =  -1.9405120282899E+00
(PID.TID 0000.0001) %MON dynstat_theta_mean           =   3.6210651814561E+00
(PID.TID 0000.0001) %MON dynstat_theta_sd             =   4.4193807779114E+00
(PID.TID 0000.0001) %MON dynstat_theta_del2           =   4.7473450957588E-03
(PID.TID 0000.0001) %MON dynstat_salt_max             =   3.7458493161762E+01
(PID.TID 0000.0001) %MON dynstat_salt_min             =   2.9841704122079E+01
(PID.TID 0000.0001) %MON dynstat_salt_mean            =   3.4717308969073E+01
(PID.TID 0000.0001) %MON dynstat_salt_sd              =   2.9625299943479E-01
(PID.TID 0000.0001) %MON dynstat_salt_del2            =   9.7000773892383E-04
(PID.TID 0000.0001) %MON dynstat_sst_max              =   2.9914007102784E+01
(PID.TID 0000.0001) %MON dynstat_sst_min              =  -1.9405120282899E+00
(PID.TID 0000.0001) %MON dynstat_sst_mean             =   1.8794750600485E+01
(PID.TID 0000.0001) %MON dynstat_sst_sd               =   9.1445604545588E+00
(PID.TID 0000.0001) %MON dynstat_sst_del2             =   2.4832159057762E-02
(PID.TID 0000.0001) %MON dynstat_sss_max              =   3.7394312288720E+01
(PID.TID 0000.0001) %MON dynstat_sss_min              =   2.9841704122079E+01
(PID.TID 0000.0001) %MON dynstat_sss_mean             =   3.4841042213603E+01
(PID.TID 0000.0001) %MON dynstat_sss_sd               =   9.7724106595724E-01
(PID.TID 0000.0001) %MON dynstat_sss_del2             =   7.6547081292835E-03
(PID.TID 0000.0001) %MON forcing_qnet_max             =   3.2487442016602E+02
(PID.TID 0000.0001) %MON forcing_qnet_min             =  -1.6924261779785E+02
(PID.TID 0000.0001) %MON forcing_qnet_mean            =  -1.1285176983424E+01
(PID.TID 0000.0001) %MON forcing_qnet_sd              =   6.3449695075861E+01
(PID.TID 0000.0001) %MON forcing_qnet_del2            =   8.9174766139185E-01
(PID.TID 0000.0001) %MON forcing_qsw_max              =   0.0000000000000E+00
(PID.TID 0000.0001) %MON forcing_qsw_min              =   0.0000000000000E+00
(PID.TID 0000.0001) %MON forcing_qsw_mean             =   0.0000000000000E+00
(PID.TID 0000.0001) %MON forcing_qsw_sd               =   0.0000000000000E+00
(PID.TID 0000.0001) %MON forcing_qsw_del2             =   0.0000000000000E+00
(PID.TID 0000.0001) %MON forcing_empmr_max            =   6.9212435960253E-05
(PID.TID 0000.0001) %MON forcing_empmr_min            =  -7.6079184907485E-05
(PID.TID 0000.0001) %MON forcing_empmr_mean           =   7.8632980941711E-07
(PID.TID 0000.0001) %MON forcing_empmr_sd             =   2.7052915154374E-05
(PID.TID 0000.0001) %MON forcing_empmr_del2           =   3.5339969316782E-07
(PID.TID 0000.0001) %MON forcing_fu_max               =   3.2260591387749E-01
(PID.TID 0000.0001) %MON forcing_fu_min               =  -2.8034790456295E-01
(PID.TID 0000.0001) %MON forcing_fu_mean              =   1.8761136690137E-02
(PID.TID 0000.0001) %MON forcing_fu_sd                =   9.4487425263087E-02
(PID.TID 0000.0001) %MON forcing_fu_del2              =   7.0683773160572E-04
(PID.TID 0000.0001) %MON forcing_fv_max               =   1.5618582963943E-01
(PID.TID 0000.0001) %MON forcing_fv_min               =  -1.8184682130814E-01
(PID.TID 0000.0001) %MON forcing_fv_mean              =  -7.3418651405940E-03
(PID.TID 0000.0001) %MON forcing_fv_sd                =   4.2230357499442E-02
(PID.TID 0000.0001) %MON forcing_fv_del2              =   4.7453329375474E-04
(PID.TID 0000.0001) %MON trAdv_CFL_u_max              =   4.1177146073269E-02
(PID.TID 0000.0001) %MON trAdv_CFL_v_max              =   2.7300010501292E-02
(PID.TID 0000.0001) %MON trAdv_CFL_w_max              =   3.0464237825986E-02
(PID.TID 0000.0001) %MON advcfl_uvel_max              =   3.9637993076049E-02
(PID.TID 0000.0001) %MON advcfl_vvel_max              =   2.7301772483787E-02
(PID.TID 0000.0001) %MON advcfl_wvel_max              =   3.0639947581297E-02
(PID.TID 0000.0001) %MON advcfl_W_hf_max              =   3.7205650634432E-02
(PID.TID 0000.0001) %MON pe_b_mean                    =   5.3836446140412E-04
(PID.TID 0000.0001) %MON ke_max                       =   1.3727995564391E-02
(PID.TID 0000.0001) %MON ke_mean                      =   1.0694280693430E-04
(PID.TID 0000.0001) %MON ke_vol                       =   1.3226782436723E+18
(PID.TID 0000.0001) %MON vort_r_min                   =  -4.1239240312444E-07
(PID.TID 0000.0001) %MON vort_r_max                   =   3.7194381047528E-07
(PID.TID 0000.0001) %MON vort_a_mean                  =  -2.5274806727103E-05
(PID.TID 0000.0001) %MON vort_a_sd                    =   7.3604668599530E-05
(PID.TID 0000.0001) %MON vort_p_mean                  =  -3.1845654954849E-05
(PID.TID 0000.0001) %MON vort_p_sd                    =   1.3162515587270E-04
(PID.TID 0000.0001) %MON surfExpan_theta_mean         =   4.4869059944989E-07
(PID.TID 0000.0001) %MON surfExpan_salt_mean          =  -3.7138133795183E-08
(PID.TID 0000.0001) // =======================================================
(PID.TID 0000.0001) // End MONITOR dynamic field statistics
(PID.TID 0000.0001) // =======================================================
 EXTERNAL_FIELDS_LOAD,        58 : iP,iLd,i0,i1=    2    3    2    3 ; Wght=  0.5666666667  0.4333333333
 EXTERNAL_FIELDS_LOAD: (fu0,1),fu,fv= -1.4435E-02 -2.7199E-02 -1.9966E-02 -1.0244E-02
 EXTERNAL_FIELDS_LOAD: SST,SSS,Q,E-P= -3.8108E-01  3.4490E+01  2.2961E+02  8.6821E-06
DEBUG_STATS_RL:          Uvel (THERMODYNAMICS)  min= -1.24049158730647E-01
DEBUG_STATS_RL:          Uvel (THERMODYNAMICS)  max=  1.51617092602128E-01
DEBUG_STATS_RL:          Uvel (THERMODYNAMICS) mean=  5.30325024058946E-03
DEBUG_STATS_RL:          Uvel (THERMODYNAMICS) S.D.=  2.05421968067923E-02
DEBUG_STATS_RL:          Vvel (THERMODYNAMICS)  min= -9.10593224537727E-02
DEBUG_STATS_RL:          Vvel (THERMODYNAMICS)  max=  1.40525096424985E-01
DEBUG_STATS_RL:          Vvel (THERMODYNAMICS) mean=  1.08560735294749E-03
DEBUG_STATS_RL:          Vvel (THERMODYNAMICS) S.D.=  1.35991572948689E-02
DEBUG_STATS_RL:          Wvel (THERMODYNAMICS)  min= -6.81505334845909E-05
DEBUG_STATS_RL:          Wvel (THERMODYNAMICS)  max=  1.07716534125907E-04
DEBUG_STATS_RL:          Wvel (THERMODYNAMICS) mean= -2.53691128421490E-08
DEBUG_STATS_RL:          Wvel (THERMODYNAMICS) S.D.=  9.84418458981523E-06
DEBUG_STATS_RL:         Theta (THERMODYNAMICS)  min= -1.93917339270277E+00
DEBUG_STATS_RL:         Theta (THERMODYNAMICS)  max=  2.99201947936076E+01
DEBUG_STATS_RL:         Theta (THERMODYNAMICS) mean=  3.21099027489303E+00
DEBUG_STATS_RL:         Theta (THERMODYNAMICS) S.D.=  5.86542583312636E+00
DEBUG_STATS_RL:          Salt (THERMODYNAMICS)  min= -6.86350255588998E-04
DEBUG_STATS_RL:          Salt (THERMODYNAMICS)  max=  3.74588524434700E+01
DEBUG_STATS_RL:          Salt (THERMODYNAMICS) mean=  1.88441758257668E+01
DEBUG_STATS_RL:          Salt (THERMODYNAMICS) S.D.=  1.73003832825309E+01
DEBUG_STATS_RL:         GtNm1 (THERMODYNAMICS)  min= -2.38812105999890E-06
DEBUG_STATS_RL:         GtNm1 (THERMODYNAMICS)  max=  1.81219118987423E-06
DEBUG_STATS_RL:         GtNm1 (THERMODYNAMICS) mean= -7.20472328918133E-10
DEBUG_STATS_RL:         GtNm1 (THERMODYNAMICS) S.D.=  1.49576859688870E-07
DEBUG_STATS_RL:         GsNm1 (THERMODYNAMICS)  min= -4.49503196232220E-07
DEBUG_STATS_RL:         GsNm1 (THERMODYNAMICS)  max=  3.35313706194795E-07
DEBUG_STATS_RL:         GsNm1 (THERMODYNAMICS) mean= -3.92785237499144E-10
DEBUG_STATS_RL:         GsNm1 (THERMODYNAMICS) S.D.=  1.53665521158229E-08
DEBUG_STATS_RL:                EtaN (DYNAMICS)  min= -1.88439557826370E+00
DEBUG_STATS_RL:                EtaN (DYNAMICS)  max=  9.29696997743678E-01
DEBUG_STATS_RL:                EtaN (DYNAMICS) mean= -1.88096043769240E-01
DEBUG_STATS_RL:                EtaN (DYNAMICS) S.D.=  7.40237849389827E-01
DEBUG_STATS_RL:                Uvel (DYNAMICS)  min= -1.24049158730647E-01
DEBUG_STATS_RL:                Uvel (DYNAMICS)  max=  1.51617092602128E-01
DEBUG_STATS_RL:                Uvel (DYNAMICS) mean=  5.30325024058946E-03
DEBUG_STATS_RL:                Uvel (DYNAMICS) S.D.=  2.05421968067923E-02
DEBUG_STATS_RL:                Vvel (DYNAMICS)  min= -9.10593224537727E-02
DEBUG_STATS_RL:                Vvel (DYNAMICS)  max=  1.40525096424985E-01
DEBUG_STATS_RL:                Vvel (DYNAMICS) mean=  1.08560735294749E-03
DEBUG_STATS_RL:                Vvel (DYNAMICS) S.D.=  1.35991572948689E-02
DEBUG_STATS_RL:                Wvel (DYNAMICS)  min= -6.81505334845909E-05
DEBUG_STATS_RL:                Wvel (DYNAMICS)  max=  1.07716534125907E-04
DEBUG_STATS_RL:                Wvel (DYNAMICS) mean= -2.53691128421490E-08
DEBUG_STATS_RL:                Wvel (DYNAMICS) S.D.=  9.84418458981523E-06
DEBUG_STATS_RL:               Theta (DYNAMICS)  min= -1.93917339270277E+00
DEBUG_STATS_RL:               Theta (DYNAMICS)  max=  2.99201947936076E+01
DEBUG_STATS_RL:               Theta (DYNAMICS) mean=  3.21099027489303E+00
DEBUG_STATS_RL:               Theta (DYNAMICS) S.D.=  5.86542583312636E+00
DEBUG_STATS_RL:                Salt (DYNAMICS)  min= -6.86350255588998E-04
DEBUG_STATS_RL:                Salt (DYNAMICS)  max=  3.74588524434700E+01
DEBUG_STATS_RL:                Salt (DYNAMICS) mean=  1.88441758257668E+01
DEBUG_STATS_RL:                Salt (DYNAMICS) S.D.=  1.73003832825309E+01
DEBUG_STATS_RL:                  Gu (DYNAMICS)  min= -1.24033770832325E-01
DEBUG_STATS_RL:                  Gu (DYNAMICS)  max=  1.42044733451328E-01
DEBUG_STATS_RL:                  Gu (DYNAMICS) mean=  5.22082969550847E-03
DEBUG_STATS_RL:                  Gu (DYNAMICS) S.D.=  2.06828294867205E-02
DEBUG_STATS_RL:                  Gv (DYNAMICS)  min= -9.40692140376549E-02
DEBUG_STATS_RL:                  Gv (DYNAMICS)  max=  1.42225475081879E-01
DEBUG_STATS_RL:                  Gv (DYNAMICS) mean=  3.52316929991320E-03
DEBUG_STATS_RL:                  Gv (DYNAMICS) S.D.=  1.51368369746708E-02
DEBUG_STATS_RL:               GuNm1 (DYNAMICS)  min= -9.69619427434478E-06
DEBUG_STATS_RL:               GuNm1 (DYNAMICS)  max=  9.24943905815534E-06
DEBUG_STATS_RL:               GuNm1 (DYNAMICS) mean= -2.93340226722942E-09
DEBUG_STATS_RL:               GuNm1 (DYNAMICS) S.D.=  1.18452215369865E-06
DEBUG_STATS_RL:               GvNm1 (DYNAMICS)  min= -9.82664200639257E-06
DEBUG_STATS_RL:               GvNm1 (DYNAMICS)  max=  1.59619658024615E-05
DEBUG_STATS_RL:               GvNm1 (DYNAMICS) mean=  7.43440305066500E-07
DEBUG_STATS_RL:               GvNm1 (DYNAMICS) S.D.=  2.62920897204893E-06
DEBUG_STATS_RL:               GtNm1 (DYNAMICS)  min= -2.38812105999890E-06
DEBUG_STATS_RL:               GtNm1 (DYNAMICS)  max=  1.81219118987423E-06
DEBUG_STATS_RL:               GtNm1 (DYNAMICS) mean= -7.20472328918133E-10
DEBUG_STATS_RL:               GtNm1 (DYNAMICS) S.D.=  1.49576859688870E-07
DEBUG_STATS_RL:               GsNm1 (DYNAMICS)  min= -4.49503196232220E-07
DEBUG_STATS_RL:               GsNm1 (DYNAMICS)  max=  3.35313706194795E-07
DEBUG_STATS_RL:               GsNm1 (DYNAMICS) mean= -3.92785237499144E-10
DEBUG_STATS_RL:               GsNm1 (DYNAMICS) S.D.=  1.53665521158229E-08
DEBUG_STATS_RL:    cg2d_b (SOLVE_FOR_PRESSURE)  min= -1.95138984522664E+04
DEBUG_STATS_RL:    cg2d_b (SOLVE_FOR_PRESSURE)  max=  2.53333306439847E+04
DEBUG_STATS_RL:    cg2d_b (SOLVE_FOR_PRESSURE) mean=  4.22024996401944E+00
DEBUG_STATS_RL:    cg2d_b (SOLVE_FOR_PRESSURE) S.D.=  3.85999590463401E+03
 cg2d: Sum(rhs),rhsMax =   3.85653146204978E-01  1.66396098480774E+00
(PID.TID 0000.0001)  cg2d: iter=     1 ; resid.=  7.57001548558686E-02
(PID.TID 0000.0001)  cg2d: iter=     2 ; resid.=  6.03106491501627E-02
(PID.TID 0000.0001)  cg2d: iter=     3 ; resid.=  6.34564805690010E-02
(PID.TID 0000.0001)  cg2d: iter=     4 ; resid.=  6.08984516713467E-02
(PID.TID 0000.0001)  cg2d: iter=     5 ; resid.=  5.68601016220896E-02
(PID.TID 0000.0001)  cg2d: iter=     6 ; resid.=  4.21991042191511E-02
(PID.TID 0000.0001)  cg2d: iter=     7 ; resid.=  3.50430011939199E-02
(PID.TID 0000.0001)  cg2d: iter=     8 ; resid.=  3.16732491001399E-02
(PID.TID 0000.0001)  cg2d: iter=     9 ; resid.=  2.58842459687927E-02
(PID.TID 0000.0001)  cg2d: iter=    10 ; resid.=  2.07182710882113E-02
(PID.TID 0000.0001)  cg2d: iter=    11 ; resid.=  1.65489779424275E-02
(PID.TID 0000.0001)  cg2d: iter=    12 ; resid.=  1.27890915276357E-02
(PID.TID 0000.0001)  cg2d: iter=    13 ; resid.=  8.98001258465215E-03
(PID.TID 0000.0001)  cg2d: iter=    14 ; resid.=  7.98167326701740E-03
(PID.TID 0000.0001)  cg2d: iter=    15 ; resid.=  7.13766657574950E-03
(PID.TID 0000.0001)  cg2d: iter=    16 ; resid.=  5.89023001534673E-03
(PID.TID 0000.0001)  cg2d: iter=    17 ; resid.=  5.50178139120917E-03
(PID.TID 0000.0001)  cg2d: iter=    18 ; resid.=  5.16949355138518E-03
(PID.TID 0000.0001)  cg2d: iter=    19 ; resid.=  3.67019578058020E-03
(PID.TID 0000.0001)  cg2d: iter=    20 ; resid.=  2.69215289199836E-03
(PID.TID 0000.0001)  cg2d: iter=    21 ; resid.=  2.23444765790010E-03
(PID.TID 0000.0001)  cg2d: iter=    22 ; resid.=  1.88354386565963E-03
(PID.TID 0000.0001)  cg2d: iter=    23 ; resid.=  1.64717450041606E-03
(PID.TID 0000.0001)  cg2d: iter=    24 ; resid.=  1.54063335484748E-03
(PID.TID 0000.0001)  cg2d: iter=    25 ; resid.=  1.25550324260764E-03
(PID.TID 0000.0001)  cg2d: iter=    26 ; resid.=  9.90926781488178E-04
(PID.TID 0000.0001)  cg2d: iter=    27 ; resid.=  8.60085880190645E-04
(PID.TID 0000.0001)  cg2d: iter=    28 ; resid.=  6.96320847631239E-04
(PID.TID 0000.0001)  cg2d: iter=    29 ; resid.=  5.11094870425211E-04
(PID.TID 0000.0001)  cg2d: iter=    30 ; resid.=  4.26909661874996E-04
(PID.TID 0000.0001)  cg2d: iter=    31 ; resid.=  3.83524366197207E-04
(PID.TID 0000.0001)  cg2d: iter=    32 ; resid.=  2.91670409624071E-04
(PID.TID 0000.0001)  cg2d: iter=    33 ; resid.=  2.43164014915853E-04
(PID.TID 0000.0001)  cg2d: iter=    34 ; resid.=  2.06305339165420E-04
(PID.TID 0000.0001)  cg2d: iter=    35 ; resid.=  1.60088135320497E-04
(PID.TID 0000.0001)  cg2d: iter=    36 ; resid.=  1.36020024238812E-04
(PID.TID 0000.0001)  cg2d: iter=    37 ; resid.=  1.19411372172371E-04
(PID.TID 0000.0001)  cg2d: iter=    38 ; resid.=  1.14538778574622E-04
(PID.TID 0000.0001)  cg2d: iter=    39 ; resid.=  1.02380799776193E-04
(PID.TID 0000.0001)  cg2d: iter=    40 ; resid.=  8.96397914534350E-05
(PID.TID 0000.0001)  cg2d: iter=    41 ; resid.=  7.16287962445912E-05
(PID.TID 0000.0001)  cg2d: iter=    42 ; resid.=  5.83997393060240E-05
(PID.TID 0000.0001)  cg2d: iter=    43 ; resid.=  4.93154499300604E-05
(PID.TID 0000.0001)  cg2d: iter=    44 ; resid.=  3.83447663093152E-05
(PID.TID 0000.0001)  cg2d: iter=    45 ; resid.=  3.07389168675197E-05
(PID.TID 0000.0001)  cg2d: iter=    46 ; resid.=  2.65307594035434E-05
(PID.TID 0000.0001)  cg2d: iter=    47 ; resid.=  2.24670990145467E-05
(PID.TID 0000.0001)  cg2d: iter=    48 ; resid.=  1.86523674844848E-05
(PID.TID 0000.0001)  cg2d: iter=    49 ; resid.=  1.57910006899838E-05
(PID.TID 0000.0001)  cg2d: iter=    50 ; resid.=  1.30724066892707E-05
(PID.TID 0000.0001)  cg2d: iter=    51 ; resid.=  1.14098847285478E-05
(PID.TID 0000.0001)  cg2d: iter=    52 ; resid.=  9.42771432000837E-06
(PID.TID 0000.0001)  cg2d: iter=    53 ; resid.=  8.24351948033367E-06
(PID.TID 0000.0001)  cg2d: iter=    54 ; resid.=  6.85777333841467E-06
(PID.TID 0000.0001)  cg2d: iter=    55 ; resid.=  5.63968697849737E-06
(PID.TID 0000.0001)  cg2d: iter=    56 ; resid.=  5.04302187610019E-06
(PID.TID 0000.0001)  cg2d: iter=    57 ; resid.=  4.13156176520137E-06
(PID.TID 0000.0001)  cg2d: iter=    58 ; resid.=  3.08678756600098E-06
(PID.TID 0000.0001)  cg2d: iter=    59 ; resid.=  2.35190300097404E-06
(PID.TID 0000.0001)  cg2d: iter=    60 ; resid.=  1.71040020161231E-06
(PID.TID 0000.0001)  cg2d: iter=    61 ; resid.=  1.36747367435537E-06
(PID.TID 0000.0001)  cg2d: iter=    62 ; resid.=  1.20325842283122E-06
(PID.TID 0000.0001)  cg2d: iter=    63 ; resid.=  1.05316785783785E-06
(PID.TID 0000.0001)  cg2d: iter=    64 ; resid.=  9.71971397409512E-07
(PID.TID 0000.0001)  cg2d: iter=    65 ; resid.=  8.19026842369153E-07
(PID.TID 0000.0001)  cg2d: iter=    66 ; resid.=  6.64409269066448E-07
(PID.TID 0000.0001)  cg2d: iter=    67 ; resid.=  4.91065179946620E-07
(PID.TID 0000.0001)  cg2d: iter=    68 ; resid.=  3.86230011581492E-07
(PID.TID 0000.0001)  cg2d: iter=    69 ; resid.=  3.50368778455878E-07
(PID.TID 0000.0001)  cg2d: iter=    70 ; resid.=  3.09884747169254E-07
(PID.TID 0000.0001)  cg2d: iter=    71 ; resid.=  2.94303227783883E-07
(PID.TID 0000.0001)  cg2d: iter=    72 ; resid.=  2.54922153397227E-07
(PID.TID 0000.0001)  cg2d: iter=    73 ; resid.=  2.17999474220534E-07
(PID.TID 0000.0001)  cg2d: iter=    74 ; resid.=  1.78526620001387E-07
(PID.TID 0000.0001)  cg2d: iter=    75 ; resid.=  1.28682981369120E-07
(PID.TID 0000.0001)  cg2d: iter=    76 ; resid.=  1.02565249898633E-07
(PID.TID 0000.0001)  cg2d: iter=    77 ; resid.=  7.61798656516883E-08
(PID.TID 0000.0001)  cg2d: iter=    78 ; resid.=  5.94305553357341E-08
(PID.TID 0000.0001)  cg2d: iter=    79 ; resid.=  4.94451442066263E-08
(PID.TID 0000.0001)  cg2d: iter=    80 ; resid.=  3.91552050250370E-08
(PID.TID 0000.0001)  cg2d: iter=    81 ; resid.=  2.77797384807069E-08
(PID.TID 0000.0001)  cg2d: iter=    82 ; resid.=  1.92093689408809E-08
(PID.TID 0000.0001)  cg2d: iter=    83 ; resid.=  1.52699483533123E-08
(PID.TID 0000.0001)  cg2d: iter=    84 ; resid.=  1.24763496406125E-08
(PID.TID 0000.0001)  cg2d: iter=    85 ; resid.=  8.52882350313663E-09
(PID.TID 0000.0001)  cg2d: iter=    86 ; resid.=  6.48697473367178E-09
(PID.TID 0000.0001)  cg2d: iter=    87 ; resid.=  4.84687861073650E-09
(PID.TID 0000.0001)  cg2d: iter=    88 ; resid.=  4.24460515114841E-09
(PID.TID 0000.0001)  cg2d: iter=    89 ; resid.=  3.87735775887285E-09
(PID.TID 0000.0001)  cg2d: iter=    90 ; resid.=  3.28979631052907E-09
(PID.TID 0000.0001)  cg2d: iter=    91 ; resid.=  2.56472504372824E-09
(PID.TID 0000.0001)  cg2d: iter=    92 ; resid.=  1.93964393070115E-09
(PID.TID 0000.0001)  cg2d: iter=    93 ; resid.=  1.42226342928111E-09
(PID.TID 0000.0001)  cg2d: iter=    94 ; resid.=  1.15953386542355E-09
(PID.TID 0000.0001)  cg2d: iter=    95 ; resid.=  9.93137620916408E-10
(PID.TID 0000.0001)  cg2d: iter=    96 ; resid.=  9.03502106574067E-10
(PID.TID 0000.0001)  cg2d: iter=    97 ; resid.=  7.29202768145498E-10
(PID.TID 0000.0001)  cg2d: iter=    98 ; resid.=  6.03002022713547E-10
(PID.TID 0000.0001)  cg2d: iter=    99 ; resid.=  4.73316625938009E-10
(PID.TID 0000.0001)  cg2d: iter=   100 ; resid.=  4.08290509166292E-10
(PID.TID 0000.0001)  cg2d: iter=   101 ; resid.=  3.44539016748502E-10
(PID.TID 0000.0001)  cg2d: iter=   102 ; resid.=  2.54045909513064E-10
(PID.TID 0000.0001)  cg2d: iter=   103 ; resid.=  1.91238077233145E-10
(PID.TID 0000.0001)  cg2d: iter=   104 ; resid.=  1.41671462396355E-10
(PID.TID 0000.0001)  cg2d: iter=   105 ; resid.=  1.03670491474917E-10
(PID.TID 0000.0001)  cg2d: iter=   106 ; resid.=  7.89654416196103E-11
(PID.TID 0000.0001)  cg2d: iter=   107 ; resid.=  5.94819434793865E-11
(PID.TID 0000.0001)  cg2d: iter=   108 ; resid.=  4.63958108025817E-11
(PID.TID 0000.0001)  cg2d: iter=   109 ; resid.=  3.58995567806380E-11
(PID.TID 0000.0001)  cg2d: iter=   110 ; resid.=  2.81831876812009E-11
(PID.TID 0000.0001)  cg2d: iter=   111 ; resid.=  2.04255363230846E-11
(PID.TID 0000.0001)  cg2d: iter=   112 ; resid.=  1.56512878601289E-11
(PID.TID 0000.0001)  cg2d: iter=   113 ; resid.=  1.12709568428185E-11
(PID.TID 0000.0001)  cg2d: iter=   114 ; resid.=  8.55499587380678E-12
(PID.TID 0000.0001)  cg2d: iter=   115 ; resid.=  6.65491011354725E-12
(PID.TID 0000.0001)  cg2d: iter=   116 ; resid.=  5.03335479263969E-12
(PID.TID 0000.0001)  cg2d: iter=   117 ; resid.=  3.97460463229727E-12
(PID.TID 0000.0001)  cg2d: iter=   118 ; resid.=  2.98172289652340E-12
(PID.TID 0000.0001)  cg2d: iter=   119 ; resid.=  2.25243702205504E-12
(PID.TID 0000.0001)  cg2d: iter=   120 ; resid.=  1.73766376161054E-12
(PID.TID 0000.0001)  cg2d: iter=   121 ; resid.=  1.47454983218303E-12
(PID.TID 0000.0001)  cg2d: iter=   122 ; resid.=  1.26695857384276E-12
(PID.TID 0000.0001)  cg2d: iter=   123 ; resid.=  9.72200918545429E-13
(PID.TID 0000.0001)  cg2d: iter=   124 ; resid.=  6.80925310046525E-13
(PID.TID 0000.0001)  cg2d: iter=   125 ; resid.=  4.78505456597422E-13
(PID.TID 0000.0001)  cg2d: iter=   126 ; resid.=  3.29007409697251E-13
(PID.TID 0000.0001)  cg2d: iter=   127 ; resid.=  2.40265555250444E-13
(PID.TID 0000.0001)  cg2d: iter=   128 ; resid.=  1.70616239051003E-13
(PID.TID 0000.0001)  cg2d: iter=   129 ; resid.=  1.23255553599499E-13
(PID.TID 0000.0001)  cg2d: iter=   130 ; resid.=  1.00922960594024E-13
(PID.TID 0000.0001)  cg2d: iter=   131 ; resid.=  8.57715903827338E-14
DEBUG_STATS_RL:    cg2d_x (SOLVE_FOR_PRESSURE)  min= -1.84180175358751E+01
DEBUG_STATS_RL:    cg2d_x (SOLVE_FOR_PRESSURE)  max=  9.29975835509770E+00
DEBUG_STATS_RL:    cg2d_x (SOLVE_FOR_PRESSURE) mean= -1.86520847984900E+00
DEBUG_STATS_RL:    cg2d_x (SOLVE_FOR_PRESSURE) S.D.=  7.33040626893467E+00
(PID.TID 0000.0001)      cg2d_init_res =   2.60961916222310E-01
(PID.TID 0000.0001)      cg2d_iters(min,last) =      -1     131
(PID.TID 0000.0001)      cg2d_last_res =   8.57715903827338E-14
(PID.TID 0000.0001) // =======================================================
(PID.TID 0000.0001) // Begin MONITOR dynamic field statistics
(PID.TID 0000.0001) // =======================================================
(PID.TID 0000.0001) %MON time_tsnumber                =                    59
(PID.TID 0000.0001) %MON time_secondsf                =   5.0976000000000E+06
(PID.TID 0000.0001) %MON dynstat_eta_max              =   9.4798759990795E-01
(PID.TID 0000.0001) %MON dynstat_eta_min              =  -1.8774737549312E+00
(PID.TID 0000.0001) %MON dynstat_eta_mean             =  -4.4033075437347E-03
(PID.TID 0000.0001) %MON dynstat_eta_sd               =   6.5544955649628E-01
(PID.TID 0000.0001) %MON dynstat_eta_del2             =   2.3791428917676E-03
(PID.TID 0000.0001) %MON dynstat_uvel_max             =   1.4532987922889E-01
(PID.TID 0000.0001) %MON dynstat_uvel_min             =  -1.2430239255601E-01
(PID.TID 0000.0001) %MON dynstat_uvel_mean            =   2.2713971191989E-03
(PID.TID 0000.0001) %MON dynstat_uvel_sd              =   1.2640801840111E-02
(PID.TID 0000.0001) %MON dynstat_uvel_del2            =   7.7731731432613E-05
(PID.TID 0000.0001) %MON dynstat_vvel_max             =   1.3910568698424E-01
(PID.TID 0000.0001) %MON dynstat_vvel_min             =  -9.1309671200859E-02
(PID.TID 0000.0001) %MON dynstat_vvel_mean            =  -4.6123593768068E-05
(PID.TID 0000.0001) %MON dynstat_vvel_sd              =   8.2338607587666E-03
(PID.TID 0000.0001) %MON dynstat_vvel_del2            =   7.1180885232501E-05
(PID.TID 0000.0001) %MON dynstat_wvel_max             =   1.0493854077769E-04
(PID.TID 0000.0001) %MON dynstat_wvel_min             =  -6.7911128978194E-05
(PID.TID 0000.0001) %MON dynstat_wvel_mean            =   4.4927697697613E-23
(PID.TID 0000.0001) %MON dynstat_wvel_sd              =   1.1025819887087E-05
(PID.TID 0000.0001) %MON dynstat_wvel_del2            =   1.1713630033414E-07
(PID.TID 0000.0001) %MON dynstat_theta_max            =   2.9920194793608E+01
(PID.TID 0000.0001) %MON dynstat_theta_min            =  -1.9391733927028E+00
(PID.TID 0000.0001) %MON dynstat_theta_mean           =   3.6210933648599E+00
(PID.TID 0000.0001) %MON dynstat_theta_sd             =   4.4195163762276E+00
(PID.TID 0000.0001) %MON dynstat_theta_del2           =   4.7511737952329E-03
(PID.TID 0000.0001) %MON dynstat_salt_max             =   3.7458852443470E+01
(PID.TID 0000.0001) %MON dynstat_salt_min             =   2.9841726154929E+01
(PID.TID 0000.0001) %MON dynstat_salt_mean            =   3.4717311120455E+01
(PID.TID 0000.0001) %MON dynstat_salt_sd              =   2.9625821725047E-01
(PID.TID 0000.0001) %MON dynstat_salt_del2            =   9.6919310622980E-04
(PID.TID 0000.0001) %MON dynstat_sst_max              =   2.9920194793608E+01
(PID.TID 0000.0001) %MON dynstat_sst_min              =  -1.9391733927028E+00
(PID.TID 0000.0001) %MON dynstat_sst_mean             =   1.8796284876904E+01
(PID.TID 0000.0001) %MON dynstat_sst_sd               =   9.1507420832830E+00
(PID.TID 0000.0001) %MON dynstat_sst_del2             =   2.4787086257524E-02
(PID.TID 0000.0001) %MON dynstat_sss_max              =   3.7394251246182E+01
(PID.TID 0000.0001) %MON dynstat_sss_min              =   2.9841726154929E+01
(PID.TID 0000.0001) %MON dynstat_sss_mean             =   3.4840700815829E+01
(PID.TID 0000.0001) %MON dynstat_sss_sd               =   9.7748427912378E-01
(PID.TID 0000.0001) %MON dynstat_sss_del2             =   7.6491386205053E-03
(PID.TID 0000.0001) %MON forcing_qnet_max             =   3.2207626851400E+02
(PID.TID 0000.0001) %MON forcing_qnet_min             =  -1.6894333852132E+02
(PID.TID 0000.0001) %MON forcing_qnet_mean            =  -1.1061837483797E+01
(PID.TID 0000.0001) %MON forcing_qnet_sd              =   6.2224367755894E+01
(PID.TID 0000.0001) %MON forcing_qnet_del2            =   8.8801072466035E-01
(PID.TID 0000.0001) %MON forcing_qsw_max              =   0.0000000000000E+00
(PID.TID 0000.0001) %MON forcing_qsw_min              =   0.0000000000000E+00
(PID.TID 0000.0001) %MON forcing_qsw_mean             =   0.0000000000000E+00
(PID.TID 0000.0001) %MON forcing_qsw_sd               =   0.0000000000000E+00
(PID.TID 0000.0001) %MON forcing_qsw_del2             =   0.0000000000000E+00
(PID.TID 0000.0001) %MON forcing_empmr_max            =   6.9206679616703E-05
(PID.TID 0000.0001) %MON forcing_empmr_min            =  -7.6478364500569E-05
(PID.TID 0000.0001) %MON forcing_empmr_mean           =   7.7323987854276E-07
(PID.TID 0000.0001) %MON forcing_empmr_sd             =   2.6990094911657E-05
(PID.TID 0000.0001) %MON forcing_empmr_del2           =   3.5359407078538E-07
(PID.TID 0000.0001) %MON forcing_fu_max               =   3.2454732954502E-01
(PID.TID 0000.0001) %MON forcing_fu_min               =  -2.8573253403107E-01
(PID.TID 0000.0001) %MON forcing_fu_mean              =   1.8855336279595E-02
(PID.TID 0000.0001) %MON forcing_fu_sd                =   9.4747636482451E-02
(PID.TID 0000.0001) %MON forcing_fu_del2              =   7.0862449984251E-04
(PID.TID 0000.0001) %MON forcing_fv_max               =   1.5510848760605E-01
(PID.TID 0000.0001) %MON forcing_fv_min               =  -1.8036078512669E-01
(PID.TID 0000.0001) %MON forcing_fv_mean              =  -7.3522934905635E-03
(PID.TID 0000.0001) %MON forcing_fv_sd                =   4.2103479761575E-02
(PID.TID 0000.0001) %MON forcing_fv_del2              =   4.7196348005752E-04
(PID.TID 0000.0001) %MON trAdv_CFL_u_max              =   3.9646043835939E-02
(PID.TID 0000.0001) %MON trAdv_CFL_v_max              =   2.7122641123359E-02
(PID.TID 0000.0001) %MON trAdv_CFL_w_max              =   3.1215078910223E-02
(PID.TID 0000.0001) %MON advcfl_uvel_max              =   3.7994296340551E-02
(PID.TID 0000.0001) %MON advcfl_vvel_max              =   2.7026003994040E-02
(PID.TID 0000.0001) %MON advcfl_wvel_max              =   2.6921057772284E-02
(PID.TID 0000.0001) %MON advcfl_W_hf_max              =   3.2689855866345E-02
(PID.TID 0000.0001) %MON pe_b_mean                    =   5.4976786128055E-04
(PID.TID 0000.0001) %MON ke_max                       =   1.2951733124026E-02
(PID.TID 0000.0001) %MON ke_mean                      =   1.0537663894797E-04
(PID.TID 0000.0001) %MON ke_vol                       =   1.3226782436723E+18
(PID.TID 0000.0001) %MON vort_r_min                   =  -3.9972668697798E-07
(PID.TID 0000.0001) %MON vort_r_max                   =   3.7656514667718E-07
(PID.TID 0000.0001) %MON vort_a_mean                  =  -2.5274806751972E-05
(PID.TID 0000.0001) %MON vort_a_sd                    =   7.3604664033011E-05
(PID.TID 0000.0001) %MON vort_p_mean                  =  -3.1845654986184E-05
(PID.TID 0000.0001) %MON vort_p_sd                    =   1.3162518879114E-04
(PID.TID 0000.0001) %MON surfExpan_theta_mean         =   4.1007204553176E-07
(PID.TID 0000.0001) %MON surfExpan_salt_mean          =  -2.6635935577086E-08
(PID.TID 0000.0001) // =======================================================
(PID.TID 0000.0001) // End MONITOR dynamic field statistics
(PID.TID 0000.0001) // =======================================================
 EXTERNAL_FIELDS_LOAD,        59 : iP,iLd,i0,i1=    2    3    2    3 ; Wght=  0.5333333333  0.4666666667
 EXTERNAL_FIELDS_LOAD: (fu0,1),fu,fv= -1.4435E-02 -2.7199E-02 -2.0391E-02 -9.6754E-03
 EXTERNAL_FIELDS_LOAD: SST,SSS,Q,E-P= -3.6948E-01  3.4495E+01  2.2877E+02  8.7055E-06
DEBUG_STATS_RL:          Uvel (THERMODYNAMICS)  min= -1.24302392556015E-01
DEBUG_STATS_RL:          Uvel (THERMODYNAMICS)  max=  1.45329879228893E-01
DEBUG_STATS_RL:          Uvel (THERMODYNAMICS) mean=  5.29212048952241E-03
DEBUG_STATS_RL:          Uvel (THERMODYNAMICS) S.D.=  2.03053727290699E-02
DEBUG_STATS_RL:          Vvel (THERMODYNAMICS)  min= -9.13096712008589E-02
DEBUG_STATS_RL:          Vvel (THERMODYNAMICS)  max=  1.39105686984235E-01
DEBUG_STATS_RL:          Vvel (THERMODYNAMICS) mean=  9.79437859535815E-04
DEBUG_STATS_RL:          Vvel (THERMODYNAMICS) S.D.=  1.35838802076747E-02
DEBUG_STATS_RL:          Wvel (THERMODYNAMICS)  min= -6.79111289781944E-05
DEBUG_STATS_RL:          Wvel (THERMODYNAMICS)  max=  1.04938540777694E-04
DEBUG_STATS_RL:          Wvel (THERMODYNAMICS) mean= -4.79293570202826E-08
DEBUG_STATS_RL:          Wvel (THERMODYNAMICS) S.D.=  9.80688264659504E-06
DEBUG_STATS_RL:         Theta (THERMODYNAMICS)  min= -1.93781619484829E+00
DEBUG_STATS_RL:         Theta (THERMODYNAMICS)  max=  2.99267380438443E+01
DEBUG_STATS_RL:         Theta (THERMODYNAMICS) mean=  3.21093853160734E+00
DEBUG_STATS_RL:         Theta (THERMODYNAMICS) S.D.=  5.86567452111498E+00
DEBUG_STATS_RL:          Salt (THERMODYNAMICS)  min= -6.86350255588998E-04
DEBUG_STATS_RL:          Salt (THERMODYNAMICS)  max=  3.74590876142447E+01
DEBUG_STATS_RL:          Salt (THERMODYNAMICS) mean=  1.88441605145068E+01
DEBUG_STATS_RL:          Salt (THERMODYNAMICS) S.D.=  1.73003697098293E+01
DEBUG_STATS_RL:         GtNm1 (THERMODYNAMICS)  min= -2.32827062868611E-06
DEBUG_STATS_RL:         GtNm1 (THERMODYNAMICS)  max=  2.14968226094171E-06
DEBUG_STATS_RL:         GtNm1 (THERMODYNAMICS) mean= -5.08072858695132E-10
DEBUG_STATS_RL:         GtNm1 (THERMODYNAMICS) S.D.=  1.49963905559757E-07
DEBUG_STATS_RL:         GsNm1 (THERMODYNAMICS)  min= -4.00469166864767E-07
DEBUG_STATS_RL:         GsNm1 (THERMODYNAMICS)  max=  3.69026192974634E-07
DEBUG_STATS_RL:         GsNm1 (THERMODYNAMICS) mean= -4.19779303630841E-10
DEBUG_STATS_RL:         GsNm1 (THERMODYNAMICS) S.D.=  1.54954320029576E-08
DEBUG_STATS_RL:                EtaN (DYNAMICS)  min= -1.87747375493124E+00
DEBUG_STATS_RL:                EtaN (DYNAMICS)  max=  9.47987599907954E-01
DEBUG_STATS_RL:                EtaN (DYNAMICS) mean= -1.90133382247606E-01
DEBUG_STATS_RL:                EtaN (DYNAMICS) S.D.=  7.47238151777238E-01
DEBUG_STATS_RL:                Uvel (DYNAMICS)  min= -1.24302392556015E-01
DEBUG_STATS_RL:                Uvel (DYNAMICS)  max=  1.45329879228893E-01
DEBUG_STATS_RL:                Uvel (DYNAMICS) mean=  5.29212048952241E-03
DEBUG_STATS_RL:                Uvel (DYNAMICS) S.D.=  2.03053727290699E-02
DEBUG_STATS_RL:                Vvel (DYNAMICS)  min= -9.13096712008589E-02
DEBUG_STATS_RL:                Vvel (DYNAMICS)  max=  1.39105686984235E-01
DEBUG_STATS_RL:                Vvel (DYNAMICS) mean=  9.79437859535815E-04
DEBUG_STATS_RL:                Vvel (DYNAMICS) S.D.=  1.35838802076747E-02
DEBUG_STATS_RL:                Wvel (DYNAMICS)  min= -6.79111289781944E-05
DEBUG_STATS_RL:                Wvel (DYNAMICS)  max=  1.04938540777694E-04
DEBUG_STATS_RL:                Wvel (DYNAMICS) mean= -4.79293570202826E-08
DEBUG_STATS_RL:                Wvel (DYNAMICS) S.D.=  9.80688264659504E-06
DEBUG_STATS_RL:               Theta (DYNAMICS)  min= -1.93781619484829E+00
DEBUG_STATS_RL:               Theta (DYNAMICS)  max=  2.99267380438443E+01
DEBUG_STATS_RL:               Theta (DYNAMICS) mean=  3.21093853160734E+00
DEBUG_STATS_RL:               Theta (DYNAMICS) S.D.=  5.86567452111498E+00
DEBUG_STATS_RL:                Salt (DYNAMICS)  min= -6.86350255588998E-04
DEBUG_STATS_RL:                Salt (DYNAMICS)  max=  3.74590876142447E+01
DEBUG_STATS_RL:                Salt (DYNAMICS) mean=  1.88441605145068E+01
DEBUG_STATS_RL:                Salt (DYNAMICS) S.D.=  1.73003697098293E+01
DEBUG_STATS_RL:                  Gu (DYNAMICS)  min= -1.24260650909358E-01
DEBUG_STATS_RL:                  Gu (DYNAMICS)  max=  1.34364658419924E-01
DEBUG_STATS_RL:                  Gu (DYNAMICS) mean=  5.22464604971674E-03
DEBUG_STATS_RL:                  Gu (DYNAMICS) S.D.=  2.05159611387446E-02
DEBUG_STATS_RL:                  Gv (DYNAMICS)  min= -9.58494804421214E-02
DEBUG_STATS_RL:                  Gv (DYNAMICS)  max=  1.40595913742234E-01
DEBUG_STATS_RL:                  Gv (DYNAMICS) mean=  3.41910693243512E-03
DEBUG_STATS_RL:                  Gv (DYNAMICS) S.D.=  1.50591577845553E-02
DEBUG_STATS_RL:               GuNm1 (DYNAMICS)  min= -9.72078575073877E-06
DEBUG_STATS_RL:               GuNm1 (DYNAMICS)  max=  9.26544634782201E-06
DEBUG_STATS_RL:               GuNm1 (DYNAMICS) mean= -2.34679639676514E-09
DEBUG_STATS_RL:               GuNm1 (DYNAMICS) S.D.=  1.18546940641183E-06
DEBUG_STATS_RL:               GvNm1 (DYNAMICS)  min= -9.87094930696044E-06
DEBUG_STATS_RL:               GvNm1 (DYNAMICS)  max=  1.59103991642048E-05
DEBUG_STATS_RL:               GvNm1 (DYNAMICS) mean=  7.42467756021932E-07
DEBUG_STATS_RL:               GvNm1 (DYNAMICS) S.D.=  2.63074151075768E-06
DEBUG_STATS_RL:               GtNm1 (DYNAMICS)  min= -2.32827062868611E-06
DEBUG_STATS_RL:               GtNm1 (DYNAMICS)  max=  2.14968226094171E-06
DEBUG_STATS_RL:               GtNm1 (DYNAMICS) mean= -5.08072858695132E-10
DEBUG_STATS_RL:               GtNm1 (DYNAMICS) S.D.=  1.49963905559757E-07
DEBUG_STATS_RL:               GsNm1 (DYNAMICS)  min= -4.00469166864767E-07
DEBUG_STATS_RL:               GsNm1 (DYNAMICS)  max=  3.69026192974634E-07
DEBUG_STATS_RL:               GsNm1 (DYNAMICS) mean= -4.19779303630841E-10
DEBUG_STATS_RL:               GsNm1 (DYNAMICS) S.D.=  1.54954320029576E-08
DEBUG_STATS_RL:    cg2d_b (SOLVE_FOR_PRESSURE)  min= -1.96965046994106E+04
DEBUG_STATS_RL:    cg2d_b (SOLVE_FOR_PRESSURE)  max=  2.51759559892066E+04
DEBUG_STATS_RL:    cg2d_b (SOLVE_FOR_PRESSURE) mean=  4.28106791975358E+00
DEBUG_STATS_RL:    cg2d_b (SOLVE_FOR_PRESSURE) S.D.=  3.87250223802530E+03
 cg2d: Sum(rhs),rhsMax =   3.93656242427532E-01  1.65362419612297E+00
(PID.TID 0000.0001)  cg2d: iter=     1 ; resid.=  7.18424680422899E-02
(PID.TID 0000.0001)  cg2d: iter=     2 ; resid.=  5.17281327980417E-02
(PID.TID 0000.0001)  cg2d: iter=     3 ; resid.=  5.10405772156239E-02
(PID.TID 0000.0001)  cg2d: iter=     4 ; resid.=  4.96457550482236E-02
(PID.TID 0000.0001)  cg2d: iter=     5 ; resid.=  4.82605331062886E-02
(PID.TID 0000.0001)  cg2d: iter=     6 ; resid.=  3.64402859418471E-02
(PID.TID 0000.0001)  cg2d: iter=     7 ; resid.=  2.96145841145356E-02
(PID.TID 0000.0001)  cg2d: iter=     8 ; resid.=  2.67643543483508E-02
(PID.TID 0000.0001)  cg2d: iter=     9 ; resid.=  2.28542403633001E-02
(PID.TID 0000.0001)  cg2d: iter=    10 ; resid.=  1.84973792579186E-02
(PID.TID 0000.0001)  cg2d: iter=    11 ; resid.=  1.47758456654636E-02
(PID.TID 0000.0001)  cg2d: iter=    12 ; resid.=  1.14531639027078E-02
(PID.TID 0000.0001)  cg2d: iter=    13 ; resid.=  7.94771605041644E-03
(PID.TID 0000.0001)  cg2d: iter=    14 ; resid.=  6.85443764267060E-03
(PID.TID 0000.0001)  cg2d: iter=    15 ; resid.=  6.17252132010224E-03
(PID.TID 0000.0001)  cg2d: iter=    16 ; resid.=  5.07036049450164E-03
(PID.TID 0000.0001)  cg2d: iter=    17 ; resid.=  4.57048736683605E-03
(PID.TID 0000.0001)  cg2d: iter=    18 ; resid.=  4.36379486651599E-03
(PID.TID 0000.0001)  cg2d: iter=    19 ; resid.=  3.26067809475549E-03
(PID.TID 0000.0001)  cg2d: iter=    20 ; resid.=  2.39634303353321E-03
(PID.TID 0000.0001)  cg2d: iter=    21 ; resid.=  1.96020459083072E-03
(PID.TID 0000.0001)  cg2d: iter=    22 ; resid.=  1.62149712557914E-03
(PID.TID 0000.0001)  cg2d: iter=    23 ; resid.=  1.37902968080933E-03
(PID.TID 0000.0001)  cg2d: iter=    24 ; resid.=  1.29504734730646E-03
(PID.TID 0000.0001)  cg2d: iter=    25 ; resid.=  1.08651819022692E-03
(PID.TID 0000.0001)  cg2d: iter=    26 ; resid.=  8.58893984777979E-04
(PID.TID 0000.0001)  cg2d: iter=    27 ; resid.=  7.52225691563655E-04
(PID.TID 0000.0001)  cg2d: iter=    28 ; resid.=  6.20055258539933E-04
(PID.TID 0000.0001)  cg2d: iter=    29 ; resid.=  4.54847759146649E-04
(PID.TID 0000.0001)  cg2d: iter=    30 ; resid.=  3.74711677860156E-04
(PID.TID 0000.0001)  cg2d: iter=    31 ; resid.=  3.39919600667491E-04
(PID.TID 0000.0001)  cg2d: iter=    32 ; resid.=  2.60869981939638E-04
(PID.TID 0000.0001)  cg2d: iter=    33 ; resid.=  2.14540553198583E-04
(PID.TID 0000.0001)  cg2d: iter=    34 ; resid.=  1.80594694078257E-04
(PID.TID 0000.0001)  cg2d: iter=    35 ; resid.=  1.38907409989685E-04
(PID.TID 0000.0001)  cg2d: iter=    36 ; resid.=  1.14491511159784E-04
(PID.TID 0000.0001)  cg2d: iter=    37 ; resid.=  9.89524219242069E-05
(PID.TID 0000.0001)  cg2d: iter=    38 ; resid.=  9.37460024438238E-05
(PID.TID 0000.0001)  cg2d: iter=    39 ; resid.=  8.67748502814390E-05
(PID.TID 0000.0001)  cg2d: iter=    40 ; resid.=  7.82696730077203E-05
(PID.TID 0000.0001)  cg2d: iter=    41 ; resid.=  6.26101540225127E-05
(PID.TID 0000.0001)  cg2d: iter=    42 ; resid.=  5.04803138033858E-05
(PID.TID 0000.0001)  cg2d: iter=    43 ; resid.=  4.29736407146641E-05
(PID.TID 0000.0001)  cg2d: iter=    44 ; resid.=  3.36653829792076E-05
(PID.TID 0000.0001)  cg2d: iter=    45 ; resid.=  2.65170399433163E-05
(PID.TID 0000.0001)  cg2d: iter=    46 ; resid.=  2.26450492502202E-05
(PID.TID 0000.0001)  cg2d: iter=    47 ; resid.=  1.91850249183990E-05
(PID.TID 0000.0001)  cg2d: iter=    48 ; resid.=  1.59981093233988E-05
(PID.TID 0000.0001)  cg2d: iter=    49 ; resid.=  1.37320928948471E-05
(PID.TID 0000.0001)  cg2d: iter=    50 ; resid.=  1.14646887617139E-05
(PID.TID 0000.0001)  cg2d: iter=    51 ; resid.=  9.99087204219885E-06
(PID.TID 0000.0001)  cg2d: iter=    52 ; resid.=  8.28722210300455E-06
(PID.TID 0000.0001)  cg2d: iter=    53 ; resid.=  7.11650054629726E-06
(PID.TID 0000.0001)  cg2d: iter=    54 ; resid.=  5.90314425993481E-06
(PID.TID 0000.0001)  cg2d: iter=    55 ; resid.=  4.79810153163599E-06
(PID.TID 0000.0001)  cg2d: iter=    56 ; resid.=  4.21758004164455E-06
(PID.TID 0000.0001)  cg2d: iter=    57 ; resid.=  3.56422590122713E-06
(PID.TID 0000.0001)  cg2d: iter=    58 ; resid.=  2.76108595942835E-06
(PID.TID 0000.0001)  cg2d: iter=    59 ; resid.=  2.13792782942620E-06
(PID.TID 0000.0001)  cg2d: iter=    60 ; resid.=  1.57085849741476E-06
(PID.TID 0000.0001)  cg2d: iter=    61 ; resid.=  1.24301239256539E-06
(PID.TID 0000.0001)  cg2d: iter=    62 ; resid.=  1.07069244997268E-06
(PID.TID 0000.0001)  cg2d: iter=    63 ; resid.=  9.16446966657725E-07
(PID.TID 0000.0001)  cg2d: iter=    64 ; resid.=  8.37944376432638E-07
(PID.TID 0000.0001)  cg2d: iter=    65 ; resid.=  7.09450067321508E-07
(PID.TID 0000.0001)  cg2d: iter=    66 ; resid.=  5.82061773105900E-07
(PID.TID 0000.0001)  cg2d: iter=    67 ; resid.=  4.36465523327826E-07
(PID.TID 0000.0001)  cg2d: iter=    68 ; resid.=  3.42395345280305E-07
(PID.TID 0000.0001)  cg2d: iter=    69 ; resid.=  3.07625210844514E-07
(PID.TID 0000.0001)  cg2d: iter=    70 ; resid.=  2.70116188434892E-07
(PID.TID 0000.0001)  cg2d: iter=    71 ; resid.=  2.57489286297524E-07
(PID.TID 0000.0001)  cg2d: iter=    72 ; resid.=  2.22801865100767E-07
(PID.TID 0000.0001)  cg2d: iter=    73 ; resid.=  1.87411255862927E-07
(PID.TID 0000.0001)  cg2d: iter=    74 ; resid.=  1.51739191223785E-07
(PID.TID 0000.0001)  cg2d: iter=    75 ; resid.=  1.12949767518622E-07
(PID.TID 0000.0001)  cg2d: iter=    76 ; resid.=  9.27493060240072E-08
(PID.TID 0000.0001)  cg2d: iter=    77 ; resid.=  7.03416645936307E-08
(PID.TID 0000.0001)  cg2d: iter=    78 ; resid.=  5.46068158457558E-08
(PID.TID 0000.0001)  cg2d: iter=    79 ; resid.=  4.54334740133079E-08
(PID.TID 0000.0001)  cg2d: iter=    80 ; resid.=  3.69463098093098E-08
(PID.TID 0000.0001)  cg2d: iter=    81 ; resid.=  2.64260568799500E-08
(PID.TID 0000.0001)  cg2d: iter=    82 ; resid.=  1.81764792425407E-08
(PID.TID 0000.0001)  cg2d: iter=    83 ; resid.=  1.41082927355363E-08
(PID.TID 0000.0001)  cg2d: iter=    84 ; resid.=  1.13874148192216E-08
(PID.TID 0000.0001)  cg2d: iter=    85 ; resid.=  7.82330486584092E-09
(PID.TID 0000.0001)  cg2d: iter=    86 ; resid.=  5.97201443697243E-09
(PID.TID 0000.0001)  cg2d: iter=    87 ; resid.=  4.53106925466720E-09
(PID.TID 0000.0001)  cg2d: iter=    88 ; resid.=  3.90738880060629E-09
(PID.TID 0000.0001)  cg2d: iter=    89 ; resid.=  3.56504417157197E-09
(PID.TID 0000.0001)  cg2d: iter=    90 ; resid.=  3.16092969597673E-09
(PID.TID 0000.0001)  cg2d: iter=    91 ; resid.=  2.50721216540818E-09
(PID.TID 0000.0001)  cg2d: iter=    92 ; resid.=  1.89355156057157E-09
(PID.TID 0000.0001)  cg2d: iter=    93 ; resid.=  1.38522492233880E-09
(PID.TID 0000.0001)  cg2d: iter=    94 ; resid.=  1.12258397258695E-09
(PID.TID 0000.0001)  cg2d: iter=    95 ; resid.=  9.53931860258057E-10
(PID.TID 0000.0001)  cg2d: iter=    96 ; resid.=  8.80982522382845E-10
(PID.TID 0000.0001)  cg2d: iter=    97 ; resid.=  6.95338890332585E-10
(PID.TID 0000.0001)  cg2d: iter=    98 ; resid.=  5.64758138463249E-10
(PID.TID 0000.0001)  cg2d: iter=    99 ; resid.=  4.43924969646844E-10
(PID.TID 0000.0001)  cg2d: iter=   100 ; resid.=  3.80775330218376E-10
(PID.TID 0000.0001)  cg2d: iter=   101 ; resid.=  3.33999666703382E-10
(PID.TID 0000.0001)  cg2d: iter=   102 ; resid.=  2.52420505168903E-10
(PID.TID 0000.0001)  cg2d: iter=   103 ; resid.=  1.88313503199102E-10
(PID.TID 0000.0001)  cg2d: iter=   104 ; resid.=  1.33933509429677E-10
(PID.TID 0000.0001)  cg2d: iter=   105 ; resid.=  9.59054033875233E-11
(PID.TID 0000.0001)  cg2d: iter=   106 ; resid.=  7.07834520072652E-11
(PID.TID 0000.0001)  cg2d: iter=   107 ; resid.=  5.07712766354839E-11
(PID.TID 0000.0001)  cg2d: iter=   108 ; resid.=  3.85102790242339E-11
(PID.TID 0000.0001)  cg2d: iter=   109 ; resid.=  2.96546185908141E-11
(PID.TID 0000.0001)  cg2d: iter=   110 ; resid.=  2.35168714504429E-11
(PID.TID 0000.0001)  cg2d: iter=   111 ; resid.=  1.74697455434987E-11
(PID.TID 0000.0001)  cg2d: iter=   112 ; resid.=  1.35061132354718E-11
(PID.TID 0000.0001)  cg2d: iter=   113 ; resid.=  9.63099313735287E-12
(PID.TID 0000.0001)  cg2d: iter=   114 ; resid.=  7.18948503055357E-12
(PID.TID 0000.0001)  cg2d: iter=   115 ; resid.=  5.43501201877472E-12
(PID.TID 0000.0001)  cg2d: iter=   116 ; resid.=  3.96244734155620E-12
(PID.TID 0000.0001)  cg2d: iter=   117 ; resid.=  2.98806238962274E-12
(PID.TID 0000.0001)  cg2d: iter=   118 ; resid.=  2.13522873911760E-12
(PID.TID 0000.0001)  cg2d: iter=   119 ; resid.=  1.58351892282908E-12
(PID.TID 0000.0001)  cg2d: iter=   120 ; resid.=  1.17814749031816E-12
(PID.TID 0000.0001)  cg2d: iter=   121 ; resid.=  9.60708015540737E-13
(PID.TID 0000.0001)  cg2d: iter=   122 ; resid.=  8.28862277538215E-13
(PID.TID 0000.0001)  cg2d: iter=   123 ; resid.=  6.77355597161705E-13
(PID.TID 0000.0001)  cg2d: iter=   124 ; resid.=  5.04065376937498E-13
(PID.TID 0000.0001)  cg2d: iter=   125 ; resid.=  3.63425994123678E-13
(PID.TID 0000.0001)  cg2d: iter=   126 ; resid.=  2.49197383746906E-13
(PID.TID 0000.0001)  cg2d: iter=   127 ; resid.=  1.81541585949210E-13
(PID.TID 0000.0001)  cg2d: iter=   128 ; resid.=  1.27620274313268E-13
(PID.TID 0000.0001)  cg2d: iter=   129 ; resid.=  8.84441764207138E-14
DEBUG_STATS_RL:    cg2d_x (SOLVE_FOR_PRESSURE)  min= -1.83482923126512E+01
DEBUG_STATS_RL:    cg2d_x (SOLVE_FOR_PRESSURE)  max=  9.45559190347840E+00
DEBUG_STATS_RL:    cg2d_x (SOLVE_FOR_PRESSURE) mean= -1.88218501799523E+00
DEBUG_STATS_RL:    cg2d_x (SOLVE_FOR_PRESSURE) S.D.=  7.38935988781896E+00
(PID.TID 0000.0001)      cg2d_init_res =   2.58358173975334E-01
(PID.TID 0000.0001)      cg2d_iters(min,last) =      -1     129
(PID.TID 0000.0001)      cg2d_last_res =   8.84441764207138E-14
(PID.TID 0000.0001) // =======================================================
(PID.TID 0000.0001) // Begin MONITOR dynamic field statistics
(PID.TID 0000.0001) // =======================================================
(PID.TID 0000.0001) %MON time_tsnumber                =                    60
(PID.TID 0000.0001) %MON time_secondsf                =   5.1840000000000E+06
(PID.TID 0000.0001) %MON dynstat_eta_max              =   9.6387277303547E-01
(PID.TID 0000.0001) %MON dynstat_eta_min              =  -1.8703661888535E+00
(PID.TID 0000.0001) %MON dynstat_eta_mean             =  -4.4667635393656E-03
(PID.TID 0000.0001) %MON dynstat_eta_sd               =   6.6117794240319E-01
(PID.TID 0000.0001) %MON dynstat_eta_del2             =   2.3870169496570E-03
(PID.TID 0000.0001) %MON dynstat_uvel_max             =   1.3880982479676E-01
(PID.TID 0000.0001) %MON dynstat_uvel_min             =  -1.2446326528825E-01
(PID.TID 0000.0001) %MON dynstat_uvel_mean            =   2.2600525955761E-03
(PID.TID 0000.0001) %MON dynstat_uvel_sd              =   1.2541916270166E-02
(PID.TID 0000.0001) %MON dynstat_uvel_del2            =   7.7368206085166E-05
(PID.TID 0000.0001) %MON dynstat_vvel_max             =   1.3773876124595E-01
(PID.TID 0000.0001) %MON dynstat_vvel_min             =  -9.0883521708149E-02
(PID.TID 0000.0001) %MON dynstat_vvel_mean            =  -3.6280416918355E-05
(PID.TID 0000.0001) %MON dynstat_vvel_sd              =   8.2343577174084E-03
(PID.TID 0000.0001) %MON dynstat_vvel_del2            =   7.1266829881650E-05
(PID.TID 0000.0001) %MON dynstat_wvel_max             =   1.0340865051385E-04
(PID.TID 0000.0001) %MON dynstat_wvel_min             =  -6.6449852945389E-05
(PID.TID 0000.0001) %MON dynstat_wvel_mean            =  -1.6018573518607E-23
(PID.TID 0000.0001) %MON dynstat_wvel_sd              =   1.0960579713506E-05
(PID.TID 0000.0001) %MON dynstat_wvel_del2            =   1.1595458476727E-07
(PID.TID 0000.0001) %MON dynstat_theta_max            =   2.9926738043844E+01
(PID.TID 0000.0001) %MON dynstat_theta_min            =  -1.9378161948483E+00
(PID.TID 0000.0001) %MON dynstat_theta_mean           =   3.6211217712971E+00
(PID.TID 0000.0001) %MON dynstat_theta_sd             =   4.4196531087787E+00
(PID.TID 0000.0001) %MON dynstat_theta_del2           =   4.7545584792004E-03
(PID.TID 0000.0001) %MON dynstat_salt_max             =   3.7459087614245E+01
(PID.TID 0000.0001) %MON dynstat_salt_min             =   2.9841707907603E+01
(PID.TID 0000.0001) %MON dynstat_salt_mean            =   3.4717313027536E+01
(PID.TID 0000.0001) %MON dynstat_salt_sd              =   2.9626171201132E-01
(PID.TID 0000.0001) %MON dynstat_salt_del2            =   9.6904569657847E-04
(PID.TID 0000.0001) %MON dynstat_sst_max              =   2.9926738043844E+01
(PID.TID 0000.0001) %MON dynstat_sst_min              =  -1.9378161948483E+00
(PID.TID 0000.0001) %MON dynstat_sst_mean             =   1.8798013268815E+01
(PID.TID 0000.0001) %MON dynstat_sst_sd               =   9.1566860586008E+00
(PID.TID 0000.0001) %MON dynstat_sst_del2             =   2.4748927138581E-02
(PID.TID 0000.0001) %MON dynstat_sss_max              =   3.7394238652727E+01
(PID.TID 0000.0001) %MON dynstat_sss_min              =   2.9841707907603E+01
(PID.TID 0000.0001) %MON dynstat_sss_mean             =   3.4840414952686E+01
(PID.TID 0000.0001) %MON dynstat_sss_sd               =   9.7774905082774E-01
(PID.TID 0000.0001) %MON dynstat_sss_del2             =   7.6494707695038E-03
(PID.TID 0000.0001) %MON forcing_qnet_max             =   3.1927811686198E+02
(PID.TID 0000.0001) %MON forcing_qnet_min             =  -1.6864405924479E+02
(PID.TID 0000.0001) %MON forcing_qnet_mean            =  -1.0838497984171E+01
(PID.TID 0000.0001) %MON forcing_qnet_sd              =   6.1023027857854E+01
(PID.TID 0000.0001) %MON forcing_qnet_del2            =   8.8444669970173E-01
(PID.TID 0000.0001) %MON forcing_qsw_max              =   0.0000000000000E+00
(PID.TID 0000.0001) %MON forcing_qsw_min              =   0.0000000000000E+00
(PID.TID 0000.0001) %MON forcing_qsw_mean             =   0.0000000000000E+00
(PID.TID 0000.0001) %MON forcing_qsw_sd               =   0.0000000000000E+00
(PID.TID 0000.0001) %MON forcing_qsw_del2             =   0.0000000000000E+00
(PID.TID 0000.0001) %MON forcing_empmr_max            =   6.9200923273153E-05
(PID.TID 0000.0001) %MON forcing_empmr_min            =  -7.6877544093653E-05
(PID.TID 0000.0001) %MON forcing_empmr_mean           =   7.6014994766839E-07
(PID.TID 0000.0001) %MON forcing_empmr_sd             =   2.6929596826470E-05
(PID.TID 0000.0001) %MON forcing_empmr_del2           =   3.5385255820596E-07
(PID.TID 0000.0001) %MON forcing_fu_max               =   3.2648874521255E-01
(PID.TID 0000.0001) %MON forcing_fu_min               =  -2.9111716349920E-01
(PID.TID 0000.0001) %MON forcing_fu_mean              =   1.8949535869053E-02
(PID.TID 0000.0001) %MON forcing_fu_sd                =   9.5028365431322E-02
(PID.TID 0000.0001) %MON forcing_fu_del2              =   7.1121052638075E-04
(PID.TID 0000.0001) %MON forcing_fv_max               =   1.5403114557266E-01
(PID.TID 0000.0001) %MON forcing_fv_min               =  -1.7887474894524E-01
(PID.TID 0000.0001) %MON forcing_fv_mean              =  -7.3627218405330E-03
(PID.TID 0000.0001) %MON forcing_fv_sd                =   4.1994212761373E-02
(PID.TID 0000.0001) %MON forcing_fv_del2              =   4.6991047524395E-04
(PID.TID 0000.0001) %MON trAdv_CFL_u_max              =   3.8002013253877E-02
(PID.TID 0000.0001) %MON trAdv_CFL_v_max              =   2.6848681995431E-02
(PID.TID 0000.0001) %MON trAdv_CFL_w_max              =   3.1745608884558E-02
(PID.TID 0000.0001) %MON advcfl_uvel_max              =   3.6289726835882E-02
(PID.TID 0000.0001) %MON advcfl_vvel_max              =   2.6760432245944E-02
(PID.TID 0000.0001) %MON advcfl_wvel_max              =   2.6701682085130E-02
(PID.TID 0000.0001) %MON advcfl_W_hf_max              =   3.2042018502156E-02
(PID.TID 0000.0001) %MON pe_b_mean                    =   5.5941967205223E-04
(PID.TID 0000.0001) %MON ke_max                       =   1.2274705059784E-02
(PID.TID 0000.0001) %MON ke_mean                      =   1.0422525501131E-04
(PID.TID 0000.0001) %MON ke_vol                       =   1.3226782436723E+18
(PID.TID 0000.0001) %MON vort_r_min                   =  -3.8668744811723E-07
(PID.TID 0000.0001) %MON vort_r_max                   =   3.8127412554783E-07
(PID.TID 0000.0001) %MON vort_a_mean                  =  -2.5274806794975E-05
(PID.TID 0000.0001) %MON vort_a_sd                    =   7.3604658902110E-05
(PID.TID 0000.0001) %MON vort_p_mean                  =  -3.1845655040367E-05
(PID.TID 0000.0001) %MON vort_p_sd                    =   1.3162520726587E-04
(PID.TID 0000.0001) %MON surfExpan_theta_mean         =   3.5714412017607E-07
(PID.TID 0000.0001) %MON surfExpan_salt_mean          =  -1.5140451750429E-08
(PID.TID 0000.0001) // =======================================================
(PID.TID 0000.0001) // End MONITOR dynamic field statistics
(PID.TID 0000.0001) // =======================================================
(PID.TID 0000.0001) // =======================================================
(PID.TID 0000.0001) // Field Current uVel   at iteration         60
(PID.TID 0000.0001) // CMIN =         -1.244632652882536E-01
(PID.TID 0000.0001) // CMAX =          1.388098247967648E-01
(PID.TID 0000.0001) // CINT =          9.750855188334014E-03
(PID.TID 0000.0001) // SYMBOLS (CMIN->CMAX): -abcdefghijklmnopqrstuvwxyz+
(PID.TID 0000.0001) //                  0.0: .
(PID.TID 0000.0001) // RANGE I (Lo:Hi:Step):(     1:    90:     1)
(PID.TID 0000.0001) // RANGE J (Lo:Hi:Step):(    40:     1:    -1)
(PID.TID 0000.0001) // RANGE K (Lo:Hi:Step):(   1:   1:   1)
(PID.TID 0000.0001) // =======================================================
(PID.TID 0000.0001) K =   1
(PID.TID 0000.0001)                I=10      I=20      I=30      I=40      I=50      I=60      I=70      I=80      I=90
(PID.TID 0000.0001) |--J--|123456789|123456789|123456789|123456789|123456789|123456789|123456789|123456789|123456789|
(PID.TID 0000.0001)     40 lmmll..mmmllllllllm...................................................................llll
(PID.TID 0000.0001)     39 mnnmllkkllllmm....m......................................................mmm.........kkkkl
(PID.TID 0000.0001)     38 mnonnmmmmmmmm............................................................mmmm.......kjjklm
(PID.TID 0000.0001)     37 noo...................................................................m....kl....kkjk..lmn
(PID.TID 0000.0001)     36 po..........................................kll.....................mmnnnnnkjk..kjklllmmno
(PID.TID 0000.0001)     35 on..................................lll...mlkkkm....llll............mm.....mlllkkmnnnooqpo
(PID.TID 0000.0001)     34 ....................................lll..llmllmm..nllllll...................nnlmnnooppoo..
(PID.TID 0000.0001)     33 .....................................lllkkmnnnnnnnnooonmmmm..................mmnppppooomm.
(PID.TID 0000.0001)     32 .....................................kkkklmnoppppoppqqpponn.................onopqpppnmmmn.
(PID.TID 0000.0001)     31 .....................................mmnoppqqqrrrrrssssrqpo...............otussssrqpnmlm..
(PID.TID 0000.0001)     30 ....................................rtttuuvuuttuuuuuvvutrqo.............osuvuuuttsrponmm..
(PID.TID 0000.0001)     29 ..................................quwwwxxxyxxwvutttuuutsqpon............tuvusrqppponmlll..
(PID.TID 0000.0001)     28 ................................oqtttsstuttttsrqpppqqqponnnnn..........rsqponnmmmmlkkkkl..
(PID.TID 0000.0001)     27 ...............m...............nqpoonmmnnnnnnnmmllmmnnnmmmmmmm....mmm..opnmmmmmllkkkkk....
(PID.TID 0000.0001)     26 ...............nn............kknponmlkkllkllllllklmmmnnnmmmmmmmm..mmmlnoonmmnnnnmmmmml....
(PID.TID 0000.0001)     25 ...............non....nm....mmmorqonlkkllkkllmmlllmnnnnnnnnmmmmmm....llmnmnnnnoonnmmll....
(PID.TID 0000.0001)     24 .............nmllln..nmk....mn..mljihihjjjjiijjjklmmlkkkkjkkkllllklm..ljkijklllllljjkm....
(PID.TID 0000.0001)     23 .............gfggik..jhh....jm...fedbcbdeedcdeggijjjjjkjikkjiiihhhijl.....jihghhhhhhjo....
(PID.TID 0000.0001)     22 l............a--abddccdf....l..fadedabbcddcbcdfhhjiillnoonmlkjjijiiijj.......jheddhikopqol
(PID.TID 0000.0001)     21 mmm.........fdcba-bcdfjlo......hgmmiffffgghgghiiiiigjklmmlkkklmmmlkihj.........hdcgklnonnn
(PID.TID 0000.0001)     20 lln........jijkjighhilonm.........nmlkhijlmllllkjjhfihhhhhgghjkjkjjhgi..........hcfhijkjik
(PID.TID 0000.0001)     19 knn........ihjkkmmljjklljlm....no......mmoqpoponmmljjhgggfddddddfgfedg............hffghhgh
(PID.TID 0000.0001)     18 imn........hfffdfjkkjhijjkmmllnmn....opqnqrrqqponoonmkiiihgedcccefeddej...........khghhhgg
(PID.TID 0000.0001)     17 hjk..........iighiklnmklmnmmmmm......oppopppppppooonnmlkkkjihggfghhhgfg..........omkjigggg
(PID.TID 0000.0001)     16 jjk.......n..lkkjillnqmkmnonmm........mmmnnnnnooonmmmmmllllkkjjjklkkkjjk.........nmkjiiijj
(PID.TID 0000.0001)     15 kkkk.....nm..mlllkkkmmlkkmono..........lkllllmnnnnmmmmlllkkkkjklllkklkkll.......llkkkjjjjk
(PID.TID 0000.0001)     14 jjii.....kjjlmnmmmnnnlkjklllm..........mkklllmnnnnnoonmmmmmmkklmlkkklkkkl......mmmllllkjjj
(PID.TID 0000.0001)     13 lkih.....mlkmnnnmmopnmklmlkij..........ooooopppoopppppppqqqqppoonmmnmmlkl.....looooooonnmm
(PID.TID 0000.0001)     12 qomkjkilnrrqqqpooooppooppomlkllmll.....pqqqppqpppqqpppppqrrssrqpoopponmk......oqrrrrssssrq
(PID.TID 0000.0001)     11 sqpppnortwwwwwutsrssrrrrrpooooooomm...opppo..pqpoooooooooopqqqqppopppoml.....nqstuuuuuutss
(PID.TID 0000.0001)     10 srqqrsuvwyz++zxwvvvvtssssrqqpppponml..ooonn..qqommmnnnnmmlmnnooooonooonm...oooqrstuuuuttts
(PID.TID 0000.0001)      9 srrrstuuvxyxvvvussttssssssrrqqqppponnoonnn..pqonnmmnmmmmmmlmmnnnnnnmnnnm..ooopqqrrsssssttt
(PID.TID 0000.0001)      8 sstttsrrstttssrqqqpqssssssttsrrsssttttsrqqqrqpoppqqqppoopppoooooooonoooo..mmmopqppqqqqrsss
(PID.TID 0000.0001)      7 sstsrqpqqqqrrqqqrqppqrqrrrrrrrsstuvwwvvvuuuusrrrstttuutssrrqqqqqrqqqqqrutqooprqqoopppppqqr
(PID.TID 0000.0001)      6 pppoooppppppppppqqqpooopppqqqrsssttttstuvwwvuttuuuuuuvuutsrrrrssssttttuvvvvvvutrqppooooppp
(PID.TID 0000.0001)      5 mllmmnnooonnnnnnooponnnnnnnooppppppppqrstuvvuutuutttsrrrrrrsssssstttttuuutsstsqpooonnnnnnm
(PID.TID 0000.0001)      4 kkjkkllmmmllllllmmmmmlllkkkllmmmmmnnnnnnoppqqqqqqppponnnopqqqqqqqqqqqqqpon...mnnmmmmmmmllk
(PID.TID 0000.0001)      3 kkjkkkkkll.............................lllmlmmnnmmllllllmmnnnnnnnnnnmmmmm...mllllllllllkkk
(PID.TID 0000.0001)      2 ...........................................llmmmmlllllllllllllll...lll......mmmmmllllmm...
(PID.TID 0000.0001)      1 ..........................................................................................
(PID.TID 0000.0001) // =======================================================
(PID.TID 0000.0001) // END OF FIELD                                          =
(PID.TID 0000.0001) // =======================================================
(PID.TID 0000.0001) 
(PID.TID 0000.0001) // =======================================================
(PID.TID 0000.0001) // Field Current vVel   at iteration         60
(PID.TID 0000.0001) // CMIN =         -9.088352170814867E-02
(PID.TID 0000.0001) // CMAX =          1.377387612459458E-01
(PID.TID 0000.0001) // CINT =          8.467491961262759E-03
(PID.TID 0000.0001) // SYMBOLS (CMIN->CMAX): -abcdefghijklmnopqrstuvwxyz+
(PID.TID 0000.0001) //                  0.0: .
(PID.TID 0000.0001) // RANGE I (Lo:Hi:Step):(     1:    90:     1)
(PID.TID 0000.0001) // RANGE J (Lo:Hi:Step):(    40:     1:    -1)
(PID.TID 0000.0001) // RANGE K (Lo:Hi:Step):(   1:   1:   1)
(PID.TID 0000.0001) // =======================================================
(PID.TID 0000.0001) K =   1
(PID.TID 0000.0001)                I=10      I=20      I=30      I=40      I=50      I=60      I=70      I=80      I=90
(PID.TID 0000.0001) |--J--|123456789|123456789|123456789|123456789|123456789|123456789|123456789|123456789|123456789|
(PID.TID 0000.0001)     40 jknon.kjjjjjjk...kk..................................................................jiiii
(PID.TID 0000.0001)     39 kllnmlkjjjjkl...........................................................kjjk........ijjjjj
(PID.TID 0000.0001)     38 kmm.......................................................................jij......ig.mljj
(PID.TID 0000.0001)     37 mn...................................................................kj...iii...gjmlk.kljj
(PID.TID 0000.0001)     36 mm.........................................lmml....................kjk....gfhj.fejlllkkllj
(PID.TID 0000.0001)     35 ...................................jkkk..lllmmlk...iilmm...................fhiihijkkkkno..
(PID.TID 0000.0001)     34 ....................................jkk.kkkkllll.jijjkkll...................hfhhijkkkjkl..
(PID.TID 0000.0001)     33 ....................................jjjkkkkjklkjjihhhhiiikk.................ldfhhhhhhggjk.
(PID.TID 0000.0001)     32 ....................................jihhhhhhhhgfgfeeefffghj................nkdeffeefffgi..
(PID.TID 0000.0001)     31 ....................................jgeddddddeddddcdeeefffi..............ihgecdddddefghi..
(PID.TID 0000.0001)     30 ...................................kiebabbaacdddddefgghhgeg............mkhgfeeeefeefghij..
(PID.TID 0000.0001)     29 .................................mllifddefeefghhhhhjkkjjigfg...........nljiiiiihggghhijk..
(PID.TID 0000.0001)     28 ...............................mnnmmkjiiklkkklkklllmmmlkjihgh.........lnmmmmlkjjjiiihi....
(PID.TID 0000.0001)     27 ..............kk..............mlllmnnmmmnnmlllklllllllkkkkjjii...kkln.mmmmllkkjjjjjiij....
(PID.TID 0000.0001)     26 ..............lll...........jkmmlnonnmmmmlllllllllkkllmmmnmmmlkk....onmnmmmmmmmmmmmmnn....
(PID.TID 0000.0001)     25 ..............nool...kjk...lmm.nprsssrrrrqqqpppqppppqrstuutsqonml....oopopqrrsstsrrsro....
(PID.TID 0000.0001)     24 ............ottsrmh.llkk...lnl..psvxzzz+zwvwvvvwwvwwxxyz+zxvtrponnnn.....sutuwyywvuuuo....
(PID.TID 0000.0001)     23 ............mrstrnk.imop...kl...dkquwwxzywvutuuuttuvvvvuvvusqonnmmnnm.......psvvutsssp....
(PID.TID 0000.0001)     22 j...........imoponllilno......hfccfikmoppponmmmlmnoqrstuvuuspnlllllllk........ppqssqonjkml
(PID.TID 0000.0001)     21 kih........kmoonlkkjijmnn......f.abcdfjjjjjjjjkmnnooopsuuttsrpnnmmlkig.........kmssrpnnnml
(PID.TID 0000.0001)     20 gfh.......knssrojghhijkkh......i......nkiiiijklnoonnnnpqpoopqpponllllj...........trppppoli
(PID.TID 0000.0001)     19 efi.......kmsrnhdbcddfggegi...jkj.....nlkjjjjklmllkmonmljihiihhhhhhijj...........nljjkkjhg
(PID.TID 0000.0001)     18 dfi.......i.qqjc-bcddcffefillml.....klmnmmlllllkkkklnmjihfeeddddeefghhk..........jighhfdde
(PID.TID 0000.0001)     17 dfh.......m.mqlhgihjifghhiijlk.......lmmmmlllmmmnnmmnmljihggfffedeeeffh.........jkjhhheccd
(PID.TID 0000.0001)     16 hik......on.kljiifhkihijjjigi.........jjjjkkkkklmmmmmllkjjkkjiiihhhhhijk........jkkjjjihhh
(PID.TID 0000.0001)     15 lnpm....kpn.fggffeglkffijkjhi.........ihhhhggghhiiiiiihghiihikkjiijjjlmnl......hhiihijjkkk
(PID.TID 0000.0001)     14 lnpo....hijgdeeddcfjieeillkkj.........gghhgfffgggggfeffffgggikkjiijkklool.....hggggffhijll
(PID.TID 0000.0001)     13 nnnn....dfigefggffghgffjmlkkk.........ggijjhggghhhgfefffgghhjkjjlkklllnm.....ihiiiigghiklm
(PID.TID 0000.0001)     12 ponmkgfhgjnmjkmmmlllkklnonmmlkjjkl....jjkll.hijjkjihhiiijjkllkkmoonnmmnl.....jkllnnlkllmop
(PID.TID 0000.0001)     11 rrqqomnnmnqspoqrsrqqpppqqrrqonnmmmm..jkmmll.jkkklkjjjjklmmmnnmmorrqponnm....ilppppppoooprs
(PID.TID 0000.0001)     10 rrrssrqopqrttrrrutrpqrrrqqrrqpoonmop.mmnmk..nllklmlllllmnoponnnqssrpoonl..oplorsrqqqopqqrs
(PID.TID 0000.0001)      9 ppprsronoppqrqpnruqmnoqqpoopponnmlnqpnmmll.qpmkkllkklmlmnoponnnprrpponkk.npqporrpooonnoppp
(PID.TID 0000.0001)      8 nnoooonmnnnnonnlmtsonnnoonnnnnnmmlmnmkjiilprolkklkjiijjlmmnmllmnoonnmlii.porrqrrpnnmlmmnoo
(PID.TID 0000.0001)      7 nmmlllmnmmmnnmlllosrpnmmmmllmmmmllnomjiggjmnnmllmlkkjiijlllmllllmmmlkkkloomnppqpnmmkklmmmn
(PID.TID 0000.0001)      6 mlkkkklmmlkklkkklmopnmllkjjjkkllkklmlkjhhiklllmmmlmmlkiiiiklllkklllkkkklmnmnnnnmlllkkklmmm
(PID.TID 0000.0001)      5 kkjjjjjkkjijjjjjkkklkkjjiiiijjjiiiijkkkjjjkjjkmnmmmmlkjjijkllkjkklllkklllm..lkllkkkkkkllkl
(PID.TID 0000.0001)      4 hhghhhgghi............................jjijjjjklmmlllkjjjkklkkkjjjjkkkkjjj...kkkkkkkkkkjjji
(PID.TID 0000.0001)      3 ..........................................jjjjjjjjjjjijkkkkjjiii..jjjj.....jjkjiijjjkjj...
(PID.TID 0000.0001)      2 ..........................................................................................
(PID.TID 0000.0001)      1 ..........................................................................................
(PID.TID 0000.0001) // =======================================================
(PID.TID 0000.0001) // END OF FIELD                                          =
(PID.TID 0000.0001) // =======================================================
(PID.TID 0000.0001) 
(PID.TID 0000.0001) // =======================================================
(PID.TID 0000.0001) // Field Current theta  at iteration         60
(PID.TID 0000.0001) // CMIN =         -1.937816194848294E+00
(PID.TID 0000.0001) // CMAX =          2.992673804384431E+01
(PID.TID 0000.0001) // CINT =          1.180168675507133E+00
(PID.TID 0000.0001) // SYMBOLS (CMIN->CMAX): -abcdefghijklmnopqrstuvwxyz+
(PID.TID 0000.0001) //                  0.0: .
(PID.TID 0000.0001) // RANGE I (Lo:Hi:Step):(     1:    90:     1)
(PID.TID 0000.0001) // RANGE J (Lo:Hi:Step):(    40:     1:    -1)
(PID.TID 0000.0001) // RANGE K (Lo:Hi:Step):(   1:   1:   1)
(PID.TID 0000.0001) // =======================================================
(PID.TID 0000.0001) K =   1
(PID.TID 0000.0001)                I=10      I=20      I=30      I=40      I=50      I=60      I=70      I=80      I=90
(PID.TID 0000.0001) |--J--|123456789|123456789|123456789|123456789|123456789|123456789|123456789|123456789|123456789|
(PID.TID 0000.0001)     40 -abccbaa-----aabdddbbbbbbbbbbbbbbbbbbbbbbbbbbbbbbbbbbbbbbbbbbbbbbbbbbbbbbbbbbbbbbbbbbaaa--
(PID.TID 0000.0001)     39 bbcdcccbba----bbbddbbbbbbbbbbbbbbbbbbbbbbbbbbbbbbbbbbbbbbbbbbbbbbbbbbbbb----bbbbbbbbaaa-aa
(PID.TID 0000.0001)     38 eeffeeccccbaabbbbbbbbbbbbbbbbbbbbbbbbbbbbbbbbbbbbbbbbbbbbbbbbbbbbbbbbbbb-----bbbbbbbaaabcd
(PID.TID 0000.0001)     37 fggbbbbbbbbbbbbbbbbbbbbbbbbbbbbbbbbbbbbbbbbbbbbbbbbbbbbbbbbbbbbbbbbbbbbbbbaabbbbdccdebcdee
(PID.TID 0000.0001)     36 ggbbbbbbbbbbbbbbbbbbbbbbbbbbbbbbbbbbbbbbbbbcbaabbbbbbbbbbbbbbbbbbbbccccbbcbbbdbdefgghhhhgg
(PID.TID 0000.0001)     35 ggbbbbbbbbbbbbbbbbbbbbbbbbbbbbbbbbba---bbbbcccbabbbeeeefbbbbbbbbbbbbbbbbbbccdedeefghiiiihg
(PID.TID 0000.0001)     34 bbbbbbbbbbbbbbbbbbbbbbbbbbbbbbbbbbb----bbcddddddbddeeffggbbbbbbbbbbbbbbbbbbcbcdefghijjjjbb
(PID.TID 0000.0001)     33 bbbbbbbbbbbbbbbbbbbbbbbbbbbbbbbbbbbb-abbccddddeeeeefffgghhibbbbbbbbbbbbbbbbbabdghijkkkkkjb
(PID.TID 0000.0001)     32 bbbbbbbbbbbbbbbbbbbbbbbbbbbbbbbbbbbbaabbcdeeeeffgggghhhhiiibbbbbbbbbbbbbbbbccbcjkllmlllkkb
(PID.TID 0000.0001)     31 bbbbbbbbbbbbbbbbbbbbbbbbbbbbbbbbbbbbdefggghhiiiiiiijjkkkkkkbbbbbbbbbbbbbbgjlkgkmnnnnmmmmbb
(PID.TID 0000.0001)     30 bbbbbbbbbbbbbbbbbbbbbbbbbbbbbbbbbbblkkkkklllllllllllmmmmmmlbbbbbbbbbbbbmnopppppppppooonobb
(PID.TID 0000.0001)     29 bbbbbbbbbbbbbbbbbbbbbbbbbbbbbbbbboooooonnonnnnnnnnoooopoonnmbbbbbbbbbbbpqrrqqqqqqqqpppoobb
(PID.TID 0000.0001)     28 bbbbbbbbbbbbbbbbbbbbbbbbbbbbbbbnpqqqqqppqqqqqqqqqqqqqrqqqponnbbbbbbbbbrssrrrsrrrrrqqqqqpbb
(PID.TID 0000.0001)     27 bbbbbbbbbbbbbbvvbbbbbbbbbbbbbbrrssssssssstssssssstsssssrrrqppqbbbssstbuuuttuuttttsssrrbbbb
(PID.TID 0000.0001)     26 bbbbbbbbbbbbbbvuubbbbbbbbbbbutuuuuuvvvvvvvvvuuuuuuuuuttsssrrrssubttuwvvvvvvvvuuuutssrqbbbb
(PID.TID 0000.0001)     25 bbbbbbbbbbbbbbvvwwbbbxwxbbbuvvwwwwwxxxwwwwwwwwwvvvvvuuuuuuttuuvwwbbbwwwwwwwvvvvuuutsrqbbbb
(PID.TID 0000.0001)     24 bbbbbbbbbbbbwwwwxyybxxxybbbwwwbxxxxyyxxxxxxwwxwwwwwvwwwvvvvwwwxxxwvvbxwwwwwwwwvvvuuutrbbbb
(PID.TID 0000.0001)     23 bbbbbbbbbbbbxwxxyyzbxxyybbbxxxbbxyyyyyyyxxxxxxxxxxxxxxxxwwwwwwwwwwwwvbbbbwwwwwwwwvvvvubbbb
(PID.TID 0000.0001)     22 wbbbbbbbbbbbxxxyyyyyyyyybbbyxbzyyyyzzyyzzyyyyyyyyyyyyyyxxxxxxxwwwwwwwwbbbbbbyxxxxxxxxxxxxx
(PID.TID 0000.0001)     21 xwwbbbbbbbbxxyyyyyzzzzz++bbbbbzzzzzzzz+++zzzzzyyyyyyyyyyxxxxxxxxwwwvvvbbbbbbbbyyyyyyyzzyyx
(PID.TID 0000.0001)     20 wwvbbbbbbbyyyzzzzzzzzzz++bbbbbbzbzz++++++++zzzzzzzyzyyyyyxxxxxxxwwwwvubbbbbbbbbyyyyyyyyxxx
(PID.TID 0000.0001)     19 wwvbbbbbbbzzzzyzzzyzzzzzzzzbbbzzzbbbbb+++++++++zzzzzzzyyyxxxxxxwwwwwvubbbbbbbbbbbyyyxxxwww
(PID.TID 0000.0001)     18 wvubbbbbbbzzyyyyyyyyyyyzzzzzzz+zzbbb++++++++++++++zzzzzyyyyxxwwwwvwvvutbbbbbbbbbbyyxxxwwww
(PID.TID 0000.0001)     17 vutbbbbbbbzbyyyyyyyyyyyyyzyyzzzbbbbbzzzz+++++++zzzzzzzyyyyyxxxwvvvvvutubbbbbbbbbyyyyxwvvvv
(PID.TID 0000.0001)     16 utsbbbbbbyzbzyyyyxyxxxxxxxxxyzbbbbbbbyyyzzzzzzzzzzzzzzyyyyyyxxwwwvvuutttbbbbbbbbyyyyyxvvvu
(PID.TID 0000.0001)     15 utsrbbbbxyybxyxxxwxxwwwwvvwwxbbbbbbbbbxxxxxyyyyyxyyyyyxyyyyyxxwwwvuuuttssbbbbbbxyyyyyxxwvv
(PID.TID 0000.0001)     14 utsqbbbbxxxwxxwwwwwvvuvuuuuuubbbbbbbbbwwwwwwwwwwwxwwwwwxxxxxxwwwwvvvutsssbbbbbwwxxxxxxwwwv
(PID.TID 0000.0001)     13 uttrbbbbwxwwwwvuvvvvuuuttttttbbbbbbbbbvwvvvvvvvvvvvuvvvvwwwwwwvvvuuuutssqbbbbvwwwwwwwwwvvu
(PID.TID 0000.0001)     12 sststtstuvutuutttssstutsrssssrrssrbbbbuvuuttttttstttttttttuuttttssttssrqbbbbbuvvvutuuuuttt
(PID.TID 0000.0001)     11 qppqrsssssssssrqqqppqqqppqpqqqqqqqqbbtttsssbsrrrrrrrrrrrrrrrqqqqqprrrrqpbbbbprssssrrsrrqqq
(PID.TID 0000.0001)     10 mmmmnooppoooooonnnnnmmmmmmmmmnnnoooobqrrqqqbpqqqqqqpppppppoooooonnoooppobboooppooooooooonm
(PID.TID 0000.0001)      9 jiiiiijjjjjjijjjiiijjjjiiijjjjkklmmmmnoooobnnoooooononnnnnmmlmmmmlllmmmmbmmmnnmmllkjjkjjii
(PID.TID 0000.0001)      8 ffffffggfgggghhhgfggghgggghhhiijjjjjkklllllllllllllllllkkkjjjjjkkkjjjklkbkkkkjjiihhhgggfef
(PID.TID 0000.0001)      7 dddeeeeffffefffffeeeeeeeeffffgggghhhhhiijjjjjjjkjjiiihhhhiihhhhiiiiiiijjiiiiihggfeeeeeeeed
(PID.TID 0000.0001)      6 cccdddeeeeeeeeeeeeeeeeeeeeeedeefffffffgghhhhhhhhhgffffffgggfffffgghgghhhhhhggffeeddddddddc
(PID.TID 0000.0001)      5 cccdddddddddddddedddddddddddddeeeeeeeeeeefffffeeeeddddddeeeeeeeeeefffffeeeeedddddccccccccc
(PID.TID 0000.0001)      4 ccccccccccccbcccccccbbbbbbbbccccccbbcccccddccccccccccccccccccddddccccddddcbbaaabcccccccccc
(PID.TID 0000.0001)      3 bbbbbaaaaabbbbbbbbbbbbbbbbbbbbbbbbbbbbbbaabbbbbbbbbbbbbbbbbbbbbbbaaaabbbbbbaaaaabbbccbbbbb
(PID.TID 0000.0001)      2 bbbbbbbbbbbbbbbbbbbbbbbbbbbbbbbbbbbbbbbbbbbbbbbbbbbaaaaaaaaaaaaabbaaaabbbbbaaaaaabbbbbbbbb
(PID.TID 0000.0001)      1 bbbbbbbbbbbbbbbbbbbbbbbbbbbbbbbbbbbbbbbbbbbbbbbbbbbbbbbbbbbbbbbbbbbbbbbbbbbbbbbbbbbbbbbbbb
(PID.TID 0000.0001) // =======================================================
(PID.TID 0000.0001) // END OF FIELD                                          =
(PID.TID 0000.0001) // =======================================================
(PID.TID 0000.0001) 
(PID.TID 0000.0001) // =======================================================
(PID.TID 0000.0001) // Field Current etaN   at iteration         60
(PID.TID 0000.0001) // CMIN =         -1.870366188853450E+00
(PID.TID 0000.0001) // CMAX =          9.638727730354653E-01
(PID.TID 0000.0001) // CINT =          1.049718134032932E-01
(PID.TID 0000.0001) // SYMBOLS (CMIN->CMAX): -abcdefghijklmnopqrstuvwxyz+
(PID.TID 0000.0001) //                  0.0: .
(PID.TID 0000.0001) // RANGE I (Lo:Hi:Step):(    -1:    92:     1)
(PID.TID 0000.0001) // RANGE J (Lo:Hi:Step):(    42:    -1:    -1)
(PID.TID 0000.0001) // RANGE K (Lo:Hi:Step):(   1:   1:   1)
(PID.TID 0000.0001) // =======================================================
(PID.TID 0000.0001) K =   1
(PID.TID 0000.0001)                I=8       I=18      I=28      I=38      I=48      I=58      I=68      I=78      I=88
(PID.TID 0000.0001) |--J--|101234567|901234567|901234567|901234567|901234567|901234567|901234567|901234567|901234567|9012
(PID.TID 0000.0001)     42 ............................................bbbbcccccdddddddcccccd..eddd.....-aaaaaaabaaa.....
(PID.TID 0000.0001)     41 ..............................................................................................
(PID.TID 0000.0001)     40 ihhhhii.kjjjjjjiiiijj..................................................................iiiihhh
(PID.TID 0000.0001)     39 hhhhhhijjjiiiiii...jj.....................................................gggg........iiiihhhh
(PID.TID 0000.0001)     38 iiiiijjjijjjjjj...........................................................ggggg......jiiiiiiii
(PID.TID 0000.0001)     37 iiiik..................................................................kj...hhg...iihih.hiiiii
(PID.TID 0000.0001)     36 ijjl.........................................qrrq....................kkkkkjihhhg.jggghhiiiijjl
(PID.TID 0000.0001)     35 kkkk.................................ppqp..qqqqqrq...trrss...........lll....igffffffghhiiikkkk
(PID.TID 0000.0001)     34 .....................................qppp.qqqqqqqr.rqqqqrst..................ihggffgghijjm....
(PID.TID 0000.0001)     33 j.....................................qqqqqqqqqqqrrrqqqrrsstt.................jihhhiijkkkjj...
(PID.TID 0000.0001)     32 l.....................................qqqpqqqqqrrrrrrrrssssst................ejjijkkklllkkl...
(PID.TID 0000.0001)     31 ......................................qqqqqrrrssssssssttttutt..............kklllllllllllkl....
(PID.TID 0000.0001)     30 .....................................rssssstttttttttttuuuuuuu............illmooooonnnmmmll....
(PID.TID 0000.0001)     29 ...................................uvvwwwvvvwvvvvvvvvuvvvvvvut...........mopppppoooonnmmmm....
(PID.TID 0000.0001)     28 .................................vwxxyyyyxxxxxwwwwwwvvvvvvvvuut.........pppppppppooonnmmmm....
(PID.TID 0000.0001)     27 ................ss..............yyyyzzzzyyyyyyxxxwwwwwwwwvvvuuut...qqqq.qqqqqpppoooonnmm......
(PID.TID 0000.0001)     26 ................sss...........zzzzzzzzzzzzzzzyyyxxxxxxxwwwvvuuuutu.qqqrrrrrrqqqppoooonnm......
(PID.TID 0000.0001)     25 ................ssst...uuu...zzyy+zzzzzzzzzzzyyyxxxxxxwwwwvvvuuuuuv...rrssrrqqqppoooonnm......
(PID.TID 0000.0001)     24 ..............ssstttt.vuuu...zzy.+zyyyyyyyyyyxxxwwwwwwwvvvvvuuvvvvvvuu.rrrrqqqqpppooonnn......
(PID.TID 0000.0001)     23 ..............tstttut.vuuu...zzz..yxxxxxxxxxxxxwwwwwwwwvvvvvuuuuuuuuuuu....qqqqppppooooo......
(PID.TID 0000.0001)     22 ppp...........tttttttuuuuu...+z.yyyyxxxxxxxxxxxxxxxxxxxxwwwwvvvvvuuuuuuv......qqqpppppppppppp.
(PID.TID 0000.0001)     21 ppppp........ttttttttuuvvvv.....yzzyyyyyyyyyyyyyyyxxxxxxxxwwvvvvvvuuuuuu........qqqqpqqqpppppp
(PID.TID 0000.0001)     20 ppppp.......uuuuuuutuuvvvvv......y.yyyyyyzzzyyyyyyxxxxxxwwwwvvvvvvuuuuuu.........qqqqqqppppppp
(PID.TID 0000.0001)     19 poppp.......vuuuuuuuuuuuuuuuu...xxx.....yyyyyyyxxxxxxxwwwwvvvvvvuuuuuuuu...........rqqpppppopp
(PID.TID 0000.0001)     18 ooooo.......vvvuttttuuuuuuuuuvvvwxx...zzyyyyyxxxxxxxxxxwwwwvvvvuuuutuuutt..........rqppppooooo
(PID.TID 0000.0001)     17 ooooo.......v.wvuuuvuvvuuuuuuuvvw.....zyyyyyyyyxxyyxxxxxwwwwwvvvvuuuuuutt.........srrqqpoooooo
(PID.TID 0000.0001)     16 ppoon......xw.xwwvvvvvvvvuuuuuvv.......yyxyyyyyyyyyyyyyxxxxxxxwwvvvuuuuttt........rrrrqqppppoo
(PID.TID 0000.0001)     15 qqppon....xwv.wwwwwvwvuuvuuuttu.........xxxxxxyyxxxxxxxxxxxxxxxwwvvvvuuttss......rssrrsrrqqqpp
(PID.TID 0000.0001)     14 rqqppo....wwvuvvvvvvvuttuuttsss.........wxwwwwxwwwwxxwxxxxxxxxxxwwvvvvuuuts.....rrrsssssssrqqp
(PID.TID 0000.0001)     13 rrrqpo....vwvvvvuuuuutttuutsssr.........vwwwvvvvvvvvvvvwwwwwwxxwwwvvvvuuuts....prrrrrrssssrrrq
(PID.TID 0000.0001)     12 rrrqqppnqsvwvuuvuutttttttttsssrrrsrr....uvvvuuuuuuuuuuuuuvvvvvvvvwvvuuuuts.....qqqrrrrrrssrrrq
(PID.TID 0000.0001)     11 qqqpppqrsstuvuuuuttttssssssssrrrrrsrr..ttuuuu.stttttttuuuuuuuuuuvvvuuuttts....npppppppqqqrqqqp
(PID.TID 0000.0001)     10 pooooonooppqqqpqrqqppqqqqqqqqqqqqqrrrr.sstttu.rsssssttttuuutttttuvutssssss..olnonmmmnnnooppooo
(PID.TID 0000.0001)      9 lllllllkkklllkkkkllkklmnnnnnnoooopqrsrqrrsss.srqrssssttttuuutssstttsrrrrrr.nnmmmlkjjjjjkkkllll
(PID.TID 0000.0001)      8 ggghhhgffgggghhhhhjhghiijjjjjkkllmnnppppqqrstqppqqqqrrssssssrrrrrsrrqqqqru.mmlkjigfffffggggggh
(PID.TID 0000.0001)      7 ddcccccdddeeeeeeffghfeeeffffgghhiiijjjjjkmnooonnnnnmmnnoopooooooppppoooooppnmmkihfedddddddddcc
(PID.TID 0000.0001)      6 aaa-aabbccccccccddeeeddcddddeeffffffffefghjklkkkkjjjiiiijjkkllllllmmllllllkkjihfedccbbbbbbaaa-
(PID.TID 0000.0001)      5 a---aaabbbbbbbbbcccccccccbbcccdccccddddddeefffgggfffeeeeefghiiihiiiihhhhhgfedcbbaaaaaaaaaaa---
(PID.TID 0000.0001)      4 aa-aaaaabbbbbcccccccccccccccccccccccccccccccccddddccccccddeeeffffffffeeeeeee..-aaaaaaaaa-aaa-a
(PID.TID 0000.0001)      3 aaabbbbbbbbb............................bcccccccccccccccdddddccddddddddddee..aaa-aaaaaaaaaaaab
(PID.TID 0000.0001)      2 ............................................bbbbcccccdddddddcccccd..eddd.....-aaaaaaabaaa.....
(PID.TID 0000.0001)      1 ..............................................................................................
(PID.TID 0000.0001)      0 ihhhhii.kjjjjjjiiiijj..................................................................iiiihhh
(PID.TID 0000.0001)     -1 hhhhhhijjjiiiiii...jj.....................................................gggg........iiiihhhh
(PID.TID 0000.0001) // =======================================================
(PID.TID 0000.0001) // END OF FIELD                                          =
(PID.TID 0000.0001) // =======================================================
(PID.TID 0000.0001) 
(PID.TID 0000.0001)  MDS_WRITE_FIELD: it,rec,kS,kL,kH=      60     1  15   1  15 file=U.0000000060
(PID.TID 0000.0001)  MDS_WRITE_FIELD: it,rec,kS,kL,kH=      60     1  15   1  15 file=V.0000000060
(PID.TID 0000.0001)  MDS_WRITE_FIELD: it,rec,kS,kL,kH=      60     1  15   1  15 file=T.0000000060
(PID.TID 0000.0001)  MDS_WRITE_FIELD: it,rec,kS,kL,kH=      60     1  15   1  15 file=S.0000000060
(PID.TID 0000.0001)  MDS_WRITE_FIELD: it,rec,kS,kL,kH=      60     1   1   1   1 file=Eta.0000000060
(PID.TID 0000.0001)  MDS_WRITE_FIELD: it,rec,kS,kL,kH=      60     1  15   1  15 file=W.0000000060
(PID.TID 0000.0001)  MDS_WRITE_FIELD: it,rec,kS,kL,kH=      60     1  15   1  15 file=PH.0000000060
(PID.TID 0000.0001)  MDS_WRITE_FIELD: it,rec,kS,kL,kH=      60     1   1   1   1 file=PHL.0000000060
(PID.TID 0000.0001)  MDS_WRITE_FIELD: it,rec,kS,kL,kH=      60     1   1   1   1 file=ETAtave.0000000060
(PID.TID 0000.0001)  MDS_WRITE_FIELD: it,rec,kS,kL,kH=      60     1  15   1  15 file=Ttave.0000000060
(PID.TID 0000.0001)  MDS_WRITE_FIELD: it,rec,kS,kL,kH=      60     1  15   1  15 file=Stave.0000000060
(PID.TID 0000.0001)  MDS_WRITE_FIELD: it,rec,kS,kL,kH=      60     1  15   1  15 file=uVeltave.0000000060
(PID.TID 0000.0001)  MDS_WRITE_FIELD: it,rec,kS,kL,kH=      60     1  15   1  15 file=vVeltave.0000000060
(PID.TID 0000.0001)  MDS_WRITE_FIELD: it,rec,kS,kL,kH=      60     1  15   1  15 file=wVeltave.0000000060
(PID.TID 0000.0001)  MDS_WRITE_FIELD: it,rec,kS,kL,kH=      60     1   1   1   1 file=Eta2tave.0000000060
(PID.TID 0000.0001)  MDS_WRITE_FIELD: it,rec,kS,kL,kH=      60     1  15   1  15 file=UTtave.0000000060
(PID.TID 0000.0001)  MDS_WRITE_FIELD: it,rec,kS,kL,kH=      60     1  15   1  15 file=VTtave.0000000060
(PID.TID 0000.0001)  MDS_WRITE_FIELD: it,rec,kS,kL,kH=      60     1  15   1  15 file=WTtave.0000000060
(PID.TID 0000.0001)  MDS_WRITE_FIELD: it,rec,kS,kL,kH=      60     1  15   1  15 file=UStave.0000000060
(PID.TID 0000.0001)  MDS_WRITE_FIELD: it,rec,kS,kL,kH=      60     1  15   1  15 file=VStave.0000000060
(PID.TID 0000.0001)  MDS_WRITE_FIELD: it,rec,kS,kL,kH=      60     1  15   1  15 file=WStave.0000000060
(PID.TID 0000.0001)  MDS_WRITE_FIELD: it,rec,kS,kL,kH=      60     1  15   1  15 file=TTtave.0000000060
(PID.TID 0000.0001)  MDS_WRITE_FIELD: it,rec,kS,kL,kH=      60     1  15   1  15 file=UUtave.0000000060
(PID.TID 0000.0001)  MDS_WRITE_FIELD: it,rec,kS,kL,kH=      60     1  15   1  15 file=VVtave.0000000060
(PID.TID 0000.0001)  MDS_WRITE_FIELD: it,rec,kS,kL,kH=      60     1  15   1  15 file=UVtave.0000000060
(PID.TID 0000.0001)  MDS_WRITE_FIELD: it,rec,kS,kL,kH=      60     1  15   1  15 file=Tdiftave.0000000060
(PID.TID 0000.0001)  MDS_WRITE_FIELD: it,rec,kS,kL,kH=      60     1  15   1  15 file=PhHytave.0000000060
(PID.TID 0000.0001)  MDS_WRITE_FIELD: it,rec,kS,kL,kH=      60     1   1   1   1 file=PHLtave.0000000060
(PID.TID 0000.0001)  MDS_WRITE_FIELD: it,rec,kS,kL,kH=      60     1   1   1   1 file=uFluxtave.0000000060
(PID.TID 0000.0001)  MDS_WRITE_FIELD: it,rec,kS,kL,kH=      60     1   1   1   1 file=vFluxtave.0000000060
(PID.TID 0000.0001)  MDS_WRITE_FIELD: it,rec,kS,kL,kH=      60     1   1   1   1 file=tFluxtave.0000000060
(PID.TID 0000.0001)  MDS_WRITE_FIELD: it,rec,kS,kL,kH=      60     1   1   1   1 file=sFluxtave.0000000060
(PID.TID 0000.0001)  MDS_WRITE_FIELD: it,rec,kS,kL,kH=      60     1   1   1   1 file=PHL2tave.0000000060
(PID.TID 0000.0001)  MDS_WRITE_FIELD: it,rec,kS,kL,kH=      60     1  15   1  15 file=Convtave.0000000060
(PID.TID 0000.0001) // Time-average data written, t-step        60
(PID.TID 0000.0001) 
(PID.TID 0000.0001)  MDS_WRITE_FIELD: it,rec,kS,kL,kH=      60     1  15   1  15 file=GM_Kwx-T.0000000060
(PID.TID 0000.0001)  MDS_WRITE_FIELD: it,rec,kS,kL,kH=      60     1  15   1  15 file=GM_Kwy-T.0000000060
(PID.TID 0000.0001)  MDS_WRITE_FIELD: it,rec,kS,kL,kH=      60     1  15   1  15 file=GM_Kwz-T.0000000060
(PID.TID 0000.0001)  MDS_WRITE_FIELD: it,rec,kS,kL,kH=      60     1   1   1   1 file=ETAN_forecast.0000000060
(PID.TID 0000.0001)  MDS_WRITE_FIELD: it,rec,kS,kL,kH=      60     1  15   1  15 file=THETA_forecast.0000000060
(PID.TID 0000.0001)  MDS_WRITE_FIELD: it,rec,kS,kL,kH=      60     1  15   1  15 file=SALT_forecast.0000000060
(PID.TID 0000.0001)  MDS_WRITE_FIELD: it,rec,kS,kL,kH=      60     1  15   1  15 file=UVEL_forecast.0000000060
(PID.TID 0000.0001)  MDS_WRITE_FIELD: it,rec,kS,kL,kH=      60     1  15   1  15 file=VVEL_forecast.0000000060
(PID.TID 0000.0001)  MDS_WRITE_FIELD: it,rec,kS,kL,kH=      60     1   1   1   1 file=ETAN_001_forecast.0000000060
(PID.TID 0000.0001)  MDS_WRITE_FIELD: it,rec,kS,kL,kH=      60     1  15   1  15 file=THETA_001_forecast.0000000060
(PID.TID 0000.0001)  MDS_WRITE_FIELD: it,rec,kS,kL,kH=      60     1  15   1  15 file=SALT_001_forecast.0000000060
(PID.TID 0000.0001)  MDS_WRITE_FIELD: it,rec,kS,kL,kH=      60     1  15   1  15 file=UVEL_001_forecast.0000000060
(PID.TID 0000.0001)  MDS_WRITE_FIELD: it,rec,kS,kL,kH=      60     1  15   1  15 file=VVEL_001_forecast.0000000060
(PID.TID 0000.0001)  MDS_WRITE_FIELD: it,rec,kS,kL,kH=      60     1   1   1   1 file=ETAN_002_forecast.0000000060
(PID.TID 0000.0001)  MDS_WRITE_FIELD: it,rec,kS,kL,kH=      60     1  15   1  15 file=THETA_002_forecast.0000000060
(PID.TID 0000.0001)  MDS_WRITE_FIELD: it,rec,kS,kL,kH=      60     1  15   1  15 file=SALT_002_forecast.0000000060
(PID.TID 0000.0001)  MDS_WRITE_FIELD: it,rec,kS,kL,kH=      60     1  15   1  15 file=UVEL_002_forecast.0000000060
(PID.TID 0000.0001)  MDS_WRITE_FIELD: it,rec,kS,kL,kH=      60     1  15   1  15 file=VVEL_002_forecast.0000000060
(PID.TID 0000.0001)  MDS_WRITE_FIELD: it,rec,kS,kL,kH=      60     1   1   1   1 file=ETAN_003_forecast.0000000060
(PID.TID 0000.0001)  MDS_WRITE_FIELD: it,rec,kS,kL,kH=      60     1  15   1  15 file=THETA_003_forecast.0000000060
(PID.TID 0000.0001)  MDS_WRITE_FIELD: it,rec,kS,kL,kH=      60     1  15   1  15 file=SALT_003_forecast.0000000060
(PID.TID 0000.0001)  MDS_WRITE_FIELD: it,rec,kS,kL,kH=      60     1  15   1  15 file=UVEL_003_forecast.0000000060
(PID.TID 0000.0001)  MDS_WRITE_FIELD: it,rec,kS,kL,kH=      60     1  15   1  15 file=VVEL_003_forecast.0000000060
(PID.TID 0000.0001)  MDS_WRITE_FIELD: it,rec,kS,kL,kH=      60     1   1   1   1 file=ETAN_004_forecast.0000000060
(PID.TID 0000.0001)  MDS_WRITE_FIELD: it,rec,kS,kL,kH=      60     1  15   1  15 file=THETA_004_forecast.0000000060
(PID.TID 0000.0001)  MDS_WRITE_FIELD: it,rec,kS,kL,kH=      60     1  15   1  15 file=SALT_004_forecast.0000000060
(PID.TID 0000.0001)  MDS_WRITE_FIELD: it,rec,kS,kL,kH=      60     1  15   1  15 file=UVEL_004_forecast.0000000060
(PID.TID 0000.0001)  MDS_WRITE_FIELD: it,rec,kS,kL,kH=      60     1  15   1  15 file=VVEL_004_forecast.0000000060
(PID.TID 0000.0001)  MDS_WRITE_FIELD: it,rec,kS,kL,kH=      60     1   1   1   1 file=ETAN_analysis.0000000060
(PID.TID 0000.0001)  MDS_WRITE_FIELD: it,rec,kS,kL,kH=      60     1  15   1  15 file=THETA_analysis.0000000060
(PID.TID 0000.0001)  MDS_WRITE_FIELD: it,rec,kS,kL,kH=      60     1  15   1  15 file=SALT_analysis.0000000060
(PID.TID 0000.0001)  MDS_WRITE_FIELD: it,rec,kS,kL,kH=      60     1  15   1  15 file=UVEL_analysis.0000000060
(PID.TID 0000.0001)  MDS_WRITE_FIELD: it,rec,kS,kL,kH=      60     1  15   1  15 file=VVEL_analysis.0000000060
(PID.TID 0000.0001)  MDS_WRITE_FIELD: it,rec,kS,kL,kH=      60     1   1   1   1 file=ETAN_001_analysis.0000000060
(PID.TID 0000.0001)  MDS_WRITE_FIELD: it,rec,kS,kL,kH=      60     1  15   1  15 file=THETA_001_analysis.0000000060
(PID.TID 0000.0001)  MDS_WRITE_FIELD: it,rec,kS,kL,kH=      60     1  15   1  15 file=SALT_001_analysis.0000000060
(PID.TID 0000.0001)  MDS_WRITE_FIELD: it,rec,kS,kL,kH=      60     1  15   1  15 file=UVEL_001_analysis.0000000060
(PID.TID 0000.0001)  MDS_WRITE_FIELD: it,rec,kS,kL,kH=      60     1  15   1  15 file=VVEL_001_analysis.0000000060
(PID.TID 0000.0001)  MDS_WRITE_FIELD: it,rec,kS,kL,kH=      60     1   1   1   1 file=ETAN_002_analysis.0000000060
(PID.TID 0000.0001)  MDS_WRITE_FIELD: it,rec,kS,kL,kH=      60     1  15   1  15 file=THETA_002_analysis.0000000060
(PID.TID 0000.0001)  MDS_WRITE_FIELD: it,rec,kS,kL,kH=      60     1  15   1  15 file=SALT_002_analysis.0000000060
(PID.TID 0000.0001)  MDS_WRITE_FIELD: it,rec,kS,kL,kH=      60     1  15   1  15 file=UVEL_002_analysis.0000000060
(PID.TID 0000.0001)  MDS_WRITE_FIELD: it,rec,kS,kL,kH=      60     1  15   1  15 file=VVEL_002_analysis.0000000060
(PID.TID 0000.0001)  MDS_WRITE_FIELD: it,rec,kS,kL,kH=      60     1   1   1   1 file=ETAN_003_analysis.0000000060
(PID.TID 0000.0001)  MDS_WRITE_FIELD: it,rec,kS,kL,kH=      60     1  15   1  15 file=THETA_003_analysis.0000000060
(PID.TID 0000.0001)  MDS_WRITE_FIELD: it,rec,kS,kL,kH=      60     1  15   1  15 file=SALT_003_analysis.0000000060
(PID.TID 0000.0001)  MDS_WRITE_FIELD: it,rec,kS,kL,kH=      60     1  15   1  15 file=UVEL_003_analysis.0000000060
(PID.TID 0000.0001)  MDS_WRITE_FIELD: it,rec,kS,kL,kH=      60     1  15   1  15 file=VVEL_003_analysis.0000000060
(PID.TID 0000.0001)  MDS_WRITE_FIELD: it,rec,kS,kL,kH=      60     1   1   1   1 file=ETAN_004_analysis.0000000060
(PID.TID 0000.0001)  MDS_WRITE_FIELD: it,rec,kS,kL,kH=      60     1  15   1  15 file=THETA_004_analysis.0000000060
(PID.TID 0000.0001)  MDS_WRITE_FIELD: it,rec,kS,kL,kH=      60     1  15   1  15 file=SALT_004_analysis.0000000060
(PID.TID 0000.0001)  MDS_WRITE_FIELD: it,rec,kS,kL,kH=      60     1  15   1  15 file=UVEL_004_analysis.0000000060
(PID.TID 0000.0001)  MDS_WRITE_FIELD: it,rec,kS,kL,kH=      60     1  15   1  15 file=VVEL_004_analysis.0000000060
 EXTERNAL_FIELDS_LOAD,        60 : iP,iLd,i0,i1=    2    3    2    3 ; Wght=  0.5000000000  0.5000000000
 EXTERNAL_FIELDS_LOAD: (fu0,1),fu,fv= -1.4435E-02 -2.7199E-02 -2.0817E-02 -9.1068E-03
 EXTERNAL_FIELDS_LOAD: SST,SSS,Q,E-P= -3.5788E-01  3.4500E+01  2.2794E+02  8.7290E-06
DEBUG_STATS_RL:          Uvel (THERMODYNAMICS)  min= -1.24714221010201E-01
DEBUG_STATS_RL:          Uvel (THERMODYNAMICS)  max=  1.38359432812981E-01
DEBUG_STATS_RL:          Uvel (THERMODYNAMICS) mean=  5.11917697368449E-03
DEBUG_STATS_RL:          Uvel (THERMODYNAMICS) S.D.=  2.00674111235482E-02
DEBUG_STATS_RL:          Vvel (THERMODYNAMICS)  min= -9.03670974219979E-02
DEBUG_STATS_RL:          Vvel (THERMODYNAMICS)  max=  1.37515529896100E-01
DEBUG_STATS_RL:          Vvel (THERMODYNAMICS) mean=  8.81481713875395E-04
DEBUG_STATS_RL:          Vvel (THERMODYNAMICS) S.D.=  1.36362625843922E-02
DEBUG_STATS_RL:          Wvel (THERMODYNAMICS)  min= -6.64498529453886E-05
DEBUG_STATS_RL:          Wvel (THERMODYNAMICS)  max=  1.03408650513852E-04
DEBUG_STATS_RL:          Wvel (THERMODYNAMICS) mean= -6.90956247993512E-08
DEBUG_STATS_RL:          Wvel (THERMODYNAMICS) S.D.=  9.75429496705077E-06
DEBUG_STATS_RL:         Theta (THERMODYNAMICS)  min= -1.93637767951120E+00
DEBUG_STATS_RL:         Theta (THERMODYNAMICS)  max=  2.99373920891265E+01
DEBUG_STATS_RL:         Theta (THERMODYNAMICS) mean=  3.21090669273728E+00
DEBUG_STATS_RL:         Theta (THERMODYNAMICS) S.D.=  5.86594889386974E+00
DEBUG_STATS_RL:          Salt (THERMODYNAMICS)  min= -6.86334120039182E-04
DEBUG_STATS_RL:          Salt (THERMODYNAMICS)  max=  3.74589286771010E+01
DEBUG_STATS_RL:          Salt (THERMODYNAMICS) mean=  1.88441339881981E+01
DEBUG_STATS_RL:          Salt (THERMODYNAMICS) S.D.=  1.73003457972780E+01
DEBUG_STATS_RL:         GtNm1 (THERMODYNAMICS)  min= -2.36500344110320E-06
DEBUG_STATS_RL:         GtNm1 (THERMODYNAMICS)  max=  1.80485181658530E-06
DEBUG_STATS_RL:         GtNm1 (THERMODYNAMICS) mean= -1.46912589584133E-10
DEBUG_STATS_RL:         GtNm1 (THERMODYNAMICS) S.D.=  1.46405801077377E-07
DEBUG_STATS_RL:         GsNm1 (THERMODYNAMICS)  min= -3.84438191318769E-07
DEBUG_STATS_RL:         GsNm1 (THERMODYNAMICS)  max=  2.86509775483120E-07
DEBUG_STATS_RL:         GsNm1 (THERMODYNAMICS) mean= -4.38804216179076E-10
DEBUG_STATS_RL:         GsNm1 (THERMODYNAMICS) S.D.=  1.47990739448741E-08
DEBUG_STATS_RL:                EtaN (DYNAMICS)  min= -1.83450056492459E+00
DEBUG_STATS_RL:                EtaN (DYNAMICS)  max=  9.25381959053191E-01
DEBUG_STATS_RL:                EtaN (DYNAMICS) mean= -1.94470402317064E-01
DEBUG_STATS_RL:                EtaN (DYNAMICS) S.D.=  7.47746121297401E-01
DEBUG_STATS_RL:                Uvel (DYNAMICS)  min= -1.24714221010201E-01
DEBUG_STATS_RL:                Uvel (DYNAMICS)  max=  1.38359432812981E-01
DEBUG_STATS_RL:                Uvel (DYNAMICS) mean=  5.11917697368449E-03
DEBUG_STATS_RL:                Uvel (DYNAMICS) S.D.=  2.00674111235482E-02
DEBUG_STATS_RL:                Vvel (DYNAMICS)  min= -9.03670974219979E-02
DEBUG_STATS_RL:                Vvel (DYNAMICS)  max=  1.37515529896100E-01
DEBUG_STATS_RL:                Vvel (DYNAMICS) mean=  8.81481713875395E-04
DEBUG_STATS_RL:                Vvel (DYNAMICS) S.D.=  1.36362625843922E-02
DEBUG_STATS_RL:                Wvel (DYNAMICS)  min= -6.64498529453886E-05
DEBUG_STATS_RL:                Wvel (DYNAMICS)  max=  1.03408650513852E-04
DEBUG_STATS_RL:                Wvel (DYNAMICS) mean= -6.90956247993512E-08
DEBUG_STATS_RL:                Wvel (DYNAMICS) S.D.=  9.75429496705077E-06
DEBUG_STATS_RL:               Theta (DYNAMICS)  min= -1.93637767951120E+00
DEBUG_STATS_RL:               Theta (DYNAMICS)  max=  2.99373920891265E+01
DEBUG_STATS_RL:               Theta (DYNAMICS) mean=  3.21090669273728E+00
DEBUG_STATS_RL:               Theta (DYNAMICS) S.D.=  5.86594889386974E+00
DEBUG_STATS_RL:                Salt (DYNAMICS)  min= -6.86334120039182E-04
DEBUG_STATS_RL:                Salt (DYNAMICS)  max=  3.74589286771010E+01
DEBUG_STATS_RL:                Salt (DYNAMICS) mean=  1.88441339881981E+01
DEBUG_STATS_RL:                Salt (DYNAMICS) S.D.=  1.73003457972780E+01
DEBUG_STATS_RL:                  Gu (DYNAMICS)  min= -1.24646875442394E-01
DEBUG_STATS_RL:                  Gu (DYNAMICS)  max=  1.27209668365581E-01
DEBUG_STATS_RL:                  Gu (DYNAMICS) mean=  5.07985192046927E-03
DEBUG_STATS_RL:                  Gu (DYNAMICS) S.D.=  2.03462708874058E-02
DEBUG_STATS_RL:                  Gv (DYNAMICS)  min= -1.00447077284465E-01
DEBUG_STATS_RL:                  Gv (DYNAMICS)  max=  1.38170858921339E-01
DEBUG_STATS_RL:                  Gv (DYNAMICS) mean=  3.33333408227850E-03
DEBUG_STATS_RL:                  Gv (DYNAMICS) S.D.=  1.50309043151641E-02
DEBUG_STATS_RL:               GuNm1 (DYNAMICS)  min= -9.67222413906815E-06
DEBUG_STATS_RL:               GuNm1 (DYNAMICS)  max=  9.29494380860510E-06
DEBUG_STATS_RL:               GuNm1 (DYNAMICS) mean= -8.83863719368984E-10
DEBUG_STATS_RL:               GuNm1 (DYNAMICS) S.D.=  1.18669302411960E-06
DEBUG_STATS_RL:               GvNm1 (DYNAMICS)  min= -9.87422590282050E-06
DEBUG_STATS_RL:               GvNm1 (DYNAMICS)  max=  1.58704517674181E-05
DEBUG_STATS_RL:               GvNm1 (DYNAMICS) mean=  7.41183348725418E-07
DEBUG_STATS_RL:               GvNm1 (DYNAMICS) S.D.=  2.63180979444497E-06
DEBUG_STATS_RL:               GtNm1 (DYNAMICS)  min= -2.36500344110320E-06
DEBUG_STATS_RL:               GtNm1 (DYNAMICS)  max=  1.80485181658530E-06
DEBUG_STATS_RL:               GtNm1 (DYNAMICS) mean= -1.46912589584133E-10
DEBUG_STATS_RL:               GtNm1 (DYNAMICS) S.D.=  1.46405801077377E-07
DEBUG_STATS_RL:               GsNm1 (DYNAMICS)  min= -3.84438191318769E-07
DEBUG_STATS_RL:               GsNm1 (DYNAMICS)  max=  2.86509775483120E-07
DEBUG_STATS_RL:               GsNm1 (DYNAMICS) mean= -4.38804216179076E-10
DEBUG_STATS_RL:               GsNm1 (DYNAMICS) S.D.=  1.47990739448741E-08
DEBUG_STATS_RL:    cg2d_b (SOLVE_FOR_PRESSURE)  min= -1.91667284012916E+04
DEBUG_STATS_RL:    cg2d_b (SOLVE_FOR_PRESSURE)  max=  2.51105918720905E+04
DEBUG_STATS_RL:    cg2d_b (SOLVE_FOR_PRESSURE) mean=  4.36780567121843E+00
DEBUG_STATS_RL:    cg2d_b (SOLVE_FOR_PRESSURE) S.D.=  3.87902441713122E+03
 cg2d: Sum(rhs),rhsMax =   4.02677490852350E-01  1.64933090590322E+00
(PID.TID 0000.0001)  cg2d: iter=     1 ; resid.=  2.54121062531563E-01
(PID.TID 0000.0001)  cg2d: iter=     2 ; resid.=  2.06469565364664E-01
(PID.TID 0000.0001)  cg2d: iter=     3 ; resid.=  1.80072848783853E-01
(PID.TID 0000.0001)  cg2d: iter=     4 ; resid.=  1.57555759593835E-01
(PID.TID 0000.0001)  cg2d: iter=     5 ; resid.=  1.20179096437241E-01
(PID.TID 0000.0001)  cg2d: iter=     6 ; resid.=  9.92441403726802E-02
(PID.TID 0000.0001)  cg2d: iter=     7 ; resid.=  8.08642668149851E-02
(PID.TID 0000.0001)  cg2d: iter=     8 ; resid.=  7.16262974575451E-02
(PID.TID 0000.0001)  cg2d: iter=     9 ; resid.=  6.13062539369024E-02
(PID.TID 0000.0001)  cg2d: iter=    10 ; resid.=  5.50728555839746E-02
(PID.TID 0000.0001)  cg2d: iter=    11 ; resid.=  4.93395603641077E-02
(PID.TID 0000.0001)  cg2d: iter=    12 ; resid.=  4.07913620879289E-02
(PID.TID 0000.0001)  cg2d: iter=    13 ; resid.=  3.31668855477326E-02
(PID.TID 0000.0001)  cg2d: iter=    14 ; resid.=  2.63946068525810E-02
(PID.TID 0000.0001)  cg2d: iter=    15 ; resid.=  2.33406148258883E-02
(PID.TID 0000.0001)  cg2d: iter=    16 ; resid.=  2.01841268371644E-02
(PID.TID 0000.0001)  cg2d: iter=    17 ; resid.=  1.60041290210527E-02
(PID.TID 0000.0001)  cg2d: iter=    18 ; resid.=  1.28377609324818E-02
(PID.TID 0000.0001)  cg2d: iter=    19 ; resid.=  1.09729867040021E-02
(PID.TID 0000.0001)  cg2d: iter=    20 ; resid.=  8.92754405661545E-03
(PID.TID 0000.0001)  cg2d: iter=    21 ; resid.=  7.57994115509677E-03
(PID.TID 0000.0001)  cg2d: iter=    22 ; resid.=  6.06179945815625E-03
(PID.TID 0000.0001)  cg2d: iter=    23 ; resid.=  4.91140382412330E-03
(PID.TID 0000.0001)  cg2d: iter=    24 ; resid.=  4.14245927705955E-03
(PID.TID 0000.0001)  cg2d: iter=    25 ; resid.=  3.38304367313485E-03
(PID.TID 0000.0001)  cg2d: iter=    26 ; resid.=  2.81345811233233E-03
(PID.TID 0000.0001)  cg2d: iter=    27 ; resid.=  2.42815178774546E-03
(PID.TID 0000.0001)  cg2d: iter=    28 ; resid.=  2.10442942756167E-03
(PID.TID 0000.0001)  cg2d: iter=    29 ; resid.=  1.77033456713509E-03
(PID.TID 0000.0001)  cg2d: iter=    30 ; resid.=  1.57447157391734E-03
(PID.TID 0000.0001)  cg2d: iter=    31 ; resid.=  1.31470481771971E-03
(PID.TID 0000.0001)  cg2d: iter=    32 ; resid.=  1.04620566712495E-03
(PID.TID 0000.0001)  cg2d: iter=    33 ; resid.=  9.09667813671440E-04
(PID.TID 0000.0001)  cg2d: iter=    34 ; resid.=  7.46986223917266E-04
(PID.TID 0000.0001)  cg2d: iter=    35 ; resid.=  5.73970186733045E-04
(PID.TID 0000.0001)  cg2d: iter=    36 ; resid.=  4.49854492919572E-04
(PID.TID 0000.0001)  cg2d: iter=    37 ; resid.=  3.49840976695570E-04
(PID.TID 0000.0001)  cg2d: iter=    38 ; resid.=  2.92457499696486E-04
(PID.TID 0000.0001)  cg2d: iter=    39 ; resid.=  2.59680685860249E-04
(PID.TID 0000.0001)  cg2d: iter=    40 ; resid.=  2.26095635911865E-04
(PID.TID 0000.0001)  cg2d: iter=    41 ; resid.=  2.01137601962069E-04
(PID.TID 0000.0001)  cg2d: iter=    42 ; resid.=  1.89943833071063E-04
(PID.TID 0000.0001)  cg2d: iter=    43 ; resid.=  1.62335649100533E-04
(PID.TID 0000.0001)  cg2d: iter=    44 ; resid.=  1.36453844315388E-04
(PID.TID 0000.0001)  cg2d: iter=    45 ; resid.=  1.16143131172775E-04
(PID.TID 0000.0001)  cg2d: iter=    46 ; resid.=  9.19337001877082E-05
(PID.TID 0000.0001)  cg2d: iter=    47 ; resid.=  7.42485362050401E-05
(PID.TID 0000.0001)  cg2d: iter=    48 ; resid.=  6.12841976182608E-05
(PID.TID 0000.0001)  cg2d: iter=    49 ; resid.=  4.89325968137274E-05
(PID.TID 0000.0001)  cg2d: iter=    50 ; resid.=  3.97832061537699E-05
(PID.TID 0000.0001)  cg2d: iter=    51 ; resid.=  3.23978603368756E-05
(PID.TID 0000.0001)  cg2d: iter=    52 ; resid.=  2.56220359096227E-05
(PID.TID 0000.0001)  cg2d: iter=    53 ; resid.=  2.25973154308546E-05
(PID.TID 0000.0001)  cg2d: iter=    54 ; resid.=  1.97664469324127E-05
(PID.TID 0000.0001)  cg2d: iter=    55 ; resid.=  1.75488643142202E-05
(PID.TID 0000.0001)  cg2d: iter=    56 ; resid.=  1.49539035248698E-05
(PID.TID 0000.0001)  cg2d: iter=    57 ; resid.=  1.26211099175101E-05
(PID.TID 0000.0001)  cg2d: iter=    58 ; resid.=  9.94200945559029E-06
(PID.TID 0000.0001)  cg2d: iter=    59 ; resid.=  7.57746910344333E-06
(PID.TID 0000.0001)  cg2d: iter=    60 ; resid.=  6.10468402104099E-06
(PID.TID 0000.0001)  cg2d: iter=    61 ; resid.=  4.75968805680396E-06
(PID.TID 0000.0001)  cg2d: iter=    62 ; resid.=  3.74357914117564E-06
(PID.TID 0000.0001)  cg2d: iter=    63 ; resid.=  2.84116705247102E-06
(PID.TID 0000.0001)  cg2d: iter=    64 ; resid.=  2.19243751606759E-06
(PID.TID 0000.0001)  cg2d: iter=    65 ; resid.=  1.78828796522915E-06
(PID.TID 0000.0001)  cg2d: iter=    66 ; resid.=  1.45597598719654E-06
(PID.TID 0000.0001)  cg2d: iter=    67 ; resid.=  1.25713904053223E-06
(PID.TID 0000.0001)  cg2d: iter=    68 ; resid.=  1.08647016554675E-06
(PID.TID 0000.0001)  cg2d: iter=    69 ; resid.=  8.97312147995682E-07
(PID.TID 0000.0001)  cg2d: iter=    70 ; resid.=  7.87560008195785E-07
(PID.TID 0000.0001)  cg2d: iter=    71 ; resid.=  6.40444976983975E-07
(PID.TID 0000.0001)  cg2d: iter=    72 ; resid.=  5.11665000815252E-07
(PID.TID 0000.0001)  cg2d: iter=    73 ; resid.=  4.30677937770753E-07
(PID.TID 0000.0001)  cg2d: iter=    74 ; resid.=  3.71353736469735E-07
(PID.TID 0000.0001)  cg2d: iter=    75 ; resid.=  3.10259215202383E-07
(PID.TID 0000.0001)  cg2d: iter=    76 ; resid.=  2.53231905463256E-07
(PID.TID 0000.0001)  cg2d: iter=    77 ; resid.=  2.23877610941098E-07
(PID.TID 0000.0001)  cg2d: iter=    78 ; resid.=  2.02303502060161E-07
(PID.TID 0000.0001)  cg2d: iter=    79 ; resid.=  1.58562962813837E-07
(PID.TID 0000.0001)  cg2d: iter=    80 ; resid.=  1.27420917989062E-07
(PID.TID 0000.0001)  cg2d: iter=    81 ; resid.=  1.05369072534082E-07
(PID.TID 0000.0001)  cg2d: iter=    82 ; resid.=  7.97870102791622E-08
(PID.TID 0000.0001)  cg2d: iter=    83 ; resid.=  5.73685518250972E-08
(PID.TID 0000.0001)  cg2d: iter=    84 ; resid.=  4.27042690891881E-08
(PID.TID 0000.0001)  cg2d: iter=    85 ; resid.=  3.07674937529806E-08
(PID.TID 0000.0001)  cg2d: iter=    86 ; resid.=  2.33227449144271E-08
(PID.TID 0000.0001)  cg2d: iter=    87 ; resid.=  1.58190704232263E-08
(PID.TID 0000.0001)  cg2d: iter=    88 ; resid.=  1.20125168780310E-08
(PID.TID 0000.0001)  cg2d: iter=    89 ; resid.=  1.01359714893962E-08
(PID.TID 0000.0001)  cg2d: iter=    90 ; resid.=  8.81328186761426E-09
(PID.TID 0000.0001)  cg2d: iter=    91 ; resid.=  7.51663148666018E-09
(PID.TID 0000.0001)  cg2d: iter=    92 ; resid.=  6.05137224076841E-09
(PID.TID 0000.0001)  cg2d: iter=    93 ; resid.=  4.85373798636840E-09
(PID.TID 0000.0001)  cg2d: iter=    94 ; resid.=  3.63986626205868E-09
(PID.TID 0000.0001)  cg2d: iter=    95 ; resid.=  3.21674986132609E-09
(PID.TID 0000.0001)  cg2d: iter=    96 ; resid.=  2.46468679053737E-09
(PID.TID 0000.0001)  cg2d: iter=    97 ; resid.=  1.55136845433059E-09
(PID.TID 0000.0001)  cg2d: iter=    98 ; resid.=  1.10896394480091E-09
(PID.TID 0000.0001)  cg2d: iter=    99 ; resid.=  9.43160772911183E-10
(PID.TID 0000.0001)  cg2d: iter=   100 ; resid.=  8.85419585714096E-10
(PID.TID 0000.0001)  cg2d: iter=   101 ; resid.=  7.08920886234493E-10
(PID.TID 0000.0001)  cg2d: iter=   102 ; resid.=  5.55504054960536E-10
(PID.TID 0000.0001)  cg2d: iter=   103 ; resid.=  4.73016159485111E-10
(PID.TID 0000.0001)  cg2d: iter=   104 ; resid.=  4.25008365062935E-10
(PID.TID 0000.0001)  cg2d: iter=   105 ; resid.=  3.50858900086676E-10
(PID.TID 0000.0001)  cg2d: iter=   106 ; resid.=  2.92996702060205E-10
(PID.TID 0000.0001)  cg2d: iter=   107 ; resid.=  2.24622003607454E-10
(PID.TID 0000.0001)  cg2d: iter=   108 ; resid.=  1.76575213753543E-10
(PID.TID 0000.0001)  cg2d: iter=   109 ; resid.=  1.28386587571330E-10
(PID.TID 0000.0001)  cg2d: iter=   110 ; resid.=  9.57044813501738E-11
(PID.TID 0000.0001)  cg2d: iter=   111 ; resid.=  7.79369872008299E-11
(PID.TID 0000.0001)  cg2d: iter=   112 ; resid.=  5.84322291910611E-11
(PID.TID 0000.0001)  cg2d: iter=   113 ; resid.=  4.69137047181140E-11
(PID.TID 0000.0001)  cg2d: iter=   114 ; resid.=  3.54453840053684E-11
(PID.TID 0000.0001)  cg2d: iter=   115 ; resid.=  2.36976973708896E-11
(PID.TID 0000.0001)  cg2d: iter=   116 ; resid.=  1.73197486213285E-11
(PID.TID 0000.0001)  cg2d: iter=   117 ; resid.=  1.37222660192303E-11
(PID.TID 0000.0001)  cg2d: iter=   118 ; resid.=  9.82389596133455E-12
(PID.TID 0000.0001)  cg2d: iter=   119 ; resid.=  7.14652078126733E-12
(PID.TID 0000.0001)  cg2d: iter=   120 ; resid.=  5.12676234795787E-12
(PID.TID 0000.0001)  cg2d: iter=   121 ; resid.=  3.41349380435173E-12
(PID.TID 0000.0001)  cg2d: iter=   122 ; resid.=  2.56451146893100E-12
(PID.TID 0000.0001)  cg2d: iter=   123 ; resid.=  2.24415551306674E-12
(PID.TID 0000.0001)  cg2d: iter=   124 ; resid.=  1.82821618647221E-12
(PID.TID 0000.0001)  cg2d: iter=   125 ; resid.=  1.37009206730066E-12
(PID.TID 0000.0001)  cg2d: iter=   126 ; resid.=  1.06141368217533E-12
(PID.TID 0000.0001)  cg2d: iter=   127 ; resid.=  7.92935988563685E-13
(PID.TID 0000.0001)  cg2d: iter=   128 ; resid.=  6.10164703142184E-13
(PID.TID 0000.0001)  cg2d: iter=   129 ; resid.=  4.36822848311854E-13
(PID.TID 0000.0001)  cg2d: iter=   130 ; resid.=  3.34272222576524E-13
(PID.TID 0000.0001)  cg2d: iter=   131 ; resid.=  2.49129193907836E-13
(PID.TID 0000.0001)  cg2d: iter=   132 ; resid.=  1.80298619331162E-13
(PID.TID 0000.0001)  cg2d: iter=   133 ; resid.=  1.28387420220158E-13
(PID.TID 0000.0001)  cg2d: iter=   134 ; resid.=  9.45624600889905E-14
DEBUG_STATS_RL:    cg2d_x (SOLVE_FOR_PRESSURE)  min= -1.83059577298750E+01
DEBUG_STATS_RL:    cg2d_x (SOLVE_FOR_PRESSURE)  max=  9.49026450727558E+00
DEBUG_STATS_RL:    cg2d_x (SOLVE_FOR_PRESSURE) mean= -1.89417063654918E+00
DEBUG_STATS_RL:    cg2d_x (SOLVE_FOR_PRESSURE) S.D.=  7.40103106964718E+00
(PID.TID 0000.0001)      cg2d_init_res =   3.92815185754144E-01
(PID.TID 0000.0001)      cg2d_iters(min,last) =      -1     134
(PID.TID 0000.0001)      cg2d_last_res =   9.45624600889905E-14
(PID.TID 0000.0001) // =======================================================
(PID.TID 0000.0001) // Begin MONITOR dynamic field statistics
(PID.TID 0000.0001) // =======================================================
(PID.TID 0000.0001) %MON time_tsnumber                =                    61
(PID.TID 0000.0001) %MON time_secondsf                =   5.2704000000000E+06
(PID.TID 0000.0001) %MON dynstat_eta_max              =   9.6740718728602E-01
(PID.TID 0000.0001) %MON dynstat_eta_min              =  -1.8660507369903E+00
(PID.TID 0000.0001) %MON dynstat_eta_mean             =  -4.5572636278932E-03
(PID.TID 0000.0001) %MON dynstat_eta_sd               =   6.6130730268543E-01
(PID.TID 0000.0001) %MON dynstat_eta_del2             =   2.3910754518855E-03
(PID.TID 0000.0001) %MON dynstat_uvel_max             =   1.3180549082055E-01
(PID.TID 0000.0001) %MON dynstat_uvel_min             =  -1.2479643280925E-01
(PID.TID 0000.0001) %MON dynstat_uvel_mean            =   2.0938806587708E-03
(PID.TID 0000.0001) %MON dynstat_uvel_sd              =   1.2409842992631E-02
(PID.TID 0000.0001) %MON dynstat_uvel_del2            =   7.7381291887562E-05
(PID.TID 0000.0001) %MON dynstat_vvel_max             =   1.3726434181092E-01
(PID.TID 0000.0001) %MON dynstat_vvel_min             =  -9.0309923721782E-02
(PID.TID 0000.0001) %MON dynstat_vvel_mean            =  -8.2594092233299E-06
(PID.TID 0000.0001) %MON dynstat_vvel_sd              =   8.2772464666061E-03
(PID.TID 0000.0001) %MON dynstat_vvel_del2            =   7.1722442560558E-05
(PID.TID 0000.0001) %MON dynstat_wvel_max             =   1.0558270134845E-04
(PID.TID 0000.0001) %MON dynstat_wvel_min             =  -6.1607021428636E-05
(PID.TID 0000.0001) %MON dynstat_wvel_mean            =  -1.0385401136210E-10
(PID.TID 0000.0001) %MON dynstat_wvel_sd              =   1.0857395181238E-05
(PID.TID 0000.0001) %MON dynstat_wvel_del2            =   1.1426951332179E-07
(PID.TID 0000.0001) %MON dynstat_theta_max            =   2.9937392089127E+01
(PID.TID 0000.0001) %MON dynstat_theta_min            =  -1.9363776795112E+00
(PID.TID 0000.0001) %MON dynstat_theta_mean           =   3.6211434802779E+00
(PID.TID 0000.0001) %MON dynstat_theta_sd             =   4.4198003637966E+00
(PID.TID 0000.0001) %MON dynstat_theta_del2           =   4.7555528347008E-03
(PID.TID 0000.0001) %MON dynstat_salt_max             =   3.7458928677101E+01
(PID.TID 0000.0001) %MON dynstat_salt_min             =   2.9840503325892E+01
(PID.TID 0000.0001) %MON dynstat_salt_mean            =   3.4717305560900E+01
(PID.TID 0000.0001) %MON dynstat_salt_sd              =   2.9625340819665E-01
(PID.TID 0000.0001) %MON dynstat_salt_del2            =   9.6861031718586E-04
(PID.TID 0000.0001) %MON dynstat_sst_max              =   2.9937392089127E+01
(PID.TID 0000.0001) %MON dynstat_sst_min              =  -1.9363776795112E+00
(PID.TID 0000.0001) %MON dynstat_sst_mean             =   1.8799622627728E+01
(PID.TID 0000.0001) %MON dynstat_sst_sd               =   9.1625632816365E+00
(PID.TID 0000.0001) %MON dynstat_sst_del2             =   2.4687571557045E-02
(PID.TID 0000.0001) %MON dynstat_sss_max              =   3.7393878195571E+01
(PID.TID 0000.0001) %MON dynstat_sss_min              =   2.9840503325892E+01
(PID.TID 0000.0001) %MON dynstat_sss_mean             =   3.4840094943837E+01
(PID.TID 0000.0001) %MON dynstat_sss_sd               =   9.7803676824510E-01
(PID.TID 0000.0001) %MON dynstat_sss_del2             =   7.6444313761500E-03
(PID.TID 0000.0001) %MON forcing_qnet_max             =   3.1647996520996E+02
(PID.TID 0000.0001) %MON forcing_qnet_min             =  -1.6834477996826E+02
(PID.TID 0000.0001) %MON forcing_qnet_mean            =  -1.0615158484544E+01
(PID.TID 0000.0001) %MON forcing_qnet_sd              =   5.9847119932196E+01
(PID.TID 0000.0001) %MON forcing_qnet_del2            =   8.8105768488919E-01
(PID.TID 0000.0001) %MON forcing_qsw_max              =   0.0000000000000E+00
(PID.TID 0000.0001) %MON forcing_qsw_min              =   0.0000000000000E+00
(PID.TID 0000.0001) %MON forcing_qsw_mean             =   0.0000000000000E+00
(PID.TID 0000.0001) %MON forcing_qsw_sd               =   0.0000000000000E+00
(PID.TID 0000.0001) %MON forcing_qsw_del2             =   0.0000000000000E+00
(PID.TID 0000.0001) %MON forcing_empmr_max            =   6.9195166929603E-05
(PID.TID 0000.0001) %MON forcing_empmr_min            =  -7.7276723686737E-05
(PID.TID 0000.0001) %MON forcing_empmr_mean           =   7.4706001679403E-07
(PID.TID 0000.0001) %MON forcing_empmr_sd             =   2.6871436583064E-05
(PID.TID 0000.0001) %MON forcing_empmr_del2           =   3.5417501506189E-07
(PID.TID 0000.0001) %MON forcing_fu_max               =   3.2843016088009E-01
(PID.TID 0000.0001) %MON forcing_fu_min               =  -2.9650179296732E-01
(PID.TID 0000.0001) %MON forcing_fu_mean              =   1.9043735458512E-02
(PID.TID 0000.0001) %MON forcing_fu_sd                =   9.5329430846208E-02
(PID.TID 0000.0001) %MON forcing_fu_del2              =   7.1458713394150E-04
(PID.TID 0000.0001) %MON forcing_fv_max               =   1.5295380353928E-01
(PID.TID 0000.0001) %MON forcing_fv_min               =  -1.7738871276379E-01
(PID.TID 0000.0001) %MON forcing_fv_mean              =  -7.3731501905024E-03
(PID.TID 0000.0001) %MON forcing_fv_sd                =   4.1902694266275E-02
(PID.TID 0000.0001) %MON forcing_fv_del2              =   4.6838107518311E-04
(PID.TID 0000.0001) %MON trAdv_CFL_u_max              =   3.6179325459128E-02
(PID.TID 0000.0001) %MON trAdv_CFL_v_max              =   2.6541766994990E-02
(PID.TID 0000.0001) %MON trAdv_CFL_w_max              =   3.2042018502156E-02
(PID.TID 0000.0001) %MON advcfl_uvel_max              =   3.8072885110244E-02
(PID.TID 0000.0001) %MON advcfl_vvel_max              =   2.6668260158492E-02
(PID.TID 0000.0001) %MON advcfl_wvel_max              =   2.7395039156265E-02
(PID.TID 0000.0001) %MON advcfl_W_hf_max              =   3.2874046987518E-02
(PID.TID 0000.0001) %MON pe_b_mean                    =   5.5963963081116E-04
(PID.TID 0000.0001) %MON ke_max                       =   1.2093700938627E-02
(PID.TID 0000.0001) %MON ke_mean                      =   1.0271674438296E-04
(PID.TID 0000.0001) %MON ke_vol                       =   1.3226782436723E+18
(PID.TID 0000.0001) %MON vort_r_min                   =  -3.7123389329658E-07
(PID.TID 0000.0001) %MON vort_r_max                   =   3.9032942872770E-07
(PID.TID 0000.0001) %MON vort_a_mean                  =  -2.5274806836685E-05
(PID.TID 0000.0001) %MON vort_a_sd                    =   7.3604621624551E-05
(PID.TID 0000.0001) %MON vort_p_mean                  =  -3.1845655092921E-05
(PID.TID 0000.0001) %MON vort_p_sd                    =   1.3162509440068E-04
(PID.TID 0000.0001) %MON surfExpan_theta_mean         =   3.0962188513186E-07
(PID.TID 0000.0001) %MON surfExpan_salt_mean          =   4.6426414908976E-08
(PID.TID 0000.0001) // =======================================================
(PID.TID 0000.0001) // End MONITOR dynamic field statistics
(PID.TID 0000.0001) // =======================================================
 EXTERNAL_FIELDS_LOAD,        61 : iP,iLd,i0,i1=    2    3    2    3 ; Wght=  0.4666666667  0.5333333333
 EXTERNAL_FIELDS_LOAD: (fu0,1),fu,fv= -1.4435E-02 -2.7199E-02 -2.1242E-02 -8.5382E-03
 EXTERNAL_FIELDS_LOAD: SST,SSS,Q,E-P= -3.4628E-01  3.4505E+01  2.2710E+02  8.7524E-06
DEBUG_STATS_RL:          Uvel (THERMODYNAMICS)  min= -1.24796432809252E-01
DEBUG_STATS_RL:          Uvel (THERMODYNAMICS)  max=  1.31805490820550E-01
DEBUG_STATS_RL:          Uvel (THERMODYNAMICS) mean=  5.14339028286279E-03
DEBUG_STATS_RL:          Uvel (THERMODYNAMICS) S.D.=  1.99875714275485E-02
DEBUG_STATS_RL:          Vvel (THERMODYNAMICS)  min= -9.03099237217820E-02
DEBUG_STATS_RL:          Vvel (THERMODYNAMICS)  max=  1.37264341810923E-01
DEBUG_STATS_RL:          Vvel (THERMODYNAMICS) mean=  7.93865822580539E-04
DEBUG_STATS_RL:          Vvel (THERMODYNAMICS) S.D.=  1.36216462806635E-02
DEBUG_STATS_RL:          Wvel (THERMODYNAMICS)  min= -6.16070214286359E-05
DEBUG_STATS_RL:          Wvel (THERMODYNAMICS)  max=  1.05582701348448E-04
DEBUG_STATS_RL:          Wvel (THERMODYNAMICS) mean= -9.10409930699277E-08
DEBUG_STATS_RL:          Wvel (THERMODYNAMICS) S.D.=  9.66131339481515E-06
DEBUG_STATS_RL:         Theta (THERMODYNAMICS)  min= -1.93577320875971E+00
DEBUG_STATS_RL:         Theta (THERMODYNAMICS)  max=  2.99456923073522E+01
DEBUG_STATS_RL:         Theta (THERMODYNAMICS) mean=  3.21088109988290E+00
DEBUG_STATS_RL:         Theta (THERMODYNAMICS) S.D.=  5.86620094897595E+00
DEBUG_STATS_RL:          Salt (THERMODYNAMICS)  min= -6.86334120039182E-04
DEBUG_STATS_RL:          Salt (THERMODYNAMICS)  max=  3.74588242777564E+01
DEBUG_STATS_RL:          Salt (THERMODYNAMICS) mean=  1.88441148024658E+01
DEBUG_STATS_RL:          Salt (THERMODYNAMICS) S.D.=  1.73003286284636E+01
DEBUG_STATS_RL:         GtNm1 (THERMODYNAMICS)  min= -2.41357807954991E-06
DEBUG_STATS_RL:         GtNm1 (THERMODYNAMICS)  max=  2.27099121198075E-06
DEBUG_STATS_RL:         GtNm1 (THERMODYNAMICS) mean=  1.89456746643517E-10
DEBUG_STATS_RL:         GtNm1 (THERMODYNAMICS) S.D.=  1.46537384230334E-07
DEBUG_STATS_RL:         GsNm1 (THERMODYNAMICS)  min= -3.39537110979300E-07
DEBUG_STATS_RL:         GsNm1 (THERMODYNAMICS)  max=  2.86805757151231E-07
DEBUG_STATS_RL:         GsNm1 (THERMODYNAMICS) mean= -4.61540758248189E-10
DEBUG_STATS_RL:         GsNm1 (THERMODYNAMICS) S.D.=  1.46621405274135E-08
DEBUG_STATS_RL:                EtaN (DYNAMICS)  min= -1.86605073699028E+00
DEBUG_STATS_RL:                EtaN (DYNAMICS)  max=  9.67407187286025E-01
DEBUG_STATS_RL:                EtaN (DYNAMICS) mean= -1.93085691799102E-01
DEBUG_STATS_RL:                EtaN (DYNAMICS) S.D.=  7.54437417904915E-01
DEBUG_STATS_RL:                Uvel (DYNAMICS)  min= -1.24796432809252E-01
DEBUG_STATS_RL:                Uvel (DYNAMICS)  max=  1.31805490820550E-01
DEBUG_STATS_RL:                Uvel (DYNAMICS) mean=  5.14339028286279E-03
DEBUG_STATS_RL:                Uvel (DYNAMICS) S.D.=  1.99875714275485E-02
DEBUG_STATS_RL:                Vvel (DYNAMICS)  min= -9.03099237217820E-02
DEBUG_STATS_RL:                Vvel (DYNAMICS)  max=  1.37264341810923E-01
DEBUG_STATS_RL:                Vvel (DYNAMICS) mean=  7.93865822580539E-04
DEBUG_STATS_RL:                Vvel (DYNAMICS) S.D.=  1.36216462806635E-02
DEBUG_STATS_RL:                Wvel (DYNAMICS)  min= -6.16070214286359E-05
DEBUG_STATS_RL:                Wvel (DYNAMICS)  max=  1.05582701348448E-04
DEBUG_STATS_RL:                Wvel (DYNAMICS) mean= -9.10409930699277E-08
DEBUG_STATS_RL:                Wvel (DYNAMICS) S.D.=  9.66131339481515E-06
DEBUG_STATS_RL:               Theta (DYNAMICS)  min= -1.93577320875971E+00
DEBUG_STATS_RL:               Theta (DYNAMICS)  max=  2.99456923073522E+01
DEBUG_STATS_RL:               Theta (DYNAMICS) mean=  3.21088109988290E+00
DEBUG_STATS_RL:               Theta (DYNAMICS) S.D.=  5.86620094897595E+00
DEBUG_STATS_RL:                Salt (DYNAMICS)  min= -6.86334120039182E-04
DEBUG_STATS_RL:                Salt (DYNAMICS)  max=  3.74588242777564E+01
DEBUG_STATS_RL:                Salt (DYNAMICS) mean=  1.88441148024658E+01
DEBUG_STATS_RL:                Salt (DYNAMICS) S.D.=  1.73003286284636E+01
DEBUG_STATS_RL:                  Gu (DYNAMICS)  min= -1.24703437667420E-01
DEBUG_STATS_RL:                  Gu (DYNAMICS)  max=  1.20804555095187E-01
DEBUG_STATS_RL:                  Gu (DYNAMICS) mean=  5.12057975954986E-03
DEBUG_STATS_RL:                  Gu (DYNAMICS) S.D.=  2.03447198003167E-02
DEBUG_STATS_RL:                  Gv (DYNAMICS)  min= -1.04187662045851E-01
DEBUG_STATS_RL:                  Gv (DYNAMICS)  max=  1.36058998278512E-01
DEBUG_STATS_RL:                  Gv (DYNAMICS) mean=  3.25533285903011E-03
DEBUG_STATS_RL:                  Gv (DYNAMICS) S.D.=  1.49439699026766E-02
DEBUG_STATS_RL:               GuNm1 (DYNAMICS)  min= -9.69261016151681E-06
DEBUG_STATS_RL:               GuNm1 (DYNAMICS)  max=  9.29798452951791E-06
DEBUG_STATS_RL:               GuNm1 (DYNAMICS) mean= -4.12379865751127E-10
DEBUG_STATS_RL:               GuNm1 (DYNAMICS) S.D.=  1.18762211241439E-06
DEBUG_STATS_RL:               GvNm1 (DYNAMICS)  min= -9.91339146904995E-06
DEBUG_STATS_RL:               GvNm1 (DYNAMICS)  max=  1.58245107804999E-05
DEBUG_STATS_RL:               GvNm1 (DYNAMICS) mean=  7.40310356450072E-07
DEBUG_STATS_RL:               GvNm1 (DYNAMICS) S.D.=  2.63197236771076E-06
DEBUG_STATS_RL:               GtNm1 (DYNAMICS)  min= -2.41357807954991E-06
DEBUG_STATS_RL:               GtNm1 (DYNAMICS)  max=  2.27099121198075E-06
DEBUG_STATS_RL:               GtNm1 (DYNAMICS) mean=  1.89456746643517E-10
DEBUG_STATS_RL:               GtNm1 (DYNAMICS) S.D.=  1.46537384230334E-07
DEBUG_STATS_RL:               GsNm1 (DYNAMICS)  min= -3.39537110979300E-07
DEBUG_STATS_RL:               GsNm1 (DYNAMICS)  max=  2.86805757151231E-07
DEBUG_STATS_RL:               GsNm1 (DYNAMICS) mean= -4.61540758248189E-10
DEBUG_STATS_RL:               GsNm1 (DYNAMICS) S.D.=  1.46621405274135E-08
DEBUG_STATS_RL:    cg2d_b (SOLVE_FOR_PRESSURE)  min= -1.95720678469713E+04
DEBUG_STATS_RL:    cg2d_b (SOLVE_FOR_PRESSURE)  max=  2.49205119725215E+04
DEBUG_STATS_RL:    cg2d_b (SOLVE_FOR_PRESSURE) mean=  4.41641637293956E+00
DEBUG_STATS_RL:    cg2d_b (SOLVE_FOR_PRESSURE) S.D.=  3.88835509201137E+03
 cg2d: Sum(rhs),rhsMax =   4.10264601089576E-01  1.63684594917472E+00
(PID.TID 0000.0001)  cg2d: iter=     1 ; resid.=  6.89363400825870E-02
(PID.TID 0000.0001)  cg2d: iter=     2 ; resid.=  4.04649217306979E-02
(PID.TID 0000.0001)  cg2d: iter=     3 ; resid.=  3.09113802848843E-02
(PID.TID 0000.0001)  cg2d: iter=     4 ; resid.=  2.79815836320423E-02
(PID.TID 0000.0001)  cg2d: iter=     5 ; resid.=  2.98638105149556E-02
(PID.TID 0000.0001)  cg2d: iter=     6 ; resid.=  2.61443998873531E-02
(PID.TID 0000.0001)  cg2d: iter=     7 ; resid.=  2.11193490885879E-02
(PID.TID 0000.0001)  cg2d: iter=     8 ; resid.=  1.71012984552800E-02
(PID.TID 0000.0001)  cg2d: iter=     9 ; resid.=  1.45112006644540E-02
(PID.TID 0000.0001)  cg2d: iter=    10 ; resid.=  1.19505806376304E-02
(PID.TID 0000.0001)  cg2d: iter=    11 ; resid.=  9.65313066448713E-03
(PID.TID 0000.0001)  cg2d: iter=    12 ; resid.=  7.87873519300577E-03
(PID.TID 0000.0001)  cg2d: iter=    13 ; resid.=  5.60747943800954E-03
(PID.TID 0000.0001)  cg2d: iter=    14 ; resid.=  4.36784004927096E-03
(PID.TID 0000.0001)  cg2d: iter=    15 ; resid.=  3.87879905169023E-03
(PID.TID 0000.0001)  cg2d: iter=    16 ; resid.=  3.21026335175618E-03
(PID.TID 0000.0001)  cg2d: iter=    17 ; resid.=  2.71058217425939E-03
(PID.TID 0000.0001)  cg2d: iter=    18 ; resid.=  2.49849945647290E-03
(PID.TID 0000.0001)  cg2d: iter=    19 ; resid.=  2.12058954713507E-03
(PID.TID 0000.0001)  cg2d: iter=    20 ; resid.=  1.74272703607962E-03
(PID.TID 0000.0001)  cg2d: iter=    21 ; resid.=  1.52490350544513E-03
(PID.TID 0000.0001)  cg2d: iter=    22 ; resid.=  1.28836361236564E-03
(PID.TID 0000.0001)  cg2d: iter=    23 ; resid.=  1.02183073480814E-03
(PID.TID 0000.0001)  cg2d: iter=    24 ; resid.=  8.72357673089756E-04
(PID.TID 0000.0001)  cg2d: iter=    25 ; resid.=  7.42380375058821E-04
(PID.TID 0000.0001)  cg2d: iter=    26 ; resid.=  5.78109538464426E-04
(PID.TID 0000.0001)  cg2d: iter=    27 ; resid.=  5.05469986415627E-04
(PID.TID 0000.0001)  cg2d: iter=    28 ; resid.=  4.38828728488092E-04
(PID.TID 0000.0001)  cg2d: iter=    29 ; resid.=  3.30193872557717E-04
(PID.TID 0000.0001)  cg2d: iter=    30 ; resid.=  2.57268991083413E-04
(PID.TID 0000.0001)  cg2d: iter=    31 ; resid.=  2.35225194828076E-04
(PID.TID 0000.0001)  cg2d: iter=    32 ; resid.=  1.98523654163080E-04
(PID.TID 0000.0001)  cg2d: iter=    33 ; resid.=  1.64159507754043E-04
(PID.TID 0000.0001)  cg2d: iter=    34 ; resid.=  1.32893562298709E-04
(PID.TID 0000.0001)  cg2d: iter=    35 ; resid.=  9.94408250534960E-05
(PID.TID 0000.0001)  cg2d: iter=    36 ; resid.=  7.63294199076945E-05
(PID.TID 0000.0001)  cg2d: iter=    37 ; resid.=  6.10440598098515E-05
(PID.TID 0000.0001)  cg2d: iter=    38 ; resid.=  5.21786157226854E-05
(PID.TID 0000.0001)  cg2d: iter=    39 ; resid.=  4.48406875382001E-05
(PID.TID 0000.0001)  cg2d: iter=    40 ; resid.=  4.06117731507833E-05
(PID.TID 0000.0001)  cg2d: iter=    41 ; resid.=  3.36302689403767E-05
(PID.TID 0000.0001)  cg2d: iter=    42 ; resid.=  2.89973997493163E-05
(PID.TID 0000.0001)  cg2d: iter=    43 ; resid.=  2.74458370390701E-05
(PID.TID 0000.0001)  cg2d: iter=    44 ; resid.=  2.29445349767616E-05
(PID.TID 0000.0001)  cg2d: iter=    45 ; resid.=  1.72986654772028E-05
(PID.TID 0000.0001)  cg2d: iter=    46 ; resid.=  1.33482442532022E-05
(PID.TID 0000.0001)  cg2d: iter=    47 ; resid.=  1.03843355528397E-05
(PID.TID 0000.0001)  cg2d: iter=    48 ; resid.=  8.42450393222336E-06
(PID.TID 0000.0001)  cg2d: iter=    49 ; resid.=  7.13615100331818E-06
(PID.TID 0000.0001)  cg2d: iter=    50 ; resid.=  6.34402172263128E-06
(PID.TID 0000.0001)  cg2d: iter=    51 ; resid.=  5.84057913269061E-06
(PID.TID 0000.0001)  cg2d: iter=    52 ; resid.=  5.11622835849337E-06
(PID.TID 0000.0001)  cg2d: iter=    53 ; resid.=  4.57009198643037E-06
(PID.TID 0000.0001)  cg2d: iter=    54 ; resid.=  4.15890428491865E-06
(PID.TID 0000.0001)  cg2d: iter=    55 ; resid.=  3.52906556230609E-06
(PID.TID 0000.0001)  cg2d: iter=    56 ; resid.=  2.92702495236770E-06
(PID.TID 0000.0001)  cg2d: iter=    57 ; resid.=  2.53864698532942E-06
(PID.TID 0000.0001)  cg2d: iter=    58 ; resid.=  2.07907029716897E-06
(PID.TID 0000.0001)  cg2d: iter=    59 ; resid.=  1.68897760457371E-06
(PID.TID 0000.0001)  cg2d: iter=    60 ; resid.=  1.27338688152657E-06
(PID.TID 0000.0001)  cg2d: iter=    61 ; resid.=  9.33756692811980E-07
(PID.TID 0000.0001)  cg2d: iter=    62 ; resid.=  6.77139338249947E-07
(PID.TID 0000.0001)  cg2d: iter=    63 ; resid.=  4.71546912453912E-07
(PID.TID 0000.0001)  cg2d: iter=    64 ; resid.=  3.65426652677270E-07
(PID.TID 0000.0001)  cg2d: iter=    65 ; resid.=  2.93680101445177E-07
(PID.TID 0000.0001)  cg2d: iter=    66 ; resid.=  2.59962341691358E-07
(PID.TID 0000.0001)  cg2d: iter=    67 ; resid.=  2.08590887047565E-07
(PID.TID 0000.0001)  cg2d: iter=    68 ; resid.=  1.50972738773855E-07
(PID.TID 0000.0001)  cg2d: iter=    69 ; resid.=  1.17745574348915E-07
(PID.TID 0000.0001)  cg2d: iter=    70 ; resid.=  9.74891829984599E-08
(PID.TID 0000.0001)  cg2d: iter=    71 ; resid.=  8.80197721122423E-08
(PID.TID 0000.0001)  cg2d: iter=    72 ; resid.=  7.51673752439435E-08
(PID.TID 0000.0001)  cg2d: iter=    73 ; resid.=  6.07943282374113E-08
(PID.TID 0000.0001)  cg2d: iter=    74 ; resid.=  4.88536102790222E-08
(PID.TID 0000.0001)  cg2d: iter=    75 ; resid.=  3.53011865482581E-08
(PID.TID 0000.0001)  cg2d: iter=    76 ; resid.=  3.10490985551032E-08
(PID.TID 0000.0001)  cg2d: iter=    77 ; resid.=  2.82509583224145E-08
(PID.TID 0000.0001)  cg2d: iter=    78 ; resid.=  2.25433568924635E-08
(PID.TID 0000.0001)  cg2d: iter=    79 ; resid.=  1.79556914123814E-08
(PID.TID 0000.0001)  cg2d: iter=    80 ; resid.=  1.57045139371767E-08
(PID.TID 0000.0001)  cg2d: iter=    81 ; resid.=  1.36167401962363E-08
(PID.TID 0000.0001)  cg2d: iter=    82 ; resid.=  1.14987359763176E-08
(PID.TID 0000.0001)  cg2d: iter=    83 ; resid.=  9.62374105646269E-09
(PID.TID 0000.0001)  cg2d: iter=    84 ; resid.=  8.37490331241244E-09
(PID.TID 0000.0001)  cg2d: iter=    85 ; resid.=  6.00029158965327E-09
(PID.TID 0000.0001)  cg2d: iter=    86 ; resid.=  4.61456951328909E-09
(PID.TID 0000.0001)  cg2d: iter=    87 ; resid.=  3.61759909903913E-09
(PID.TID 0000.0001)  cg2d: iter=    88 ; resid.=  2.79800906599927E-09
(PID.TID 0000.0001)  cg2d: iter=    89 ; resid.=  2.05429084314089E-09
(PID.TID 0000.0001)  cg2d: iter=    90 ; resid.=  1.67729383545996E-09
(PID.TID 0000.0001)  cg2d: iter=    91 ; resid.=  1.55837056157271E-09
(PID.TID 0000.0001)  cg2d: iter=    92 ; resid.=  1.33253796753128E-09
(PID.TID 0000.0001)  cg2d: iter=    93 ; resid.=  1.04817367681366E-09
(PID.TID 0000.0001)  cg2d: iter=    94 ; resid.=  8.56275178817932E-10
(PID.TID 0000.0001)  cg2d: iter=    95 ; resid.=  7.06694675247297E-10
(PID.TID 0000.0001)  cg2d: iter=    96 ; resid.=  6.25181379994903E-10
(PID.TID 0000.0001)  cg2d: iter=    97 ; resid.=  4.75112090100388E-10
(PID.TID 0000.0001)  cg2d: iter=    98 ; resid.=  3.89425816936078E-10
(PID.TID 0000.0001)  cg2d: iter=    99 ; resid.=  3.16998491936246E-10
(PID.TID 0000.0001)  cg2d: iter=   100 ; resid.=  2.62539743104355E-10
(PID.TID 0000.0001)  cg2d: iter=   101 ; resid.=  2.35006813489467E-10
(PID.TID 0000.0001)  cg2d: iter=   102 ; resid.=  1.88407693115851E-10
(PID.TID 0000.0001)  cg2d: iter=   103 ; resid.=  1.47457756707627E-10
(PID.TID 0000.0001)  cg2d: iter=   104 ; resid.=  1.04633661852532E-10
(PID.TID 0000.0001)  cg2d: iter=   105 ; resid.=  8.04809044820606E-11
(PID.TID 0000.0001)  cg2d: iter=   106 ; resid.=  6.86105539300062E-11
(PID.TID 0000.0001)  cg2d: iter=   107 ; resid.=  5.20428653867130E-11
(PID.TID 0000.0001)  cg2d: iter=   108 ; resid.=  4.17048908285702E-11
(PID.TID 0000.0001)  cg2d: iter=   109 ; resid.=  3.36670621287395E-11
(PID.TID 0000.0001)  cg2d: iter=   110 ; resid.=  2.74217572338343E-11
(PID.TID 0000.0001)  cg2d: iter=   111 ; resid.=  2.01509659967614E-11
(PID.TID 0000.0001)  cg2d: iter=   112 ; resid.=  1.48943074262617E-11
(PID.TID 0000.0001)  cg2d: iter=   113 ; resid.=  1.03359229660549E-11
(PID.TID 0000.0001)  cg2d: iter=   114 ; resid.=  7.21117741355290E-12
(PID.TID 0000.0001)  cg2d: iter=   115 ; resid.=  5.29054643675369E-12
(PID.TID 0000.0001)  cg2d: iter=   116 ; resid.=  4.04466378251854E-12
(PID.TID 0000.0001)  cg2d: iter=   117 ; resid.=  3.12175290046566E-12
(PID.TID 0000.0001)  cg2d: iter=   118 ; resid.=  2.12052986108101E-12
(PID.TID 0000.0001)  cg2d: iter=   119 ; resid.=  1.50472755369313E-12
(PID.TID 0000.0001)  cg2d: iter=   120 ; resid.=  1.12674576809357E-12
(PID.TID 0000.0001)  cg2d: iter=   121 ; resid.=  9.08521788028711E-13
(PID.TID 0000.0001)  cg2d: iter=   122 ; resid.=  7.66626945468465E-13
(PID.TID 0000.0001)  cg2d: iter=   123 ; resid.=  6.50146936374031E-13
(PID.TID 0000.0001)  cg2d: iter=   124 ; resid.=  5.34111839497208E-13
(PID.TID 0000.0001)  cg2d: iter=   125 ; resid.=  4.02228327001555E-13
(PID.TID 0000.0001)  cg2d: iter=   126 ; resid.=  2.74034369848031E-13
(PID.TID 0000.0001)  cg2d: iter=   127 ; resid.=  2.07455951581332E-13
(PID.TID 0000.0001)  cg2d: iter=   128 ; resid.=  1.51846718234649E-13
(PID.TID 0000.0001)  cg2d: iter=   129 ; resid.=  1.00172038645595E-13
(PID.TID 0000.0001)  cg2d: iter=   130 ; resid.=  6.68647974717305E-14
DEBUG_STATS_RL:    cg2d_x (SOLVE_FOR_PRESSURE)  min= -1.82070178768825E+01
DEBUG_STATS_RL:    cg2d_x (SOLVE_FOR_PRESSURE)  max=  9.50378692649633E+00
DEBUG_STATS_RL:    cg2d_x (SOLVE_FOR_PRESSURE) mean= -1.89908336677222E+00
DEBUG_STATS_RL:    cg2d_x (SOLVE_FOR_PRESSURE) S.D.=  7.39421688193721E+00
(PID.TID 0000.0001)      cg2d_init_res =   2.56987777178752E-01
(PID.TID 0000.0001)      cg2d_iters(min,last) =      -1     130
(PID.TID 0000.0001)      cg2d_last_res =   6.68647974717305E-14
(PID.TID 0000.0001) // =======================================================
(PID.TID 0000.0001) // Begin MONITOR dynamic field statistics
(PID.TID 0000.0001) // =======================================================
(PID.TID 0000.0001) %MON time_tsnumber                =                    62
(PID.TID 0000.0001) %MON time_secondsf                =   5.3568000000000E+06
(PID.TID 0000.0001) %MON dynstat_eta_max              =   9.6878561941858E-01
(PID.TID 0000.0001) %MON dynstat_eta_min              =  -1.8559651250645E+00
(PID.TID 0000.0001) %MON dynstat_eta_mean             =  -4.6079828676111E-03
(PID.TID 0000.0001) %MON dynstat_eta_sd               =   6.5977400716397E-01
(PID.TID 0000.0001) %MON dynstat_eta_del2             =   2.3969416110444E-03
(PID.TID 0000.0001) %MON dynstat_uvel_max             =   1.2549602876862E-01
(PID.TID 0000.0001) %MON dynstat_uvel_min             =  -1.2477867624476E-01
(PID.TID 0000.0001) %MON dynstat_uvel_mean            =   2.0909689615130E-03
(PID.TID 0000.0001) %MON dynstat_uvel_sd              =   1.2394926285938E-02
(PID.TID 0000.0001) %MON dynstat_uvel_del2            =   7.7370172885483E-05
(PID.TID 0000.0001) %MON dynstat_vvel_max             =   1.3660876261825E-01
(PID.TID 0000.0001) %MON dynstat_vvel_min             =  -9.3978039546630E-02
(PID.TID 0000.0001) %MON dynstat_vvel_mean            =   4.2187422537237E-06
(PID.TID 0000.0001) %MON dynstat_vvel_sd              =   8.2779862275749E-03
(PID.TID 0000.0001) %MON dynstat_vvel_del2            =   7.1910132941226E-05
(PID.TID 0000.0001) %MON dynstat_wvel_max             =   1.0568668579341E-04
(PID.TID 0000.0001) %MON dynstat_wvel_min             =  -5.8423846807668E-05
(PID.TID 0000.0001) %MON dynstat_wvel_mean            =   3.8945254261043E-11
(PID.TID 0000.0001) %MON dynstat_wvel_sd              =   1.0760816440144E-05
(PID.TID 0000.0001) %MON dynstat_wvel_del2            =   1.1267441017310E-07
(PID.TID 0000.0001) %MON dynstat_theta_max            =   2.9945692307352E+01
(PID.TID 0000.0001) %MON dynstat_theta_min            =  -1.9357732087597E+00
(PID.TID 0000.0001) %MON dynstat_theta_mean           =   3.6211721761130E+00
(PID.TID 0000.0001) %MON dynstat_theta_sd             =   4.4199446537154E+00
(PID.TID 0000.0001) %MON dynstat_theta_del2           =   4.7543101769998E-03
(PID.TID 0000.0001) %MON dynstat_salt_max             =   3.7458824277756E+01
(PID.TID 0000.0001) %MON dynstat_salt_min             =   2.9840642224562E+01
(PID.TID 0000.0001) %MON dynstat_salt_mean            =   3.4717304952037E+01
(PID.TID 0000.0001) %MON dynstat_salt_sd              =   2.9625440111915E-01
(PID.TID 0000.0001) %MON dynstat_salt_del2            =   9.6756179285630E-04
(PID.TID 0000.0001) %MON dynstat_sst_max              =   2.9945692307352E+01
(PID.TID 0000.0001) %MON dynstat_sst_min              =  -1.9357732087597E+00
(PID.TID 0000.0001) %MON dynstat_sst_mean             =   1.8801194581534E+01
(PID.TID 0000.0001) %MON dynstat_sst_sd               =   9.1684180451220E+00
(PID.TID 0000.0001) %MON dynstat_sst_del2             =   2.4618948326497E-02
(PID.TID 0000.0001) %MON dynstat_sss_max              =   3.7393905283531E+01
(PID.TID 0000.0001) %MON dynstat_sss_min              =   2.9840642224562E+01
(PID.TID 0000.0001) %MON dynstat_sss_mean             =   3.4839791292104E+01
(PID.TID 0000.0001) %MON dynstat_sss_sd               =   9.7828065856847E-01
(PID.TID 0000.0001) %MON dynstat_sss_del2             =   7.6366076429363E-03
(PID.TID 0000.0001) %MON forcing_qnet_max             =   3.1368181355794E+02
(PID.TID 0000.0001) %MON forcing_qnet_min             =  -1.6804550069173E+02
(PID.TID 0000.0001) %MON forcing_qnet_mean            =  -1.0391818984917E+01
(PID.TID 0000.0001) %MON forcing_qnet_sd              =   5.8698172444596E+01
(PID.TID 0000.0001) %MON forcing_qnet_del2            =   8.7784570715978E-01
(PID.TID 0000.0001) %MON forcing_qsw_max              =   0.0000000000000E+00
(PID.TID 0000.0001) %MON forcing_qsw_min              =   0.0000000000000E+00
(PID.TID 0000.0001) %MON forcing_qsw_mean             =   0.0000000000000E+00
(PID.TID 0000.0001) %MON forcing_qsw_sd               =   0.0000000000000E+00
(PID.TID 0000.0001) %MON forcing_qsw_del2             =   0.0000000000000E+00
(PID.TID 0000.0001) %MON forcing_empmr_max            =   6.9189410586053E-05
(PID.TID 0000.0001) %MON forcing_empmr_min            =  -7.7675903279821E-05
(PID.TID 0000.0001) %MON forcing_empmr_mean           =   7.3397008591968E-07
(PID.TID 0000.0001) %MON forcing_empmr_sd             =   2.6815629393034E-05
(PID.TID 0000.0001) %MON forcing_empmr_del2           =   3.5456126682160E-07
(PID.TID 0000.0001) %MON forcing_fu_max               =   3.3037157654762E-01
(PID.TID 0000.0001) %MON forcing_fu_min               =  -3.0188642243544E-01
(PID.TID 0000.0001) %MON forcing_fu_mean              =   1.9137935047970E-02
(PID.TID 0000.0001) %MON forcing_fu_sd                =   9.5650640697018E-02
(PID.TID 0000.0001) %MON forcing_fu_del2              =   7.1874318032025E-04
(PID.TID 0000.0001) %MON forcing_fv_max               =   1.5187646150589E-01
(PID.TID 0000.0001) %MON forcing_fv_min               =  -1.7590267658234E-01
(PID.TID 0000.0001) %MON forcing_fv_mean              =  -7.3835785404719E-03
(PID.TID 0000.0001) %MON forcing_fv_sd                =   4.1829040773244E-02
(PID.TID 0000.0001) %MON forcing_fv_del2              =   4.6738042004890E-04
(PID.TID 0000.0001) %MON trAdv_CFL_u_max              =   3.8080617985512E-02
(PID.TID 0000.0001) %MON trAdv_CFL_v_max              =   2.6493285375250E-02
(PID.TID 0000.0001) %MON trAdv_CFL_w_max              =   3.2874046987518E-02
(PID.TID 0000.0001) %MON advcfl_uvel_max              =   3.9843879355560E-02
(PID.TID 0000.0001) %MON advcfl_vvel_max              =   2.6540891635581E-02
(PID.TID 0000.0001) %MON advcfl_wvel_max              =   2.7049048832975E-02
(PID.TID 0000.0001) %MON advcfl_W_hf_max              =   3.2458858599570E-02
(PID.TID 0000.0001) %MON pe_b_mean                    =   5.5704821598855E-04
(PID.TID 0000.0001) %MON ke_max                       =   1.1857808244685E-02
(PID.TID 0000.0001) %MON ke_mean                      =   1.0254858500478E-04
(PID.TID 0000.0001) %MON ke_vol                       =   1.3226782436723E+18
(PID.TID 0000.0001) %MON vort_r_min                   =  -3.5794223338349E-07
(PID.TID 0000.0001) %MON vort_r_max                   =   3.9462011067817E-07
(PID.TID 0000.0001) %MON vort_a_mean                  =  -2.5274806952739E-05
(PID.TID 0000.0001) %MON vort_a_sd                    =   7.3604617773820E-05
(PID.TID 0000.0001) %MON vort_p_mean                  =  -3.1845655239145E-05
(PID.TID 0000.0001) %MON vort_p_sd                    =   1.3162510391362E-04
(PID.TID 0000.0001) %MON surfExpan_theta_mean         =   1.5302219683528E-07
(PID.TID 0000.0001) %MON surfExpan_salt_mean          =   5.9269611122276E-08
(PID.TID 0000.0001) // =======================================================
(PID.TID 0000.0001) // End MONITOR dynamic field statistics
(PID.TID 0000.0001) // =======================================================
 EXTERNAL_FIELDS_LOAD,        62 : iP,iLd,i0,i1=    2    3    2    3 ; Wght=  0.4333333333  0.5666666667
 EXTERNAL_FIELDS_LOAD: (fu0,1),fu,fv= -1.4435E-02 -2.7199E-02 -2.1668E-02 -7.9696E-03
 EXTERNAL_FIELDS_LOAD: SST,SSS,Q,E-P= -3.3468E-01  3.4511E+01  2.2627E+02  8.7759E-06
DEBUG_STATS_RL:          Uvel (THERMODYNAMICS)  min= -1.24778676244758E-01
DEBUG_STATS_RL:          Uvel (THERMODYNAMICS)  max=  1.25496028768623E-01
DEBUG_STATS_RL:          Uvel (THERMODYNAMICS) mean=  5.18640286639896E-03
DEBUG_STATS_RL:          Uvel (THERMODYNAMICS) S.D.=  1.99846734324654E-02
DEBUG_STATS_RL:          Vvel (THERMODYNAMICS)  min= -9.39780395466295E-02
DEBUG_STATS_RL:          Vvel (THERMODYNAMICS)  max=  1.36608762618247E-01
DEBUG_STATS_RL:          Vvel (THERMODYNAMICS) mean=  7.16692310759810E-04
DEBUG_STATS_RL:          Vvel (THERMODYNAMICS) S.D.=  1.36013637064964E-02
DEBUG_STATS_RL:          Wvel (THERMODYNAMICS)  min= -5.84238468076680E-05
DEBUG_STATS_RL:          Wvel (THERMODYNAMICS)  max=  1.05686685793413E-04
DEBUG_STATS_RL:          Wvel (THERMODYNAMICS) mean= -1.04188278890983E-07
DEBUG_STATS_RL:          Wvel (THERMODYNAMICS) S.D.=  9.57294782744544E-06
DEBUG_STATS_RL:         Theta (THERMODYNAMICS)  min= -1.93377006744533E+00
DEBUG_STATS_RL:         Theta (THERMODYNAMICS)  max=  2.99537290933269E+01
DEBUG_STATS_RL:         Theta (THERMODYNAMICS) mean=  3.21087306999167E+00
DEBUG_STATS_RL:         Theta (THERMODYNAMICS) S.D.=  5.86646921621934E+00
DEBUG_STATS_RL:          Salt (THERMODYNAMICS)  min= -6.86334120039182E-04
DEBUG_STATS_RL:          Salt (THERMODYNAMICS)  max=  3.74586209506854E+01
DEBUG_STATS_RL:          Salt (THERMODYNAMICS) mean=  1.88440978036913E+01
DEBUG_STATS_RL:          Salt (THERMODYNAMICS) S.D.=  1.73003134550466E+01
DEBUG_STATS_RL:         GtNm1 (THERMODYNAMICS)  min= -2.48394910221809E-06
DEBUG_STATS_RL:         GtNm1 (THERMODYNAMICS)  max=  1.80255708906725E-06
DEBUG_STATS_RL:         GtNm1 (THERMODYNAMICS) mean=  5.21050878102446E-10
DEBUG_STATS_RL:         GtNm1 (THERMODYNAMICS) S.D.=  1.43138250664680E-07
DEBUG_STATS_RL:         GsNm1 (THERMODYNAMICS)  min= -3.52787358072421E-07
DEBUG_STATS_RL:         GsNm1 (THERMODYNAMICS)  max=  2.62435447111521E-07
DEBUG_STATS_RL:         GsNm1 (THERMODYNAMICS) mean= -4.47011585826733E-10
DEBUG_STATS_RL:         GsNm1 (THERMODYNAMICS) S.D.=  1.42071364339637E-08
DEBUG_STATS_RL:                EtaN (DYNAMICS)  min= -1.85596512506449E+00
DEBUG_STATS_RL:                EtaN (DYNAMICS)  max=  9.68785619418579E-01
DEBUG_STATS_RL:                EtaN (DYNAMICS) mean= -1.93586479793296E-01
DEBUG_STATS_RL:                EtaN (DYNAMICS) S.D.=  7.53742801420717E-01
DEBUG_STATS_RL:                Uvel (DYNAMICS)  min= -1.24778676244758E-01
DEBUG_STATS_RL:                Uvel (DYNAMICS)  max=  1.25496028768623E-01
DEBUG_STATS_RL:                Uvel (DYNAMICS) mean=  5.18640286639896E-03
DEBUG_STATS_RL:                Uvel (DYNAMICS) S.D.=  1.99846734324654E-02
DEBUG_STATS_RL:                Vvel (DYNAMICS)  min= -9.39780395466295E-02
DEBUG_STATS_RL:                Vvel (DYNAMICS)  max=  1.36608762618247E-01
DEBUG_STATS_RL:                Vvel (DYNAMICS) mean=  7.16692310759810E-04
DEBUG_STATS_RL:                Vvel (DYNAMICS) S.D.=  1.36013637064964E-02
DEBUG_STATS_RL:                Wvel (DYNAMICS)  min= -5.84238468076680E-05
DEBUG_STATS_RL:                Wvel (DYNAMICS)  max=  1.05686685793413E-04
DEBUG_STATS_RL:                Wvel (DYNAMICS) mean= -1.04188278890983E-07
DEBUG_STATS_RL:                Wvel (DYNAMICS) S.D.=  9.57294782744544E-06
DEBUG_STATS_RL:               Theta (DYNAMICS)  min= -1.93377006744533E+00
DEBUG_STATS_RL:               Theta (DYNAMICS)  max=  2.99537290933269E+01
DEBUG_STATS_RL:               Theta (DYNAMICS) mean=  3.21087306999167E+00
DEBUG_STATS_RL:               Theta (DYNAMICS) S.D.=  5.86646921621934E+00
DEBUG_STATS_RL:                Salt (DYNAMICS)  min= -6.86334120039182E-04
DEBUG_STATS_RL:                Salt (DYNAMICS)  max=  3.74586209506854E+01
DEBUG_STATS_RL:                Salt (DYNAMICS) mean=  1.88440978036913E+01
DEBUG_STATS_RL:                Salt (DYNAMICS) S.D.=  1.73003134550466E+01
DEBUG_STATS_RL:                  Gu (DYNAMICS)  min= -1.24661477737426E-01
DEBUG_STATS_RL:                  Gu (DYNAMICS)  max=  1.19928146984551E-01
DEBUG_STATS_RL:                  Gu (DYNAMICS) mean=  5.18058475766517E-03
DEBUG_STATS_RL:                  Gu (DYNAMICS) S.D.=  2.04141431337860E-02
DEBUG_STATS_RL:                  Gv (DYNAMICS)  min= -1.06891436836152E-01
DEBUG_STATS_RL:                  Gv (DYNAMICS)  max=  1.35132222625215E-01
DEBUG_STATS_RL:                  Gv (DYNAMICS) mean=  3.19256489271356E-03
DEBUG_STATS_RL:                  Gv (DYNAMICS) S.D.=  1.48529096540826E-02
DEBUG_STATS_RL:               GuNm1 (DYNAMICS)  min= -9.70331389497049E-06
DEBUG_STATS_RL:               GuNm1 (DYNAMICS)  max=  9.30208940160703E-06
DEBUG_STATS_RL:               GuNm1 (DYNAMICS) mean=  1.24366545036583E-10
DEBUG_STATS_RL:               GuNm1 (DYNAMICS) S.D.=  1.18861946707654E-06
DEBUG_STATS_RL:               GvNm1 (DYNAMICS)  min= -9.94396700842170E-06
DEBUG_STATS_RL:               GvNm1 (DYNAMICS)  max=  1.57817826614828E-05
DEBUG_STATS_RL:               GvNm1 (DYNAMICS) mean=  7.39515040113502E-07
DEBUG_STATS_RL:               GvNm1 (DYNAMICS) S.D.=  2.63174285847187E-06
DEBUG_STATS_RL:               GtNm1 (DYNAMICS)  min= -2.48394910221809E-06
DEBUG_STATS_RL:               GtNm1 (DYNAMICS)  max=  1.80255708906725E-06
DEBUG_STATS_RL:               GtNm1 (DYNAMICS) mean=  5.21050878102446E-10
DEBUG_STATS_RL:               GtNm1 (DYNAMICS) S.D.=  1.43138250664680E-07
DEBUG_STATS_RL:               GsNm1 (DYNAMICS)  min= -3.52787358072421E-07
DEBUG_STATS_RL:               GsNm1 (DYNAMICS)  max=  2.62435447111521E-07
DEBUG_STATS_RL:               GsNm1 (DYNAMICS) mean= -4.47011585826733E-10
DEBUG_STATS_RL:               GsNm1 (DYNAMICS) S.D.=  1.42071364339637E-08
DEBUG_STATS_RL:    cg2d_b (SOLVE_FOR_PRESSURE)  min= -1.96858323868613E+04
DEBUG_STATS_RL:    cg2d_b (SOLVE_FOR_PRESSURE)  max=  2.47054351803785E+04
DEBUG_STATS_RL:    cg2d_b (SOLVE_FOR_PRESSURE) mean=  4.47409243737196E+00
DEBUG_STATS_RL:    cg2d_b (SOLVE_FOR_PRESSURE) S.D.=  3.89340256275845E+03
 cg2d: Sum(rhs),rhsMax =   4.19240702173204E-01  1.62271912961463E+00
(PID.TID 0000.0001)  cg2d: iter=     1 ; resid.=  6.80504367065297E-02
(PID.TID 0000.0001)  cg2d: iter=     2 ; resid.=  3.98505153558782E-02
(PID.TID 0000.0001)  cg2d: iter=     3 ; resid.=  3.26099273331066E-02
(PID.TID 0000.0001)  cg2d: iter=     4 ; resid.=  3.15387308396975E-02
(PID.TID 0000.0001)  cg2d: iter=     5 ; resid.=  3.42723594653003E-02
(PID.TID 0000.0001)  cg2d: iter=     6 ; resid.=  3.07895709961461E-02
(PID.TID 0000.0001)  cg2d: iter=     7 ; resid.=  2.40844770964663E-02
(PID.TID 0000.0001)  cg2d: iter=     8 ; resid.=  1.81919602250156E-02
(PID.TID 0000.0001)  cg2d: iter=     9 ; resid.=  1.46921812663973E-02
(PID.TID 0000.0001)  cg2d: iter=    10 ; resid.=  1.16659652035246E-02
(PID.TID 0000.0001)  cg2d: iter=    11 ; resid.=  9.14797461844095E-03
(PID.TID 0000.0001)  cg2d: iter=    12 ; resid.=  7.29703419115526E-03
(PID.TID 0000.0001)  cg2d: iter=    13 ; resid.=  5.37090368091902E-03
(PID.TID 0000.0001)  cg2d: iter=    14 ; resid.=  4.10316491053305E-03
(PID.TID 0000.0001)  cg2d: iter=    15 ; resid.=  3.54193573001423E-03
(PID.TID 0000.0001)  cg2d: iter=    16 ; resid.=  2.99276392726281E-03
(PID.TID 0000.0001)  cg2d: iter=    17 ; resid.=  2.49745456839668E-03
(PID.TID 0000.0001)  cg2d: iter=    18 ; resid.=  2.24466566193130E-03
(PID.TID 0000.0001)  cg2d: iter=    19 ; resid.=  1.93835087283601E-03
(PID.TID 0000.0001)  cg2d: iter=    20 ; resid.=  1.65571361160009E-03
(PID.TID 0000.0001)  cg2d: iter=    21 ; resid.=  1.49558486065029E-03
(PID.TID 0000.0001)  cg2d: iter=    22 ; resid.=  1.32164698993345E-03
(PID.TID 0000.0001)  cg2d: iter=    23 ; resid.=  1.08213710702354E-03
(PID.TID 0000.0001)  cg2d: iter=    24 ; resid.=  9.10360507889988E-04
(PID.TID 0000.0001)  cg2d: iter=    25 ; resid.=  7.48733857579216E-04
(PID.TID 0000.0001)  cg2d: iter=    26 ; resid.=  5.45566457619767E-04
(PID.TID 0000.0001)  cg2d: iter=    27 ; resid.=  4.38414362006230E-04
(PID.TID 0000.0001)  cg2d: iter=    28 ; resid.=  3.66349344896751E-04
(PID.TID 0000.0001)  cg2d: iter=    29 ; resid.=  2.83543741360670E-04
(PID.TID 0000.0001)  cg2d: iter=    30 ; resid.=  2.21283041633878E-04
(PID.TID 0000.0001)  cg2d: iter=    31 ; resid.=  2.05476585137175E-04
(PID.TID 0000.0001)  cg2d: iter=    32 ; resid.=  1.82447690752233E-04
(PID.TID 0000.0001)  cg2d: iter=    33 ; resid.=  1.55465644612171E-04
(PID.TID 0000.0001)  cg2d: iter=    34 ; resid.=  1.32097532818310E-04
(PID.TID 0000.0001)  cg2d: iter=    35 ; resid.=  1.04414381561243E-04
(PID.TID 0000.0001)  cg2d: iter=    36 ; resid.=  8.46051875582303E-05
(PID.TID 0000.0001)  cg2d: iter=    37 ; resid.=  6.91689465315327E-05
(PID.TID 0000.0001)  cg2d: iter=    38 ; resid.=  6.05750228512481E-05
(PID.TID 0000.0001)  cg2d: iter=    39 ; resid.=  5.30664560016948E-05
(PID.TID 0000.0001)  cg2d: iter=    40 ; resid.=  4.57269640236781E-05
(PID.TID 0000.0001)  cg2d: iter=    41 ; resid.=  3.50684877832887E-05
(PID.TID 0000.0001)  cg2d: iter=    42 ; resid.=  2.89378058319677E-05
(PID.TID 0000.0001)  cg2d: iter=    43 ; resid.=  2.73232557430878E-05
(PID.TID 0000.0001)  cg2d: iter=    44 ; resid.=  2.38837536302497E-05
(PID.TID 0000.0001)  cg2d: iter=    45 ; resid.=  1.87843621849328E-05
(PID.TID 0000.0001)  cg2d: iter=    46 ; resid.=  1.47313715051030E-05
(PID.TID 0000.0001)  cg2d: iter=    47 ; resid.=  1.15938349598074E-05
(PID.TID 0000.0001)  cg2d: iter=    48 ; resid.=  9.81193013216612E-06
(PID.TID 0000.0001)  cg2d: iter=    49 ; resid.=  8.59301773882754E-06
(PID.TID 0000.0001)  cg2d: iter=    50 ; resid.=  7.52823312044772E-06
(PID.TID 0000.0001)  cg2d: iter=    51 ; resid.=  6.47838452465936E-06
(PID.TID 0000.0001)  cg2d: iter=    52 ; resid.=  5.44908009821033E-06
(PID.TID 0000.0001)  cg2d: iter=    53 ; resid.=  4.80758853104041E-06
(PID.TID 0000.0001)  cg2d: iter=    54 ; resid.=  4.39066318354184E-06
(PID.TID 0000.0001)  cg2d: iter=    55 ; resid.=  3.72861760005992E-06
(PID.TID 0000.0001)  cg2d: iter=    56 ; resid.=  2.92761328103785E-06
(PID.TID 0000.0001)  cg2d: iter=    57 ; resid.=  2.38776265437549E-06
(PID.TID 0000.0001)  cg2d: iter=    58 ; resid.=  2.00212772227033E-06
(PID.TID 0000.0001)  cg2d: iter=    59 ; resid.=  1.61345338507559E-06
(PID.TID 0000.0001)  cg2d: iter=    60 ; resid.=  1.23092663755556E-06
(PID.TID 0000.0001)  cg2d: iter=    61 ; resid.=  9.56049807248439E-07
(PID.TID 0000.0001)  cg2d: iter=    62 ; resid.=  7.20725848342746E-07
(PID.TID 0000.0001)  cg2d: iter=    63 ; resid.=  5.10784762073224E-07
(PID.TID 0000.0001)  cg2d: iter=    64 ; resid.=  3.98316309774715E-07
(PID.TID 0000.0001)  cg2d: iter=    65 ; resid.=  3.21326809643461E-07
(PID.TID 0000.0001)  cg2d: iter=    66 ; resid.=  2.85034868060588E-07
(PID.TID 0000.0001)  cg2d: iter=    67 ; resid.=  2.43995635710246E-07
(PID.TID 0000.0001)  cg2d: iter=    68 ; resid.=  2.01593610937088E-07
(PID.TID 0000.0001)  cg2d: iter=    69 ; resid.=  1.83163370755572E-07
(PID.TID 0000.0001)  cg2d: iter=    70 ; resid.=  1.76216533304263E-07
(PID.TID 0000.0001)  cg2d: iter=    71 ; resid.=  1.66194964087545E-07
(PID.TID 0000.0001)  cg2d: iter=    72 ; resid.=  1.39432647162764E-07
(PID.TID 0000.0001)  cg2d: iter=    73 ; resid.=  1.07354784182651E-07
(PID.TID 0000.0001)  cg2d: iter=    74 ; resid.=  8.01844456052785E-08
(PID.TID 0000.0001)  cg2d: iter=    75 ; resid.=  5.80250489319736E-08
(PID.TID 0000.0001)  cg2d: iter=    76 ; resid.=  5.01952461745701E-08
(PID.TID 0000.0001)  cg2d: iter=    77 ; resid.=  4.28076209292071E-08
(PID.TID 0000.0001)  cg2d: iter=    78 ; resid.=  3.23836652494103E-08
(PID.TID 0000.0001)  cg2d: iter=    79 ; resid.=  2.46964024657239E-08
(PID.TID 0000.0001)  cg2d: iter=    80 ; resid.=  2.00183485966726E-08
(PID.TID 0000.0001)  cg2d: iter=    81 ; resid.=  1.54440688578999E-08
(PID.TID 0000.0001)  cg2d: iter=    82 ; resid.=  1.18595607198457E-08
(PID.TID 0000.0001)  cg2d: iter=    83 ; resid.=  9.21686484875707E-09
(PID.TID 0000.0001)  cg2d: iter=    84 ; resid.=  7.61350230155510E-09
(PID.TID 0000.0001)  cg2d: iter=    85 ; resid.=  5.51427628828355E-09
(PID.TID 0000.0001)  cg2d: iter=    86 ; resid.=  4.21077037348960E-09
(PID.TID 0000.0001)  cg2d: iter=    87 ; resid.=  3.55278609146225E-09
(PID.TID 0000.0001)  cg2d: iter=    88 ; resid.=  2.81863186954068E-09
(PID.TID 0000.0001)  cg2d: iter=    89 ; resid.=  2.10786023010992E-09
(PID.TID 0000.0001)  cg2d: iter=    90 ; resid.=  1.75250487289087E-09
(PID.TID 0000.0001)  cg2d: iter=    91 ; resid.=  1.56065970175319E-09
(PID.TID 0000.0001)  cg2d: iter=    92 ; resid.=  1.30494054037638E-09
(PID.TID 0000.0001)  cg2d: iter=    93 ; resid.=  1.04826673108249E-09
(PID.TID 0000.0001)  cg2d: iter=    94 ; resid.=  8.39808146213202E-10
(PID.TID 0000.0001)  cg2d: iter=    95 ; resid.=  6.80738618893243E-10
(PID.TID 0000.0001)  cg2d: iter=    96 ; resid.=  6.08082214062950E-10
(PID.TID 0000.0001)  cg2d: iter=    97 ; resid.=  4.85194934133554E-10
(PID.TID 0000.0001)  cg2d: iter=    98 ; resid.=  4.02917107304937E-10
(PID.TID 0000.0001)  cg2d: iter=    99 ; resid.=  3.28674006014712E-10
(PID.TID 0000.0001)  cg2d: iter=   100 ; resid.=  2.59854953988281E-10
(PID.TID 0000.0001)  cg2d: iter=   101 ; resid.=  2.05790829824348E-10
(PID.TID 0000.0001)  cg2d: iter=   102 ; resid.=  1.53252695667904E-10
(PID.TID 0000.0001)  cg2d: iter=   103 ; resid.=  1.12563508936756E-10
(PID.TID 0000.0001)  cg2d: iter=   104 ; resid.=  7.36918766591674E-11
(PID.TID 0000.0001)  cg2d: iter=   105 ; resid.=  5.50513759665611E-11
(PID.TID 0000.0001)  cg2d: iter=   106 ; resid.=  4.78220425146518E-11
(PID.TID 0000.0001)  cg2d: iter=   107 ; resid.=  3.80776957322678E-11
(PID.TID 0000.0001)  cg2d: iter=   108 ; resid.=  3.14103804750603E-11
(PID.TID 0000.0001)  cg2d: iter=   109 ; resid.=  2.79293664773647E-11
(PID.TID 0000.0001)  cg2d: iter=   110 ; resid.=  2.43367287030697E-11
(PID.TID 0000.0001)  cg2d: iter=   111 ; resid.=  1.81310827528492E-11
(PID.TID 0000.0001)  cg2d: iter=   112 ; resid.=  1.28948213097218E-11
(PID.TID 0000.0001)  cg2d: iter=   113 ; resid.=  8.41851800230797E-12
(PID.TID 0000.0001)  cg2d: iter=   114 ; resid.=  5.46895288071182E-12
(PID.TID 0000.0001)  cg2d: iter=   115 ; resid.=  3.57588482802194E-12
(PID.TID 0000.0001)  cg2d: iter=   116 ; resid.=  2.45104050983906E-12
(PID.TID 0000.0001)  cg2d: iter=   117 ; resid.=  1.90925331392100E-12
(PID.TID 0000.0001)  cg2d: iter=   118 ; resid.=  1.39466926162317E-12
(PID.TID 0000.0001)  cg2d: iter=   119 ; resid.=  1.02911287921664E-12
(PID.TID 0000.0001)  cg2d: iter=   120 ; resid.=  7.79118057590559E-13
(PID.TID 0000.0001)  cg2d: iter=   121 ; resid.=  6.11369772758817E-13
(PID.TID 0000.0001)  cg2d: iter=   122 ; resid.=  4.66403485637501E-13
(PID.TID 0000.0001)  cg2d: iter=   123 ; resid.=  3.59380135753340E-13
(PID.TID 0000.0001)  cg2d: iter=   124 ; resid.=  2.79122497515940E-13
(PID.TID 0000.0001)  cg2d: iter=   125 ; resid.=  2.09250911500030E-13
(PID.TID 0000.0001)  cg2d: iter=   126 ; resid.=  1.53029006237639E-13
(PID.TID 0000.0001)  cg2d: iter=   127 ; resid.=  1.25745688982338E-13
(PID.TID 0000.0001)  cg2d: iter=   128 ; resid.=  1.06382776746020E-13
(PID.TID 0000.0001)  cg2d: iter=   129 ; resid.=  7.89413634629635E-14
DEBUG_STATS_RL:    cg2d_x (SOLVE_FOR_PRESSURE)  min= -1.82165043354150E+01
DEBUG_STATS_RL:    cg2d_x (SOLVE_FOR_PRESSURE)  max=  9.48569061639626E+00
DEBUG_STATS_RL:    cg2d_x (SOLVE_FOR_PRESSURE) mean= -1.89834133852609E+00
DEBUG_STATS_RL:    cg2d_x (SOLVE_FOR_PRESSURE) S.D.=  7.37390988863151E+00
(PID.TID 0000.0001)      cg2d_init_res =   2.53029224920361E-01
(PID.TID 0000.0001)      cg2d_iters(min,last) =      -1     129
(PID.TID 0000.0001)      cg2d_last_res =   7.89413634629635E-14
(PID.TID 0000.0001) // =======================================================
(PID.TID 0000.0001) // Begin MONITOR dynamic field statistics
(PID.TID 0000.0001) // =======================================================
(PID.TID 0000.0001) %MON time_tsnumber                =                    63
(PID.TID 0000.0001) %MON time_secondsf                =   5.4432000000000E+06
(PID.TID 0000.0001) %MON dynstat_eta_max              =   9.6694093948991E-01
(PID.TID 0000.0001) %MON dynstat_eta_min              =  -1.8569321442829E+00
(PID.TID 0000.0001) %MON dynstat_eta_mean             =  -4.6681606892498E-03
(PID.TID 0000.0001) %MON dynstat_eta_sd               =   6.5710125633504E-01
(PID.TID 0000.0001) %MON dynstat_eta_del2             =   2.4023320996801E-03
(PID.TID 0000.0001) %MON dynstat_uvel_max             =   1.1955451728029E-01
(PID.TID 0000.0001) %MON dynstat_uvel_min             =  -1.2467135900176E-01
(PID.TID 0000.0001) %MON dynstat_uvel_mean            =   2.0933877218401E-03
(PID.TID 0000.0001) %MON dynstat_uvel_sd              =   1.2417564458665E-02
(PID.TID 0000.0001) %MON dynstat_uvel_del2            =   7.7498807097535E-05
(PID.TID 0000.0001) %MON dynstat_vvel_max             =   1.3555793438338E-01
(PID.TID 0000.0001) %MON dynstat_vvel_min             =  -9.6625407835267E-02
(PID.TID 0000.0001) %MON dynstat_vvel_mean            =   1.6825317157654E-05
(PID.TID 0000.0001) %MON dynstat_vvel_sd              =   8.2740476653250E-03
(PID.TID 0000.0001) %MON dynstat_vvel_del2            =   7.2118726757036E-05
(PID.TID 0000.0001) %MON dynstat_wvel_max             =   1.0684905146540E-04
(PID.TID 0000.0001) %MON dynstat_wvel_min             =  -6.0743987899233E-05
(PID.TID 0000.0001) %MON dynstat_wvel_mean            =   1.3420698210011E-22
(PID.TID 0000.0001) %MON dynstat_wvel_sd              =   1.0650520585138E-05
(PID.TID 0000.0001) %MON dynstat_wvel_del2            =   1.1097006686441E-07
(PID.TID 0000.0001) %MON dynstat_theta_max            =   2.9953729093327E+01
(PID.TID 0000.0001) %MON dynstat_theta_min            =  -1.9337700674453E+00
(PID.TID 0000.0001) %MON dynstat_theta_mean           =   3.6212053249504E+00
(PID.TID 0000.0001) %MON dynstat_theta_sd             =   4.4201003461138E+00
(PID.TID 0000.0001) %MON dynstat_theta_del2           =   4.7515345931217E-03
(PID.TID 0000.0001) %MON dynstat_salt_max             =   3.7458620950685E+01
(PID.TID 0000.0001) %MON dynstat_salt_min             =   2.9841057636306E+01
(PID.TID 0000.0001) %MON dynstat_salt_mean            =   3.4717305217930E+01
(PID.TID 0000.0001) %MON dynstat_salt_sd              =   2.9625594879080E-01
(PID.TID 0000.0001) %MON dynstat_salt_del2            =   9.6649937822947E-04
(PID.TID 0000.0001) %MON dynstat_sst_max              =   2.9953729093327E+01
(PID.TID 0000.0001) %MON dynstat_sst_min              =  -1.9337700674453E+00
(PID.TID 0000.0001) %MON dynstat_sst_mean             =   1.8802782297660E+01
(PID.TID 0000.0001) %MON dynstat_sst_sd               =   9.1742487357623E+00
(PID.TID 0000.0001) %MON dynstat_sst_del2             =   2.4545346615290E-02
(PID.TID 0000.0001) %MON dynstat_sss_max              =   3.7394021313625E+01
(PID.TID 0000.0001) %MON dynstat_sss_min              =   2.9841057636306E+01
(PID.TID 0000.0001) %MON dynstat_sss_mean             =   3.4839516146987E+01
(PID.TID 0000.0001) %MON dynstat_sss_sd               =   9.7851411650588E-01
(PID.TID 0000.0001) %MON dynstat_sss_del2             =   7.6285829739375E-03
(PID.TID 0000.0001) %MON forcing_qnet_max             =   3.1088366190592E+02
(PID.TID 0000.0001) %MON forcing_qnet_min             =  -1.6774622141520E+02
(PID.TID 0000.0001) %MON forcing_qnet_mean            =  -1.0168479485291E+01
(PID.TID 0000.0001) %MON forcing_qnet_sd              =   5.7577799379717E+01
(PID.TID 0000.0001) %MON forcing_qnet_del2            =   8.7481271655306E-01
(PID.TID 0000.0001) %MON forcing_qsw_max              =   0.0000000000000E+00
(PID.TID 0000.0001) %MON forcing_qsw_min              =   0.0000000000000E+00
(PID.TID 0000.0001) %MON forcing_qsw_mean             =   0.0000000000000E+00
(PID.TID 0000.0001) %MON forcing_qsw_sd               =   0.0000000000000E+00
(PID.TID 0000.0001) %MON forcing_qsw_del2             =   0.0000000000000E+00
(PID.TID 0000.0001) %MON forcing_empmr_max            =   6.9183654242503E-05
(PID.TID 0000.0001) %MON forcing_empmr_min            =  -7.8075082872905E-05
(PID.TID 0000.0001) %MON forcing_empmr_mean           =   7.2088015504532E-07
(PID.TID 0000.0001) %MON forcing_empmr_sd             =   2.6762189976849E-05
(PID.TID 0000.0001) %MON forcing_empmr_del2           =   3.5501110525875E-07
(PID.TID 0000.0001) %MON forcing_fu_max               =   3.3231299221516E-01
(PID.TID 0000.0001) %MON forcing_fu_min               =  -3.0727105190357E-01
(PID.TID 0000.0001) %MON forcing_fu_mean              =   1.9232134637429E-02
(PID.TID 0000.0001) %MON forcing_fu_sd                =   9.5991792760700E-02
(PID.TID 0000.0001) %MON forcing_fu_del2              =   7.2366523657091E-04
(PID.TID 0000.0001) %MON forcing_fv_max               =   1.5079911947250E-01
(PID.TID 0000.0001) %MON forcing_fv_min               =  -1.7441664040089E-01
(PID.TID 0000.0001) %MON forcing_fv_mean              =  -7.3940068904414E-03
(PID.TID 0000.0001) %MON forcing_fv_sd                =   4.1773346779471E-02
(PID.TID 0000.0001) %MON forcing_fv_del2              =   4.6691190936856E-04
(PID.TID 0000.0001) %MON trAdv_CFL_u_max              =   3.9851971932425E-02
(PID.TID 0000.0001) %MON trAdv_CFL_v_max              =   2.6366752537891E-02
(PID.TID 0000.0001) %MON trAdv_CFL_w_max              =   3.2458858599570E-02
(PID.TID 0000.0001) %MON advcfl_uvel_max              =   4.1296979986265E-02
(PID.TID 0000.0001) %MON advcfl_vvel_max              =   2.6336732562805E-02
(PID.TID 0000.0001) %MON advcfl_wvel_max              =   2.6482646602676E-02
(PID.TID 0000.0001) %MON advcfl_W_hf_max              =   3.1779175923211E-02
(PID.TID 0000.0001) %MON pe_b_mean                    =   5.5254507620000E-04
(PID.TID 0000.0001) %MON ke_max                       =   1.1597094410752E-02
(PID.TID 0000.0001) %MON ke_mean                      =   1.0277922811823E-04
(PID.TID 0000.0001) %MON ke_vol                       =   1.3226782436723E+18
(PID.TID 0000.0001) %MON vort_r_min                   =  -3.4462515037508E-07
(PID.TID 0000.0001) %MON vort_r_max                   =   3.9846111978231E-07
(PID.TID 0000.0001) %MON vort_a_mean                  =  -2.5274807064494E-05
(PID.TID 0000.0001) %MON vort_a_sd                    =   7.3604615150493E-05
(PID.TID 0000.0001) %MON vort_p_mean                  =  -3.1845655379954E-05
(PID.TID 0000.0001) %MON vort_p_sd                    =   1.3162511093021E-04
(PID.TID 0000.0001) %MON surfExpan_theta_mean         =   2.7641547947471E-08
(PID.TID 0000.0001) %MON surfExpan_salt_mean          =   5.4713201248680E-08
(PID.TID 0000.0001) // =======================================================
(PID.TID 0000.0001) // End MONITOR dynamic field statistics
(PID.TID 0000.0001) // =======================================================
 EXTERNAL_FIELDS_LOAD,        63 : iP,iLd,i0,i1=    2    3    2    3 ; Wght=  0.4000000000  0.6000000000
 EXTERNAL_FIELDS_LOAD: (fu0,1),fu,fv= -1.4435E-02 -2.7199E-02 -2.2093E-02 -7.4011E-03
 EXTERNAL_FIELDS_LOAD: SST,SSS,Q,E-P= -3.2309E-01  3.4516E+01  2.2543E+02  8.7993E-06
DEBUG_STATS_RL:          Uvel (THERMODYNAMICS)  min= -1.24671359001764E-01
DEBUG_STATS_RL:          Uvel (THERMODYNAMICS)  max=  1.19554517280294E-01
DEBUG_STATS_RL:          Uvel (THERMODYNAMICS) mean=  5.24835656191959E-03
DEBUG_STATS_RL:          Uvel (THERMODYNAMICS) S.D.=  2.00519443176904E-02
DEBUG_STATS_RL:          Vvel (THERMODYNAMICS)  min= -9.66254078352673E-02
DEBUG_STATS_RL:          Vvel (THERMODYNAMICS)  max=  1.35557934383383E-01
DEBUG_STATS_RL:          Vvel (THERMODYNAMICS) mean=  6.54043709287614E-04
DEBUG_STATS_RL:          Vvel (THERMODYNAMICS) S.D.=  1.35727948498516E-02
DEBUG_STATS_RL:          Wvel (THERMODYNAMICS)  min= -6.07439878992331E-05
DEBUG_STATS_RL:          Wvel (THERMODYNAMICS)  max=  1.06849051465398E-04
DEBUG_STATS_RL:          Wvel (THERMODYNAMICS) mean= -1.14517202743545E-07
DEBUG_STATS_RL:          Wvel (THERMODYNAMICS) S.D.=  9.46844762232358E-06
DEBUG_STATS_RL:         Theta (THERMODYNAMICS)  min= -1.93207493345095E+00
DEBUG_STATS_RL:         Theta (THERMODYNAMICS)  max=  2.99617839731059E+01
DEBUG_STATS_RL:         Theta (THERMODYNAMICS) mean=  3.21088098091974E+00
DEBUG_STATS_RL:         Theta (THERMODYNAMICS) S.D.=  5.86675215899574E+00
DEBUG_STATS_RL:          Salt (THERMODYNAMICS)  min= -6.86334120039182E-04
DEBUG_STATS_RL:          Salt (THERMODYNAMICS)  max=  3.74582951838644E+01
DEBUG_STATS_RL:          Salt (THERMODYNAMICS) mean=  1.88440823681650E+01
DEBUG_STATS_RL:          Salt (THERMODYNAMICS) S.D.=  1.73002996987626E+01
DEBUG_STATS_RL:         GtNm1 (THERMODYNAMICS)  min= -2.54794746341999E-06
DEBUG_STATS_RL:         GtNm1 (THERMODYNAMICS)  max=  2.12031522120932E-06
DEBUG_STATS_RL:         GtNm1 (THERMODYNAMICS) mean=  9.18672939797177E-10
DEBUG_STATS_RL:         GtNm1 (THERMODYNAMICS) S.D.=  1.43598586060000E-07
DEBUG_STATS_RL:         GsNm1 (THERMODYNAMICS)  min= -2.82857850145074E-07
DEBUG_STATS_RL:         GsNm1 (THERMODYNAMICS)  max=  2.62770426476118E-07
DEBUG_STATS_RL:         GsNm1 (THERMODYNAMICS) mean= -4.14538676836597E-10
DEBUG_STATS_RL:         GsNm1 (THERMODYNAMICS) S.D.=  1.40936611231786E-08
DEBUG_STATS_RL:                EtaN (DYNAMICS)  min= -1.85693214428289E+00
DEBUG_STATS_RL:                EtaN (DYNAMICS)  max=  9.66940939489914E-01
DEBUG_STATS_RL:                EtaN (DYNAMICS) mean= -1.93510839808980E-01
DEBUG_STATS_RL:                EtaN (DYNAMICS) S.D.=  7.51672771522075E-01
DEBUG_STATS_RL:                Uvel (DYNAMICS)  min= -1.24671359001764E-01
DEBUG_STATS_RL:                Uvel (DYNAMICS)  max=  1.19554517280294E-01
DEBUG_STATS_RL:                Uvel (DYNAMICS) mean=  5.24835656191959E-03
DEBUG_STATS_RL:                Uvel (DYNAMICS) S.D.=  2.00519443176904E-02
DEBUG_STATS_RL:                Vvel (DYNAMICS)  min= -9.66254078352673E-02
DEBUG_STATS_RL:                Vvel (DYNAMICS)  max=  1.35557934383383E-01
DEBUG_STATS_RL:                Vvel (DYNAMICS) mean=  6.54043709287614E-04
DEBUG_STATS_RL:                Vvel (DYNAMICS) S.D.=  1.35727948498516E-02
DEBUG_STATS_RL:                Wvel (DYNAMICS)  min= -6.07439878992331E-05
DEBUG_STATS_RL:                Wvel (DYNAMICS)  max=  1.06849051465398E-04
DEBUG_STATS_RL:                Wvel (DYNAMICS) mean= -1.14517202743545E-07
DEBUG_STATS_RL:                Wvel (DYNAMICS) S.D.=  9.46844762232358E-06
DEBUG_STATS_RL:               Theta (DYNAMICS)  min= -1.93207493345095E+00
DEBUG_STATS_RL:               Theta (DYNAMICS)  max=  2.99617839731059E+01
DEBUG_STATS_RL:               Theta (DYNAMICS) mean=  3.21088098091974E+00
DEBUG_STATS_RL:               Theta (DYNAMICS) S.D.=  5.86675215899574E+00
DEBUG_STATS_RL:                Salt (DYNAMICS)  min= -6.86334120039182E-04
DEBUG_STATS_RL:                Salt (DYNAMICS)  max=  3.74582951838644E+01
DEBUG_STATS_RL:                Salt (DYNAMICS) mean=  1.88440823681650E+01
DEBUG_STATS_RL:                Salt (DYNAMICS) S.D.=  1.73002996987626E+01
DEBUG_STATS_RL:                  Gu (DYNAMICS)  min= -1.24530635931211E-01
DEBUG_STATS_RL:                  Gu (DYNAMICS)  max=  1.24554322614051E-01
DEBUG_STATS_RL:                  Gu (DYNAMICS) mean=  5.25540053588266E-03
DEBUG_STATS_RL:                  Gu (DYNAMICS) S.D.=  2.05453201659584E-02
DEBUG_STATS_RL:                  Gv (DYNAMICS)  min= -1.08529975310431E-01
DEBUG_STATS_RL:                  Gv (DYNAMICS)  max=  1.36362341462786E-01
DEBUG_STATS_RL:                  Gv (DYNAMICS) mean=  3.14674108369224E-03
DEBUG_STATS_RL:                  Gv (DYNAMICS) S.D.=  1.47624846078784E-02
DEBUG_STATS_RL:               GuNm1 (DYNAMICS)  min= -9.71953453464126E-06
DEBUG_STATS_RL:               GuNm1 (DYNAMICS)  max=  9.29925600371690E-06
DEBUG_STATS_RL:               GuNm1 (DYNAMICS) mean=  5.82533009540445E-10
DEBUG_STATS_RL:               GuNm1 (DYNAMICS) S.D.=  1.18957315453971E-06
DEBUG_STATS_RL:               GvNm1 (DYNAMICS)  min= -9.97219751688405E-06
DEBUG_STATS_RL:               GvNm1 (DYNAMICS)  max=  1.57433135659343E-05
DEBUG_STATS_RL:               GvNm1 (DYNAMICS) mean=  7.38851649533976E-07
DEBUG_STATS_RL:               GvNm1 (DYNAMICS) S.D.=  2.63104350897330E-06
DEBUG_STATS_RL:               GtNm1 (DYNAMICS)  min= -2.54794746341999E-06
DEBUG_STATS_RL:               GtNm1 (DYNAMICS)  max=  2.12031522120932E-06
DEBUG_STATS_RL:               GtNm1 (DYNAMICS) mean=  9.18672939797177E-10
DEBUG_STATS_RL:               GtNm1 (DYNAMICS) S.D.=  1.43598586060000E-07
DEBUG_STATS_RL:               GsNm1 (DYNAMICS)  min= -2.82857850145074E-07
DEBUG_STATS_RL:               GsNm1 (DYNAMICS)  max=  2.62770426476118E-07
DEBUG_STATS_RL:               GsNm1 (DYNAMICS) mean= -4.14538676836597E-10
DEBUG_STATS_RL:               GsNm1 (DYNAMICS) S.D.=  1.40936611231786E-08
DEBUG_STATS_RL:    cg2d_b (SOLVE_FOR_PRESSURE)  min= -1.97734132351713E+04
DEBUG_STATS_RL:    cg2d_b (SOLVE_FOR_PRESSURE)  max=  2.45365162209469E+04
DEBUG_STATS_RL:    cg2d_b (SOLVE_FOR_PRESSURE) mean=  4.53072120470251E+00
DEBUG_STATS_RL:    cg2d_b (SOLVE_FOR_PRESSURE) S.D.=  3.89678961900540E+03
 cg2d: Sum(rhs),rhsMax =   4.27469796218591E-01  1.61162408009120E+00
(PID.TID 0000.0001)  cg2d: iter=     1 ; resid.=  6.74172944046994E-02
(PID.TID 0000.0001)  cg2d: iter=     2 ; resid.=  4.08415179290721E-02
(PID.TID 0000.0001)  cg2d: iter=     3 ; resid.=  3.70436208152709E-02
(PID.TID 0000.0001)  cg2d: iter=     4 ; resid.=  3.70534637748205E-02
(PID.TID 0000.0001)  cg2d: iter=     5 ; resid.=  3.85061911890299E-02
(PID.TID 0000.0001)  cg2d: iter=     6 ; resid.=  3.39109378934339E-02
(PID.TID 0000.0001)  cg2d: iter=     7 ; resid.=  2.63287961912415E-02
(PID.TID 0000.0001)  cg2d: iter=     8 ; resid.=  1.92870005170241E-02
(PID.TID 0000.0001)  cg2d: iter=     9 ; resid.=  1.55869098681403E-02
(PID.TID 0000.0001)  cg2d: iter=    10 ; resid.=  1.26255883643001E-02
(PID.TID 0000.0001)  cg2d: iter=    11 ; resid.=  9.78062636862924E-03
(PID.TID 0000.0001)  cg2d: iter=    12 ; resid.=  7.60840856246474E-03
(PID.TID 0000.0001)  cg2d: iter=    13 ; resid.=  5.70623696337246E-03
(PID.TID 0000.0001)  cg2d: iter=    14 ; resid.=  4.33389899605136E-03
(PID.TID 0000.0001)  cg2d: iter=    15 ; resid.=  3.65516170044349E-03
(PID.TID 0000.0001)  cg2d: iter=    16 ; resid.=  3.14364378668685E-03
(PID.TID 0000.0001)  cg2d: iter=    17 ; resid.=  2.73303510621613E-03
(PID.TID 0000.0001)  cg2d: iter=    18 ; resid.=  2.48343234988633E-03
(PID.TID 0000.0001)  cg2d: iter=    19 ; resid.=  2.16234826698606E-03
(PID.TID 0000.0001)  cg2d: iter=    20 ; resid.=  1.82769279304825E-03
(PID.TID 0000.0001)  cg2d: iter=    21 ; resid.=  1.55721646761441E-03
(PID.TID 0000.0001)  cg2d: iter=    22 ; resid.=  1.35939346196425E-03
(PID.TID 0000.0001)  cg2d: iter=    23 ; resid.=  1.14064692442483E-03
(PID.TID 0000.0001)  cg2d: iter=    24 ; resid.=  9.59304024854279E-04
(PID.TID 0000.0001)  cg2d: iter=    25 ; resid.=  7.88898771300634E-04
(PID.TID 0000.0001)  cg2d: iter=    26 ; resid.=  5.73662435983632E-04
(PID.TID 0000.0001)  cg2d: iter=    27 ; resid.=  4.64369241210535E-04
(PID.TID 0000.0001)  cg2d: iter=    28 ; resid.=  3.90624063774133E-04
(PID.TID 0000.0001)  cg2d: iter=    29 ; resid.=  3.06362324523415E-04
(PID.TID 0000.0001)  cg2d: iter=    30 ; resid.=  2.33798522959001E-04
(PID.TID 0000.0001)  cg2d: iter=    31 ; resid.=  2.13871615038513E-04
(PID.TID 0000.0001)  cg2d: iter=    32 ; resid.=  1.93815156778108E-04
(PID.TID 0000.0001)  cg2d: iter=    33 ; resid.=  1.68159297905522E-04
(PID.TID 0000.0001)  cg2d: iter=    34 ; resid.=  1.47117536448067E-04
(PID.TID 0000.0001)  cg2d: iter=    35 ; resid.=  1.20766130558199E-04
(PID.TID 0000.0001)  cg2d: iter=    36 ; resid.=  1.01427269681642E-04
(PID.TID 0000.0001)  cg2d: iter=    37 ; resid.=  8.33217510845054E-05
(PID.TID 0000.0001)  cg2d: iter=    38 ; resid.=  7.43331655189091E-05
(PID.TID 0000.0001)  cg2d: iter=    39 ; resid.=  6.53047702316774E-05
(PID.TID 0000.0001)  cg2d: iter=    40 ; resid.=  5.34371325845510E-05
(PID.TID 0000.0001)  cg2d: iter=    41 ; resid.=  3.92253934475517E-05
(PID.TID 0000.0001)  cg2d: iter=    42 ; resid.=  3.33746853690114E-05
(PID.TID 0000.0001)  cg2d: iter=    43 ; resid.=  3.23214717396049E-05
(PID.TID 0000.0001)  cg2d: iter=    44 ; resid.=  2.78700342547010E-05
(PID.TID 0000.0001)  cg2d: iter=    45 ; resid.=  2.18577767905544E-05
(PID.TID 0000.0001)  cg2d: iter=    46 ; resid.=  1.69786149353778E-05
(PID.TID 0000.0001)  cg2d: iter=    47 ; resid.=  1.31658921958046E-05
(PID.TID 0000.0001)  cg2d: iter=    48 ; resid.=  1.12528108317287E-05
(PID.TID 0000.0001)  cg2d: iter=    49 ; resid.=  1.03075034122834E-05
(PID.TID 0000.0001)  cg2d: iter=    50 ; resid.=  8.98531123907529E-06
(PID.TID 0000.0001)  cg2d: iter=    51 ; resid.=  7.24239166275818E-06
(PID.TID 0000.0001)  cg2d: iter=    52 ; resid.=  5.78096181261246E-06
(PID.TID 0000.0001)  cg2d: iter=    53 ; resid.=  4.98368139297363E-06
(PID.TID 0000.0001)  cg2d: iter=    54 ; resid.=  4.45437539359798E-06
(PID.TID 0000.0001)  cg2d: iter=    55 ; resid.=  3.75039942865044E-06
(PID.TID 0000.0001)  cg2d: iter=    56 ; resid.=  2.93709946150328E-06
(PID.TID 0000.0001)  cg2d: iter=    57 ; resid.=  2.43755565222054E-06
(PID.TID 0000.0001)  cg2d: iter=    58 ; resid.=  2.10283087002154E-06
(PID.TID 0000.0001)  cg2d: iter=    59 ; resid.=  1.66514075833741E-06
(PID.TID 0000.0001)  cg2d: iter=    60 ; resid.=  1.19359645812134E-06
(PID.TID 0000.0001)  cg2d: iter=    61 ; resid.=  8.91620799443869E-07
(PID.TID 0000.0001)  cg2d: iter=    62 ; resid.=  6.84198399422299E-07
(PID.TID 0000.0001)  cg2d: iter=    63 ; resid.=  5.09085362968541E-07
(PID.TID 0000.0001)  cg2d: iter=    64 ; resid.=  4.06578252149131E-07
(PID.TID 0000.0001)  cg2d: iter=    65 ; resid.=  3.38180602446970E-07
(PID.TID 0000.0001)  cg2d: iter=    66 ; resid.=  2.89782466326443E-07
(PID.TID 0000.0001)  cg2d: iter=    67 ; resid.=  2.43161126746099E-07
(PID.TID 0000.0001)  cg2d: iter=    68 ; resid.=  2.08842398930608E-07
(PID.TID 0000.0001)  cg2d: iter=    69 ; resid.=  1.88894057026180E-07
(PID.TID 0000.0001)  cg2d: iter=    70 ; resid.=  1.78110992297925E-07
(PID.TID 0000.0001)  cg2d: iter=    71 ; resid.=  1.67155942184982E-07
(PID.TID 0000.0001)  cg2d: iter=    72 ; resid.=  1.44829302968235E-07
(PID.TID 0000.0001)  cg2d: iter=    73 ; resid.=  1.15420567216924E-07
(PID.TID 0000.0001)  cg2d: iter=    74 ; resid.=  9.02651257019046E-08
(PID.TID 0000.0001)  cg2d: iter=    75 ; resid.=  6.66234517862395E-08
(PID.TID 0000.0001)  cg2d: iter=    76 ; resid.=  5.32358967933659E-08
(PID.TID 0000.0001)  cg2d: iter=    77 ; resid.=  4.18690895033321E-08
(PID.TID 0000.0001)  cg2d: iter=    78 ; resid.=  3.08384232676475E-08
(PID.TID 0000.0001)  cg2d: iter=    79 ; resid.=  2.39533000737489E-08
(PID.TID 0000.0001)  cg2d: iter=    80 ; resid.=  1.95992783456456E-08
(PID.TID 0000.0001)  cg2d: iter=    81 ; resid.=  1.50001748326405E-08
(PID.TID 0000.0001)  cg2d: iter=    82 ; resid.=  1.14511615569895E-08
(PID.TID 0000.0001)  cg2d: iter=    83 ; resid.=  8.82023298561021E-09
(PID.TID 0000.0001)  cg2d: iter=    84 ; resid.=  7.31907634772095E-09
(PID.TID 0000.0001)  cg2d: iter=    85 ; resid.=  5.22641316149898E-09
(PID.TID 0000.0001)  cg2d: iter=    86 ; resid.=  3.75977329596377E-09
(PID.TID 0000.0001)  cg2d: iter=    87 ; resid.=  2.95483115829165E-09
(PID.TID 0000.0001)  cg2d: iter=    88 ; resid.=  2.21811948036236E-09
(PID.TID 0000.0001)  cg2d: iter=    89 ; resid.=  1.58640847071544E-09
(PID.TID 0000.0001)  cg2d: iter=    90 ; resid.=  1.28168562225504E-09
(PID.TID 0000.0001)  cg2d: iter=    91 ; resid.=  1.12123146020797E-09
(PID.TID 0000.0001)  cg2d: iter=    92 ; resid.=  9.23034907715385E-10
(PID.TID 0000.0001)  cg2d: iter=    93 ; resid.=  7.44531374573413E-10
(PID.TID 0000.0001)  cg2d: iter=    94 ; resid.=  6.04570872339488E-10
(PID.TID 0000.0001)  cg2d: iter=    95 ; resid.=  4.80208469400333E-10
(PID.TID 0000.0001)  cg2d: iter=    96 ; resid.=  4.34453569624475E-10
(PID.TID 0000.0001)  cg2d: iter=    97 ; resid.=  3.73192422339808E-10
(PID.TID 0000.0001)  cg2d: iter=    98 ; resid.=  3.28140877496527E-10
(PID.TID 0000.0001)  cg2d: iter=    99 ; resid.=  2.76138492494133E-10
(PID.TID 0000.0001)  cg2d: iter=   100 ; resid.=  2.19533756318020E-10
(PID.TID 0000.0001)  cg2d: iter=   101 ; resid.=  1.72895437684699E-10
(PID.TID 0000.0001)  cg2d: iter=   102 ; resid.=  1.26034716161822E-10
(PID.TID 0000.0001)  cg2d: iter=   103 ; resid.=  9.27911424739859E-11
(PID.TID 0000.0001)  cg2d: iter=   104 ; resid.=  6.05052827706427E-11
(PID.TID 0000.0001)  cg2d: iter=   105 ; resid.=  4.32040139569828E-11
(PID.TID 0000.0001)  cg2d: iter=   106 ; resid.=  3.46491545885335E-11
(PID.TID 0000.0001)  cg2d: iter=   107 ; resid.=  2.44500978484681E-11
(PID.TID 0000.0001)  cg2d: iter=   108 ; resid.=  1.73693771139115E-11
(PID.TID 0000.0001)  cg2d: iter=   109 ; resid.=  1.34910656728343E-11
(PID.TID 0000.0001)  cg2d: iter=   110 ; resid.=  1.13064210564450E-11
(PID.TID 0000.0001)  cg2d: iter=   111 ; resid.=  9.11187144355918E-12
(PID.TID 0000.0001)  cg2d: iter=   112 ; resid.=  7.68438135790812E-12
(PID.TID 0000.0001)  cg2d: iter=   113 ; resid.=  5.94558828719451E-12
(PID.TID 0000.0001)  cg2d: iter=   114 ; resid.=  4.68406117255851E-12
(PID.TID 0000.0001)  cg2d: iter=   115 ; resid.=  3.70348321379269E-12
(PID.TID 0000.0001)  cg2d: iter=   116 ; resid.=  2.86519085203997E-12
(PID.TID 0000.0001)  cg2d: iter=   117 ; resid.=  2.30569939850581E-12
(PID.TID 0000.0001)  cg2d: iter=   118 ; resid.=  1.62139475088807E-12
(PID.TID 0000.0001)  cg2d: iter=   119 ; resid.=  1.11688942703581E-12
(PID.TID 0000.0001)  cg2d: iter=   120 ; resid.=  7.76755245897966E-13
(PID.TID 0000.0001)  cg2d: iter=   121 ; resid.=  5.45567603349133E-13
(PID.TID 0000.0001)  cg2d: iter=   122 ; resid.=  3.77490125094821E-13
(PID.TID 0000.0001)  cg2d: iter=   123 ; resid.=  2.71141485307194E-13
(PID.TID 0000.0001)  cg2d: iter=   124 ; resid.=  2.07932992229030E-13
(PID.TID 0000.0001)  cg2d: iter=   125 ; resid.=  1.59654615335373E-13
(PID.TID 0000.0001)  cg2d: iter=   126 ; resid.=  1.21965558056652E-13
(PID.TID 0000.0001)  cg2d: iter=   127 ; resid.=  1.02824951489911E-13
(PID.TID 0000.0001)  cg2d: iter=   128 ; resid.=  8.49688165136797E-14
DEBUG_STATS_RL:    cg2d_x (SOLVE_FOR_PRESSURE)  min= -1.82523091809933E+01
DEBUG_STATS_RL:    cg2d_x (SOLVE_FOR_PRESSURE)  max=  9.45207571793106E+00
DEBUG_STATS_RL:    cg2d_x (SOLVE_FOR_PRESSURE) mean= -1.89320355333180E+00
DEBUG_STATS_RL:    cg2d_x (SOLVE_FOR_PRESSURE) S.D.=  7.34544093287280E+00
(PID.TID 0000.0001)      cg2d_init_res =   2.50772522650447E-01
(PID.TID 0000.0001)      cg2d_iters(min,last) =      -1     128
(PID.TID 0000.0001)      cg2d_last_res =   8.49688165136797E-14
(PID.TID 0000.0001) // =======================================================
(PID.TID 0000.0001) // Begin MONITOR dynamic field statistics
(PID.TID 0000.0001) // =======================================================
(PID.TID 0000.0001) %MON time_tsnumber                =                    64
(PID.TID 0000.0001) %MON time_secondsf                =   5.5296000000000E+06
(PID.TID 0000.0001) %MON dynstat_eta_max              =   9.6351434433552E-01
(PID.TID 0000.0001) %MON dynstat_eta_min              =  -1.8605819756364E+00
(PID.TID 0000.0001) %MON dynstat_eta_mean             =  -4.7272457862240E-03
(PID.TID 0000.0001) %MON dynstat_eta_sd               =   6.5380091020285E-01
(PID.TID 0000.0001) %MON dynstat_eta_del2             =   2.4064230833222E-03
(PID.TID 0000.0001) %MON dynstat_uvel_max             =   1.2085162084671E-01
(PID.TID 0000.0001) %MON dynstat_uvel_min             =  -1.2448021769046E-01
(PID.TID 0000.0001) %MON dynstat_uvel_mean            =   2.1002364777449E-03
(PID.TID 0000.0001) %MON dynstat_uvel_sd              =   1.2473812919407E-02
(PID.TID 0000.0001) %MON dynstat_uvel_del2            =   7.7751398346456E-05
(PID.TID 0000.0001) %MON dynstat_vvel_max             =   1.3735899110458E-01
(PID.TID 0000.0001) %MON dynstat_vvel_min             =  -9.8208190447879E-02
(PID.TID 0000.0001) %MON dynstat_vvel_mean            =   2.8883336726751E-05
(PID.TID 0000.0001) %MON dynstat_vvel_sd              =   8.2646497553254E-03
(PID.TID 0000.0001) %MON dynstat_vvel_del2            =   7.2308437129579E-05
(PID.TID 0000.0001) %MON dynstat_wvel_max             =   1.0920203866647E-04
(PID.TID 0000.0001) %MON dynstat_wvel_min             =  -6.5455604786513E-05
(PID.TID 0000.0001) %MON dynstat_wvel_mean            =   2.9630203692150E-23
(PID.TID 0000.0001) %MON dynstat_wvel_sd              =   1.0535096380171E-05
(PID.TID 0000.0001) %MON dynstat_wvel_del2            =   1.0927704615973E-07
(PID.TID 0000.0001) %MON dynstat_theta_max            =   2.9961783973106E+01
(PID.TID 0000.0001) %MON dynstat_theta_min            =  -1.9320749334510E+00
(PID.TID 0000.0001) %MON dynstat_theta_mean           =   3.6212399888006E+00
(PID.TID 0000.0001) %MON dynstat_theta_sd             =   4.4202617277219E+00
(PID.TID 0000.0001) %MON dynstat_theta_del2           =   4.7474861567136E-03
(PID.TID 0000.0001) %MON dynstat_salt_max             =   3.7458295183864E+01
(PID.TID 0000.0001) %MON dynstat_salt_min             =   2.9841900056558E+01
(PID.TID 0000.0001) %MON dynstat_salt_mean            =   3.4717305461506E+01
(PID.TID 0000.0001) %MON dynstat_salt_sd              =   2.9625709394291E-01
(PID.TID 0000.0001) %MON dynstat_salt_del2            =   9.6546281503373E-04
(PID.TID 0000.0001) %MON dynstat_sst_max              =   2.9961783973106E+01
(PID.TID 0000.0001) %MON dynstat_sst_min              =  -1.9320749334510E+00
(PID.TID 0000.0001) %MON dynstat_sst_mean             =   1.8804435948804E+01
(PID.TID 0000.0001) %MON dynstat_sst_sd               =   9.1800216879676E+00
(PID.TID 0000.0001) %MON dynstat_sst_del2             =   2.4470303508691E-02
(PID.TID 0000.0001) %MON dynstat_sss_max              =   3.7394213191028E+01
(PID.TID 0000.0001) %MON dynstat_sss_min              =   2.9841900056558E+01
(PID.TID 0000.0001) %MON dynstat_sss_mean             =   3.4839274062549E+01
(PID.TID 0000.0001) %MON dynstat_sss_sd               =   9.7873831267050E-01
(PID.TID 0000.0001) %MON dynstat_sss_del2             =   7.6210253858685E-03
(PID.TID 0000.0001) %MON forcing_qnet_max             =   3.0808551025391E+02
(PID.TID 0000.0001) %MON forcing_qnet_min             =  -1.6744694213867E+02
(PID.TID 0000.0001) %MON forcing_qnet_mean            =  -9.9451399856641E+00
(PID.TID 0000.0001) %MON forcing_qnet_sd              =   5.6487700992384E+01
(PID.TID 0000.0001) %MON forcing_qnet_del2            =   8.7196058081462E-01
(PID.TID 0000.0001) %MON forcing_qsw_max              =   0.0000000000000E+00
(PID.TID 0000.0001) %MON forcing_qsw_min              =   0.0000000000000E+00
(PID.TID 0000.0001) %MON forcing_qsw_mean             =   0.0000000000000E+00
(PID.TID 0000.0001) %MON forcing_qsw_sd               =   0.0000000000000E+00
(PID.TID 0000.0001) %MON forcing_qsw_del2             =   0.0000000000000E+00
(PID.TID 0000.0001) %MON forcing_empmr_max            =   6.9177897898953E-05
(PID.TID 0000.0001) %MON forcing_empmr_min            =  -7.8474262465988E-05
(PID.TID 0000.0001) %MON forcing_empmr_mean           =   7.0779022417096E-07
(PID.TID 0000.0001) %MON forcing_empmr_sd             =   2.6711132545716E-05
(PID.TID 0000.0001) %MON forcing_empmr_del2           =   3.5552428900822E-07
(PID.TID 0000.0001) %MON forcing_fu_max               =   3.3425440788269E-01
(PID.TID 0000.0001) %MON forcing_fu_min               =  -3.1265568137169E-01
(PID.TID 0000.0001) %MON forcing_fu_mean              =   1.9326334226887E-02
(PID.TID 0000.0001) %MON forcing_fu_sd                =   9.6352675211700E-02
(PID.TID 0000.0001) %MON forcing_fu_del2              =   7.2933779422692E-04
(PID.TID 0000.0001) %MON forcing_fv_max               =   1.4972177743912E-01
(PID.TID 0000.0001) %MON forcing_fv_min               =  -1.7535814046860E-01
(PID.TID 0000.0001) %MON forcing_fv_mean              =  -7.4044352404109E-03
(PID.TID 0000.0001) %MON forcing_fv_sd                =   4.1735684182933E-02
(PID.TID 0000.0001) %MON forcing_fv_del2              =   4.6697714482083E-04
(PID.TID 0000.0001) %MON trAdv_CFL_u_max              =   4.1305367698261E-02
(PID.TID 0000.0001) %MON trAdv_CFL_v_max              =   2.6176627345860E-02
(PID.TID 0000.0001) %MON trAdv_CFL_w_max              =   3.1779175923211E-02
(PID.TID 0000.0001) %MON advcfl_uvel_max              =   4.2545272043174E-02
(PID.TID 0000.0001) %MON advcfl_vvel_max              =   2.6686648998257E-02
(PID.TID 0000.0001) %MON advcfl_wvel_max              =   2.6201444070830E-02
(PID.TID 0000.0001) %MON advcfl_W_hf_max              =   3.1441732884996E-02
(PID.TID 0000.0001) %MON pe_b_mean                    =   5.4700959674670E-04
(PID.TID 0000.0001) %MON ke_max                       =   1.1313645496009E-02
(PID.TID 0000.0001) %MON ke_mean                      =   1.0335883238363E-04
(PID.TID 0000.0001) %MON ke_vol                       =   1.3226782436723E+18
(PID.TID 0000.0001) %MON vort_r_min                   =  -3.3141184666802E-07
(PID.TID 0000.0001) %MON vort_r_max                   =   4.0174193835566E-07
(PID.TID 0000.0001) %MON vort_a_mean                  =  -2.5274807170426E-05
(PID.TID 0000.0001) %MON vort_a_sd                    =   7.3604613625099E-05
(PID.TID 0000.0001) %MON vort_p_mean                  =  -3.1845655513426E-05
(PID.TID 0000.0001) %MON vort_p_sd                    =   1.3162510973833E-04
(PID.TID 0000.0001) %MON surfExpan_theta_mean         =  -5.2957936294291E-08
(PID.TID 0000.0001) %MON surfExpan_salt_mean          =   5.4865961699869E-08
(PID.TID 0000.0001) // =======================================================
(PID.TID 0000.0001) // End MONITOR dynamic field statistics
(PID.TID 0000.0001) // =======================================================
 EXTERNAL_FIELDS_LOAD,        64 : iP,iLd,i0,i1=    2    3    2    3 ; Wght=  0.3666666667  0.6333333333
 EXTERNAL_FIELDS_LOAD: (fu0,1),fu,fv= -1.4435E-02 -2.7199E-02 -2.2519E-02 -6.8325E-03
 EXTERNAL_FIELDS_LOAD: SST,SSS,Q,E-P= -3.1149E-01  3.4521E+01  2.2459E+02  8.8228E-06
DEBUG_STATS_RL:          Uvel (THERMODYNAMICS)  min= -1.24480217690464E-01
DEBUG_STATS_RL:          Uvel (THERMODYNAMICS)  max=  1.20851620846706E-01
DEBUG_STATS_RL:          Uvel (THERMODYNAMICS) mean=  5.32430887749929E-03
DEBUG_STATS_RL:          Uvel (THERMODYNAMICS) S.D.=  2.01807950920839E-02
DEBUG_STATS_RL:          Vvel (THERMODYNAMICS)  min= -9.82081904478790E-02
DEBUG_STATS_RL:          Vvel (THERMODYNAMICS)  max=  1.37358991104580E-01
DEBUG_STATS_RL:          Vvel (THERMODYNAMICS) mean=  6.07067657707876E-04
DEBUG_STATS_RL:          Vvel (THERMODYNAMICS) S.D.=  1.35352212546771E-02
DEBUG_STATS_RL:          Wvel (THERMODYNAMICS)  min= -6.54556047865132E-05
DEBUG_STATS_RL:          Wvel (THERMODYNAMICS)  max=  1.09202038666473E-04
DEBUG_STATS_RL:          Wvel (THERMODYNAMICS) mean= -1.21451742580547E-07
DEBUG_STATS_RL:          Wvel (THERMODYNAMICS) S.D.=  9.35710508308912E-06
DEBUG_STATS_RL:         Theta (THERMODYNAMICS)  min= -1.93041486631292E+00
DEBUG_STATS_RL:         Theta (THERMODYNAMICS)  max=  2.99698728474961E+01
DEBUG_STATS_RL:         Theta (THERMODYNAMICS) mean=  3.21090023681314E+00
DEBUG_STATS_RL:         Theta (THERMODYNAMICS) S.D.=  5.86704590893298E+00
DEBUG_STATS_RL:          Salt (THERMODYNAMICS)  min= -6.86334120039182E-04
DEBUG_STATS_RL:          Salt (THERMODYNAMICS)  max=  3.74578587394682E+01
DEBUG_STATS_RL:          Salt (THERMODYNAMICS) mean=  1.88440687374467E+01
DEBUG_STATS_RL:          Salt (THERMODYNAMICS) S.D.=  1.73002875815788E+01
DEBUG_STATS_RL:         GtNm1 (THERMODYNAMICS)  min= -2.62814906734123E-06
DEBUG_STATS_RL:         GtNm1 (THERMODYNAMICS)  max=  1.77489911816641E-06
DEBUG_STATS_RL:         GtNm1 (THERMODYNAMICS) mean=  1.19466472805779E-09
DEBUG_STATS_RL:         GtNm1 (THERMODYNAMICS) S.D.=  1.40965427078083E-07
DEBUG_STATS_RL:         GsNm1 (THERMODYNAMICS)  min= -3.25833027412119E-07
DEBUG_STATS_RL:         GsNm1 (THERMODYNAMICS)  max=  2.42724277596815E-07
DEBUG_STATS_RL:         GsNm1 (THERMODYNAMICS) mean= -3.81278320525744E-10
DEBUG_STATS_RL:         GsNm1 (THERMODYNAMICS) S.D.=  1.38186885132491E-08
DEBUG_STATS_RL:                EtaN (DYNAMICS)  min= -1.86058197563640E+00
DEBUG_STATS_RL:                EtaN (DYNAMICS)  max=  9.63514344335524E-01
DEBUG_STATS_RL:                EtaN (DYNAMICS) mean= -1.92987110431376E-01
DEBUG_STATS_RL:                EtaN (DYNAMICS) S.D.=  7.48770737295902E-01
DEBUG_STATS_RL:                Uvel (DYNAMICS)  min= -1.24480217690464E-01
DEBUG_STATS_RL:                Uvel (DYNAMICS)  max=  1.20851620846706E-01
DEBUG_STATS_RL:                Uvel (DYNAMICS) mean=  5.32430887749929E-03
DEBUG_STATS_RL:                Uvel (DYNAMICS) S.D.=  2.01807950920839E-02
DEBUG_STATS_RL:                Vvel (DYNAMICS)  min= -9.82081904478790E-02
DEBUG_STATS_RL:                Vvel (DYNAMICS)  max=  1.37358991104580E-01
DEBUG_STATS_RL:                Vvel (DYNAMICS) mean=  6.07067657707876E-04
DEBUG_STATS_RL:                Vvel (DYNAMICS) S.D.=  1.35352212546771E-02
DEBUG_STATS_RL:                Wvel (DYNAMICS)  min= -6.54556047865132E-05
DEBUG_STATS_RL:                Wvel (DYNAMICS)  max=  1.09202038666473E-04
DEBUG_STATS_RL:                Wvel (DYNAMICS) mean= -1.21451742580547E-07
DEBUG_STATS_RL:                Wvel (DYNAMICS) S.D.=  9.35710508308912E-06
DEBUG_STATS_RL:               Theta (DYNAMICS)  min= -1.93041486631292E+00
DEBUG_STATS_RL:               Theta (DYNAMICS)  max=  2.99698728474961E+01
DEBUG_STATS_RL:               Theta (DYNAMICS) mean=  3.21090023681314E+00
DEBUG_STATS_RL:               Theta (DYNAMICS) S.D.=  5.86704590893298E+00
DEBUG_STATS_RL:                Salt (DYNAMICS)  min= -6.86334120039182E-04
DEBUG_STATS_RL:                Salt (DYNAMICS)  max=  3.74578587394682E+01
DEBUG_STATS_RL:                Salt (DYNAMICS) mean=  1.88440687374467E+01
DEBUG_STATS_RL:                Salt (DYNAMICS) S.D.=  1.73002875815788E+01
DEBUG_STATS_RL:                  Gu (DYNAMICS)  min= -1.24316961164802E-01
DEBUG_STATS_RL:                  Gu (DYNAMICS)  max=  1.28643989972611E-01
DEBUG_STATS_RL:                  Gu (DYNAMICS) mean=  5.33994535520310E-03
DEBUG_STATS_RL:                  Gu (DYNAMICS) S.D.=  2.07269272863664E-02
DEBUG_STATS_RL:                  Gv (DYNAMICS)  min= -1.09084985306422E-01
DEBUG_STATS_RL:                  Gv (DYNAMICS)  max=  1.38334652213352E-01
DEBUG_STATS_RL:                  Gv (DYNAMICS) mean=  3.11842819660792E-03
DEBUG_STATS_RL:                  Gv (DYNAMICS) S.D.=  1.46762898291446E-02
DEBUG_STATS_RL:               GuNm1 (DYNAMICS)  min= -9.73815884332426E-06
DEBUG_STATS_RL:               GuNm1 (DYNAMICS)  max=  9.29265593045202E-06
DEBUG_STATS_RL:               GuNm1 (DYNAMICS) mean=  9.96808352591886E-10
DEBUG_STATS_RL:               GuNm1 (DYNAMICS) S.D.=  1.19058417146188E-06
DEBUG_STATS_RL:               GvNm1 (DYNAMICS)  min= -9.99530626262200E-06
DEBUG_STATS_RL:               GvNm1 (DYNAMICS)  max=  1.57089788344937E-05
DEBUG_STATS_RL:               GvNm1 (DYNAMICS) mean=  7.38331815274880E-07
DEBUG_STATS_RL:               GvNm1 (DYNAMICS) S.D.=  2.62990523832306E-06
DEBUG_STATS_RL:               GtNm1 (DYNAMICS)  min= -2.62814906734123E-06
DEBUG_STATS_RL:               GtNm1 (DYNAMICS)  max=  1.77489911816641E-06
DEBUG_STATS_RL:               GtNm1 (DYNAMICS) mean=  1.19466472805779E-09
DEBUG_STATS_RL:               GtNm1 (DYNAMICS) S.D.=  1.40965427078083E-07
DEBUG_STATS_RL:               GsNm1 (DYNAMICS)  min= -3.25833027412119E-07
DEBUG_STATS_RL:               GsNm1 (DYNAMICS)  max=  2.42724277596815E-07
DEBUG_STATS_RL:               GsNm1 (DYNAMICS) mean= -3.81278320525744E-10
DEBUG_STATS_RL:               GsNm1 (DYNAMICS) S.D.=  1.38186885132491E-08
DEBUG_STATS_RL:    cg2d_b (SOLVE_FOR_PRESSURE)  min= -1.98389808728186E+04
DEBUG_STATS_RL:    cg2d_b (SOLVE_FOR_PRESSURE)  max=  2.43706233951741E+04
DEBUG_STATS_RL:    cg2d_b (SOLVE_FOR_PRESSURE) mean=  4.58630267493195E+00
DEBUG_STATS_RL:    cg2d_b (SOLVE_FOR_PRESSURE) S.D.=  3.89854996490107E+03
 cg2d: Sum(rhs),rhsMax =   4.35659380570882E-01  1.60072779512872E+00
(PID.TID 0000.0001)  cg2d: iter=     1 ; resid.=  6.84262619594755E-02
(PID.TID 0000.0001)  cg2d: iter=     2 ; resid.=  4.31998061875856E-02
(PID.TID 0000.0001)  cg2d: iter=     3 ; resid.=  4.10733467649318E-02
(PID.TID 0000.0001)  cg2d: iter=     4 ; resid.=  4.07769925985777E-02
(PID.TID 0000.0001)  cg2d: iter=     5 ; resid.=  4.06976859724912E-02
(PID.TID 0000.0001)  cg2d: iter=     6 ; resid.=  3.50803602520378E-02
(PID.TID 0000.0001)  cg2d: iter=     7 ; resid.=  2.75129333099604E-02
(PID.TID 0000.0001)  cg2d: iter=     8 ; resid.=  2.06954784884347E-02
(PID.TID 0000.0001)  cg2d: iter=     9 ; resid.=  1.75250561640986E-02
(PID.TID 0000.0001)  cg2d: iter=    10 ; resid.=  1.45308350122148E-02
(PID.TID 0000.0001)  cg2d: iter=    11 ; resid.=  1.12236284454506E-02
(PID.TID 0000.0001)  cg2d: iter=    12 ; resid.=  8.55065153059085E-03
(PID.TID 0000.0001)  cg2d: iter=    13 ; resid.=  6.32130474272804E-03
(PID.TID 0000.0001)  cg2d: iter=    14 ; resid.=  4.74196404391248E-03
(PID.TID 0000.0001)  cg2d: iter=    15 ; resid.=  3.99656329362772E-03
(PID.TID 0000.0001)  cg2d: iter=    16 ; resid.=  3.51411583715164E-03
(PID.TID 0000.0001)  cg2d: iter=    17 ; resid.=  3.19982511216165E-03
(PID.TID 0000.0001)  cg2d: iter=    18 ; resid.=  2.97586264583060E-03
(PID.TID 0000.0001)  cg2d: iter=    19 ; resid.=  2.56512644237909E-03
(PID.TID 0000.0001)  cg2d: iter=    20 ; resid.=  2.12030036368512E-03
(PID.TID 0000.0001)  cg2d: iter=    21 ; resid.=  1.73192785092522E-03
(PID.TID 0000.0001)  cg2d: iter=    22 ; resid.=  1.47721158860841E-03
(PID.TID 0000.0001)  cg2d: iter=    23 ; resid.=  1.25877855058513E-03
(PID.TID 0000.0001)  cg2d: iter=    24 ; resid.=  1.07297343355667E-03
(PID.TID 0000.0001)  cg2d: iter=    25 ; resid.=  8.85217486008725E-04
(PID.TID 0000.0001)  cg2d: iter=    26 ; resid.=  6.44704648719696E-04
(PID.TID 0000.0001)  cg2d: iter=    27 ; resid.=  5.32330785652904E-04
(PID.TID 0000.0001)  cg2d: iter=    28 ; resid.=  4.44623195806594E-04
(PID.TID 0000.0001)  cg2d: iter=    29 ; resid.=  3.48028863149807E-04
(PID.TID 0000.0001)  cg2d: iter=    30 ; resid.=  2.64278683390058E-04
(PID.TID 0000.0001)  cg2d: iter=    31 ; resid.=  2.41864178402193E-04
(PID.TID 0000.0001)  cg2d: iter=    32 ; resid.=  2.19141314140983E-04
(PID.TID 0000.0001)  cg2d: iter=    33 ; resid.=  1.92188202280969E-04
(PID.TID 0000.0001)  cg2d: iter=    34 ; resid.=  1.72239305401005E-04
(PID.TID 0000.0001)  cg2d: iter=    35 ; resid.=  1.44378369575834E-04
(PID.TID 0000.0001)  cg2d: iter=    36 ; resid.=  1.23088426976705E-04
(PID.TID 0000.0001)  cg2d: iter=    37 ; resid.=  9.99388828076048E-05
(PID.TID 0000.0001)  cg2d: iter=    38 ; resid.=  8.90593958799506E-05
(PID.TID 0000.0001)  cg2d: iter=    39 ; resid.=  7.81360182525264E-05
(PID.TID 0000.0001)  cg2d: iter=    40 ; resid.=  6.32919420211936E-05
(PID.TID 0000.0001)  cg2d: iter=    41 ; resid.=  4.62520786769562E-05
(PID.TID 0000.0001)  cg2d: iter=    42 ; resid.=  4.01431522959740E-05
(PID.TID 0000.0001)  cg2d: iter=    43 ; resid.=  3.80490045375390E-05
(PID.TID 0000.0001)  cg2d: iter=    44 ; resid.=  3.14542425643915E-05
(PID.TID 0000.0001)  cg2d: iter=    45 ; resid.=  2.43142566654853E-05
(PID.TID 0000.0001)  cg2d: iter=    46 ; resid.=  1.89644384714519E-05
(PID.TID 0000.0001)  cg2d: iter=    47 ; resid.=  1.48250599449988E-05
(PID.TID 0000.0001)  cg2d: iter=    48 ; resid.=  1.28281666153783E-05
(PID.TID 0000.0001)  cg2d: iter=    49 ; resid.=  1.19144486133559E-05
(PID.TID 0000.0001)  cg2d: iter=    50 ; resid.=  1.00599832016516E-05
(PID.TID 0000.0001)  cg2d: iter=    51 ; resid.=  7.80355894670228E-06
(PID.TID 0000.0001)  cg2d: iter=    52 ; resid.=  6.09180435694928E-06
(PID.TID 0000.0001)  cg2d: iter=    53 ; resid.=  5.24065825906767E-06
(PID.TID 0000.0001)  cg2d: iter=    54 ; resid.=  4.59930146241308E-06
(PID.TID 0000.0001)  cg2d: iter=    55 ; resid.=  3.83428817002660E-06
(PID.TID 0000.0001)  cg2d: iter=    56 ; resid.=  3.07255455300392E-06
(PID.TID 0000.0001)  cg2d: iter=    57 ; resid.=  2.64297041712306E-06
(PID.TID 0000.0001)  cg2d: iter=    58 ; resid.=  2.28284369026338E-06
(PID.TID 0000.0001)  cg2d: iter=    59 ; resid.=  1.69513039896119E-06
(PID.TID 0000.0001)  cg2d: iter=    60 ; resid.=  1.14150785235172E-06
(PID.TID 0000.0001)  cg2d: iter=    61 ; resid.=  8.28938348173377E-07
(PID.TID 0000.0001)  cg2d: iter=    62 ; resid.=  6.46457884887640E-07
(PID.TID 0000.0001)  cg2d: iter=    63 ; resid.=  4.93983204943999E-07
(PID.TID 0000.0001)  cg2d: iter=    64 ; resid.=  3.93813666809642E-07
(PID.TID 0000.0001)  cg2d: iter=    65 ; resid.=  3.20673187798203E-07
(PID.TID 0000.0001)  cg2d: iter=    66 ; resid.=  2.65026623116489E-07
(PID.TID 0000.0001)  cg2d: iter=    67 ; resid.=  2.18730660605283E-07
(PID.TID 0000.0001)  cg2d: iter=    68 ; resid.=  1.89661075585444E-07
(PID.TID 0000.0001)  cg2d: iter=    69 ; resid.=  1.68206236047436E-07
(PID.TID 0000.0001)  cg2d: iter=    70 ; resid.=  1.55161796950083E-07
(PID.TID 0000.0001)  cg2d: iter=    71 ; resid.=  1.45221237411564E-07
(PID.TID 0000.0001)  cg2d: iter=    72 ; resid.=  1.29513179789473E-07
(PID.TID 0000.0001)  cg2d: iter=    73 ; resid.=  1.10731226295730E-07
(PID.TID 0000.0001)  cg2d: iter=    74 ; resid.=  9.21952453969299E-08
(PID.TID 0000.0001)  cg2d: iter=    75 ; resid.=  6.89402717452317E-08
(PID.TID 0000.0001)  cg2d: iter=    76 ; resid.=  5.18491764731379E-08
(PID.TID 0000.0001)  cg2d: iter=    77 ; resid.=  3.93880876409628E-08
(PID.TID 0000.0001)  cg2d: iter=    78 ; resid.=  2.95219170644557E-08
(PID.TID 0000.0001)  cg2d: iter=    79 ; resid.=  2.39324134826709E-08
(PID.TID 0000.0001)  cg2d: iter=    80 ; resid.=  1.96924488719294E-08
(PID.TID 0000.0001)  cg2d: iter=    81 ; resid.=  1.48932975567536E-08
(PID.TID 0000.0001)  cg2d: iter=    82 ; resid.=  1.14782450588711E-08
(PID.TID 0000.0001)  cg2d: iter=    83 ; resid.=  8.94730034737333E-09
(PID.TID 0000.0001)  cg2d: iter=    84 ; resid.=  7.63994360560992E-09
(PID.TID 0000.0001)  cg2d: iter=    85 ; resid.=  5.50158945108974E-09
(PID.TID 0000.0001)  cg2d: iter=    86 ; resid.=  3.80570450509154E-09
(PID.TID 0000.0001)  cg2d: iter=    87 ; resid.=  2.86904403285794E-09
(PID.TID 0000.0001)  cg2d: iter=    88 ; resid.=  2.06644801436086E-09
(PID.TID 0000.0001)  cg2d: iter=    89 ; resid.=  1.44592318640707E-09
(PID.TID 0000.0001)  cg2d: iter=    90 ; resid.=  1.12880813412992E-09
(PID.TID 0000.0001)  cg2d: iter=    91 ; resid.=  9.33886965963176E-10
(PID.TID 0000.0001)  cg2d: iter=    92 ; resid.=  7.36897005452040E-10
(PID.TID 0000.0001)  cg2d: iter=    93 ; resid.=  5.71150481573499E-10
(PID.TID 0000.0001)  cg2d: iter=    94 ; resid.=  4.50054005569436E-10
(PID.TID 0000.0001)  cg2d: iter=    95 ; resid.=  3.42311389900499E-10
(PID.TID 0000.0001)  cg2d: iter=    96 ; resid.=  2.99109000793078E-10
(PID.TID 0000.0001)  cg2d: iter=    97 ; resid.=  2.59811966691755E-10
(PID.TID 0000.0001)  cg2d: iter=    98 ; resid.=  2.27914924253361E-10
(PID.TID 0000.0001)  cg2d: iter=    99 ; resid.=  1.98490997303975E-10
(PID.TID 0000.0001)  cg2d: iter=   100 ; resid.=  1.67369877460228E-10
(PID.TID 0000.0001)  cg2d: iter=   101 ; resid.=  1.43176494598427E-10
(PID.TID 0000.0001)  cg2d: iter=   102 ; resid.=  1.11890586308444E-10
(PID.TID 0000.0001)  cg2d: iter=   103 ; resid.=  8.62737218124213E-11
(PID.TID 0000.0001)  cg2d: iter=   104 ; resid.=  5.91108447610747E-11
(PID.TID 0000.0001)  cg2d: iter=   105 ; resid.=  4.39777796195499E-11
(PID.TID 0000.0001)  cg2d: iter=   106 ; resid.=  3.69353935701209E-11
(PID.TID 0000.0001)  cg2d: iter=   107 ; resid.=  2.70518279464802E-11
(PID.TID 0000.0001)  cg2d: iter=   108 ; resid.=  1.94103458204229E-11
(PID.TID 0000.0001)  cg2d: iter=   109 ; resid.=  1.44646100732520E-11
(PID.TID 0000.0001)  cg2d: iter=   110 ; resid.=  1.11835381720332E-11
(PID.TID 0000.0001)  cg2d: iter=   111 ; resid.=  8.81266003975185E-12
(PID.TID 0000.0001)  cg2d: iter=   112 ; resid.=  7.39042887650002E-12
(PID.TID 0000.0001)  cg2d: iter=   113 ; resid.=  5.77378558292686E-12
(PID.TID 0000.0001)  cg2d: iter=   114 ; resid.=  4.72236016455307E-12
(PID.TID 0000.0001)  cg2d: iter=   115 ; resid.=  3.81424909760643E-12
(PID.TID 0000.0001)  cg2d: iter=   116 ; resid.=  2.93882312683904E-12
(PID.TID 0000.0001)  cg2d: iter=   117 ; resid.=  2.34341853706607E-12
(PID.TID 0000.0001)  cg2d: iter=   118 ; resid.=  1.65682663053593E-12
(PID.TID 0000.0001)  cg2d: iter=   119 ; resid.=  1.13763722484066E-12
(PID.TID 0000.0001)  cg2d: iter=   120 ; resid.=  7.90689809853293E-13
(PID.TID 0000.0001)  cg2d: iter=   121 ; resid.=  5.53820523087599E-13
(PID.TID 0000.0001)  cg2d: iter=   122 ; resid.=  3.94647604279269E-13
(PID.TID 0000.0001)  cg2d: iter=   123 ; resid.=  2.93004332529111E-13
(PID.TID 0000.0001)  cg2d: iter=   124 ; resid.=  2.38418740168572E-13
(PID.TID 0000.0001)  cg2d: iter=   125 ; resid.=  1.94345441766236E-13
(PID.TID 0000.0001)  cg2d: iter=   126 ; resid.=  1.55684454840701E-13
(PID.TID 0000.0001)  cg2d: iter=   127 ; resid.=  1.31105265434074E-13
(PID.TID 0000.0001)  cg2d: iter=   128 ; resid.=  1.04151585128772E-13
(PID.TID 0000.0001)  cg2d: iter=   129 ; resid.=  7.48543490277438E-14
DEBUG_STATS_RL:    cg2d_x (SOLVE_FOR_PRESSURE)  min= -1.83103693867614E+01
DEBUG_STATS_RL:    cg2d_x (SOLVE_FOR_PRESSURE)  max=  9.41706312246406E+00
DEBUG_STATS_RL:    cg2d_x (SOLVE_FOR_PRESSURE) mean= -1.88523071490994E+00
DEBUG_STATS_RL:    cg2d_x (SOLVE_FOR_PRESSURE) S.D.=  7.31360507906267E+00
(PID.TID 0000.0001)      cg2d_init_res =   2.50655529929396E-01
(PID.TID 0000.0001)      cg2d_iters(min,last) =      -1     129
(PID.TID 0000.0001)      cg2d_last_res =   7.48543490277438E-14
(PID.TID 0000.0001) // =======================================================
(PID.TID 0000.0001) // Begin MONITOR dynamic field statistics
(PID.TID 0000.0001) // =======================================================
(PID.TID 0000.0001) %MON time_tsnumber                =                    65
(PID.TID 0000.0001) %MON time_secondsf                =   5.6160000000000E+06
(PID.TID 0000.0001) %MON dynstat_eta_max              =   9.5994527242246E-01
(PID.TID 0000.0001) %MON dynstat_eta_min              =  -1.8665004471725E+00
(PID.TID 0000.0001) %MON dynstat_eta_mean             =  -4.7852381585337E-03
(PID.TID 0000.0001) %MON dynstat_eta_sd               =   6.5030496205528E-01
(PID.TID 0000.0001) %MON dynstat_eta_del2             =   2.4099065592999E-03
(PID.TID 0000.0001) %MON dynstat_uvel_max             =   1.2552647985870E-01
(PID.TID 0000.0001) %MON dynstat_uvel_min             =  -1.2421214951000E-01
(PID.TID 0000.0001) %MON dynstat_uvel_mean            =   2.1109758821890E-03
(PID.TID 0000.0001) %MON dynstat_uvel_sd              =   1.2558351648533E-02
(PID.TID 0000.0001) %MON dynstat_uvel_del2            =   7.8104183854395E-05
(PID.TID 0000.0001) %MON dynstat_vvel_max             =   1.3911216612567E-01
(PID.TID 0000.0001) %MON dynstat_vvel_min             =  -9.8710487655532E-02
(PID.TID 0000.0001) %MON dynstat_vvel_mean            =   3.9667499570659E-05
(PID.TID 0000.0001) %MON dynstat_vvel_sd              =   8.2500919277945E-03
(PID.TID 0000.0001) %MON dynstat_vvel_del2            =   7.2454189309759E-05
(PID.TID 0000.0001) %MON dynstat_wvel_max             =   1.1273929709181E-04
(PID.TID 0000.0001) %MON dynstat_wvel_min             =  -6.9384674893973E-05
(PID.TID 0000.0001) %MON dynstat_wvel_mean            =  -1.0173815500644E-22
(PID.TID 0000.0001) %MON dynstat_wvel_sd              =   1.0423674493401E-05
(PID.TID 0000.0001) %MON dynstat_wvel_del2            =   1.0768897335496E-07
(PID.TID 0000.0001) %MON dynstat_theta_max            =   2.9969872847496E+01
(PID.TID 0000.0001) %MON dynstat_theta_min            =  -1.9304148663129E+00
(PID.TID 0000.0001) %MON dynstat_theta_mean           =   3.6212749715723E+00
(PID.TID 0000.0001) %MON dynstat_theta_sd             =   4.4204255929237E+00
(PID.TID 0000.0001) %MON dynstat_theta_del2           =   4.7422575932387E-03
(PID.TID 0000.0001) %MON dynstat_salt_max             =   3.7457858739468E+01
(PID.TID 0000.0001) %MON dynstat_salt_min             =   2.9843209050124E+01
(PID.TID 0000.0001) %MON dynstat_salt_mean            =   3.4717305696805E+01
(PID.TID 0000.0001) %MON dynstat_salt_sd              =   2.9625791590281E-01
(PID.TID 0000.0001) %MON dynstat_salt_del2            =   9.6446188874819E-04
(PID.TID 0000.0001) %MON dynstat_sst_max              =   2.9969872847496E+01
(PID.TID 0000.0001) %MON dynstat_sst_min              =  -1.9304148663129E+00
(PID.TID 0000.0001) %MON dynstat_sst_mean             =   1.8806051236575E+01
(PID.TID 0000.0001) %MON dynstat_sst_sd               =   9.1858342084761E+00
(PID.TID 0000.0001) %MON dynstat_sst_del2             =   2.4392774331024E-02
(PID.TID 0000.0001) %MON dynstat_sss_max              =   3.7394479850255E+01
(PID.TID 0000.0001) %MON dynstat_sss_min              =   2.9843209050124E+01
(PID.TID 0000.0001) %MON dynstat_sss_mean             =   3.4839063484441E+01
(PID.TID 0000.0001) %MON dynstat_sss_sd               =   9.7895670235876E-01
(PID.TID 0000.0001) %MON dynstat_sss_del2             =   7.6136946855329E-03
(PID.TID 0000.0001) %MON forcing_qnet_max             =   3.0528735860189E+02
(PID.TID 0000.0001) %MON forcing_qnet_min             =  -1.6714766286214E+02
(PID.TID 0000.0001) %MON forcing_qnet_mean            =  -9.7218004860374E+00
(PID.TID 0000.0001) %MON forcing_qnet_sd              =   5.5429663487321E+01
(PID.TID 0000.0001) %MON forcing_qnet_del2            =   8.6929108009557E-01
(PID.TID 0000.0001) %MON forcing_qsw_max              =   0.0000000000000E+00
(PID.TID 0000.0001) %MON forcing_qsw_min              =   0.0000000000000E+00
(PID.TID 0000.0001) %MON forcing_qsw_mean             =   0.0000000000000E+00
(PID.TID 0000.0001) %MON forcing_qsw_sd               =   0.0000000000000E+00
(PID.TID 0000.0001) %MON forcing_qsw_del2             =   0.0000000000000E+00
(PID.TID 0000.0001) %MON forcing_empmr_max            =   6.9172141555403E-05
(PID.TID 0000.0001) %MON forcing_empmr_min            =  -7.8873442059072E-05
(PID.TID 0000.0001) %MON forcing_empmr_mean           =   6.9470029329661E-07
(PID.TID 0000.0001) %MON forcing_empmr_sd             =   2.6662470783822E-05
(PID.TID 0000.0001) %MON forcing_empmr_del2           =   3.5610054420546E-07
(PID.TID 0000.0001) %MON forcing_fu_max               =   3.3619582355022E-01
(PID.TID 0000.0001) %MON forcing_fu_min               =  -3.1846311191718E-01
(PID.TID 0000.0001) %MON forcing_fu_mean              =   1.9420533816345E-02
(PID.TID 0000.0001) %MON forcing_fu_sd                =   9.6733067225558E-02
(PID.TID 0000.0001) %MON forcing_fu_del2              =   7.3574349447110E-04
(PID.TID 0000.0001) %MON forcing_fv_max               =   1.4864443540573E-01
(PID.TID 0000.0001) %MON forcing_fv_min               =  -1.7685593118270E-01
(PID.TID 0000.0001) %MON forcing_fv_mean              =  -7.4148635903804E-03
(PID.TID 0000.0001) %MON forcing_fv_sd                =   4.1716101821581E-02
(PID.TID 0000.0001) %MON forcing_fv_del2              =   4.6757590300349E-04
(PID.TID 0000.0001) %MON trAdv_CFL_u_max              =   4.2553913292215E-02
(PID.TID 0000.0001) %MON trAdv_CFL_v_max              =   2.6577900383666E-02
(PID.TID 0000.0001) %MON trAdv_CFL_w_max              =   3.0995974057145E-02
(PID.TID 0000.0001) %MON advcfl_uvel_max              =   4.3774006993191E-02
(PID.TID 0000.0001) %MON advcfl_vvel_max              =   2.7027262787309E-02
(PID.TID 0000.0001) %MON advcfl_wvel_max              =   2.6526304500626E-02
(PID.TID 0000.0001) %MON advcfl_W_hf_max              =   3.1831565400751E-02
(PID.TID 0000.0001) %MON pe_b_mean                    =   5.4117640194425E-04
(PID.TID 0000.0001) %MON ke_max                       =   1.1009840139447E-02
(PID.TID 0000.0001) %MON ke_mean                      =   1.0423319251266E-04
(PID.TID 0000.0001) %MON ke_vol                       =   1.3226782436723E+18
(PID.TID 0000.0001) %MON vort_r_min                   =  -3.1844078798429E-07
(PID.TID 0000.0001) %MON vort_r_max                   =   4.0440341413726E-07
(PID.TID 0000.0001) %MON vort_a_mean                  =  -2.5274807250306E-05
(PID.TID 0000.0001) %MON vort_a_sd                    =   7.3604613320201E-05
(PID.TID 0000.0001) %MON vort_p_mean                  =  -3.1845655614073E-05
(PID.TID 0000.0001) %MON vort_p_sd                    =   1.3162510337664E-04
(PID.TID 0000.0001) %MON surfExpan_theta_mean         =  -9.4641516473159E-08
(PID.TID 0000.0001) %MON surfExpan_salt_mean          =   5.4446701953992E-08
(PID.TID 0000.0001) // =======================================================
(PID.TID 0000.0001) // End MONITOR dynamic field statistics
(PID.TID 0000.0001) // =======================================================
 EXTERNAL_FIELDS_LOAD,        65 : iP,iLd,i0,i1=    2    3    2    3 ; Wght=  0.3333333333  0.6666666667
 EXTERNAL_FIELDS_LOAD: (fu0,1),fu,fv= -1.4435E-02 -2.7199E-02 -2.2944E-02 -6.2639E-03
 EXTERNAL_FIELDS_LOAD: SST,SSS,Q,E-P= -2.9989E-01  3.4526E+01  2.2376E+02  8.8463E-06
DEBUG_STATS_RL:          Uvel (THERMODYNAMICS)  min= -1.24212149510003E-01
DEBUG_STATS_RL:          Uvel (THERMODYNAMICS)  max=  1.25526479858701E-01
DEBUG_STATS_RL:          Uvel (THERMODYNAMICS) mean=  5.40971253438634E-03
DEBUG_STATS_RL:          Uvel (THERMODYNAMICS) S.D.=  2.03595215077733E-02
DEBUG_STATS_RL:          Vvel (THERMODYNAMICS)  min= -9.87104876555318E-02
DEBUG_STATS_RL:          Vvel (THERMODYNAMICS)  max=  1.39112166125674E-01
DEBUG_STATS_RL:          Vvel (THERMODYNAMICS) mean=  5.75975054533023E-04
DEBUG_STATS_RL:          Vvel (THERMODYNAMICS) S.D.=  1.34899488993579E-02
DEBUG_STATS_RL:          Wvel (THERMODYNAMICS)  min= -6.93846748939727E-05
DEBUG_STATS_RL:          Wvel (THERMODYNAMICS)  max=  1.12739297091813E-04
DEBUG_STATS_RL:          Wvel (THERMODYNAMICS) mean= -1.24903634824341E-07
DEBUG_STATS_RL:          Wvel (THERMODYNAMICS) S.D.=  9.24868494040483E-06
DEBUG_STATS_RL:         Theta (THERMODYNAMICS)  min= -1.93096960273221E+00
DEBUG_STATS_RL:         Theta (THERMODYNAMICS)  max=  2.99779177947140E+01
DEBUG_STATS_RL:         Theta (THERMODYNAMICS) mean=  3.21092884464792E+00
DEBUG_STATS_RL:         Theta (THERMODYNAMICS) S.D.=  5.86735058797366E+00
DEBUG_STATS_RL:          Salt (THERMODYNAMICS)  min= -6.86334120039182E-04
DEBUG_STATS_RL:          Salt (THERMODYNAMICS)  max=  3.74573213271644E+01
DEBUG_STATS_RL:          Salt (THERMODYNAMICS) mean=  1.88440572138806E+01
DEBUG_STATS_RL:          Salt (THERMODYNAMICS) S.D.=  1.73002773871675E+01
DEBUG_STATS_RL:         GtNm1 (THERMODYNAMICS)  min= -2.69503764889165E-06
DEBUG_STATS_RL:         GtNm1 (THERMODYNAMICS)  max=  2.25610452394595E-06
DEBUG_STATS_RL:         GtNm1 (THERMODYNAMICS) mean=  1.46514938635345E-09
DEBUG_STATS_RL:         GtNm1 (THERMODYNAMICS) S.D.=  1.41620110484652E-07
DEBUG_STATS_RL:         GsNm1 (THERMODYNAMICS)  min= -2.62251337967311E-07
DEBUG_STATS_RL:         GsNm1 (THERMODYNAMICS)  max=  2.92606397483174E-07
DEBUG_STATS_RL:         GsNm1 (THERMODYNAMICS) mean= -3.38495892996319E-10
DEBUG_STATS_RL:         GsNm1 (THERMODYNAMICS) S.D.=  1.36484769085355E-08
DEBUG_STATS_RL:                EtaN (DYNAMICS)  min= -1.86650044717248E+00
DEBUG_STATS_RL:                EtaN (DYNAMICS)  max=  9.59945272422457E-01
DEBUG_STATS_RL:                EtaN (DYNAMICS) mean= -1.92174384802237E-01
DEBUG_STATS_RL:                EtaN (DYNAMICS) S.D.=  7.45525492259191E-01
DEBUG_STATS_RL:                Uvel (DYNAMICS)  min= -1.24212149510003E-01
DEBUG_STATS_RL:                Uvel (DYNAMICS)  max=  1.25526479858701E-01
DEBUG_STATS_RL:                Uvel (DYNAMICS) mean=  5.40971253438634E-03
DEBUG_STATS_RL:                Uvel (DYNAMICS) S.D.=  2.03595215077733E-02
DEBUG_STATS_RL:                Vvel (DYNAMICS)  min= -9.87104876555318E-02
DEBUG_STATS_RL:                Vvel (DYNAMICS)  max=  1.39112166125674E-01
DEBUG_STATS_RL:                Vvel (DYNAMICS) mean=  5.75975054533023E-04
DEBUG_STATS_RL:                Vvel (DYNAMICS) S.D.=  1.34899488993579E-02
DEBUG_STATS_RL:                Wvel (DYNAMICS)  min= -6.93846748939727E-05
DEBUG_STATS_RL:                Wvel (DYNAMICS)  max=  1.12739297091813E-04
DEBUG_STATS_RL:                Wvel (DYNAMICS) mean= -1.24903634824341E-07
DEBUG_STATS_RL:                Wvel (DYNAMICS) S.D.=  9.24868494040483E-06
DEBUG_STATS_RL:               Theta (DYNAMICS)  min= -1.93096960273221E+00
DEBUG_STATS_RL:               Theta (DYNAMICS)  max=  2.99779177947140E+01
DEBUG_STATS_RL:               Theta (DYNAMICS) mean=  3.21092884464792E+00
DEBUG_STATS_RL:               Theta (DYNAMICS) S.D.=  5.86735058797366E+00
DEBUG_STATS_RL:                Salt (DYNAMICS)  min= -6.86334120039182E-04
DEBUG_STATS_RL:                Salt (DYNAMICS)  max=  3.74573213271644E+01
DEBUG_STATS_RL:                Salt (DYNAMICS) mean=  1.88440572138806E+01
DEBUG_STATS_RL:                Salt (DYNAMICS) S.D.=  1.73002773871675E+01
DEBUG_STATS_RL:                  Gu (DYNAMICS)  min= -1.24027332687589E-01
DEBUG_STATS_RL:                  Gu (DYNAMICS)  max=  1.32024127123441E-01
DEBUG_STATS_RL:                  Gu (DYNAMICS) mean=  5.42976665272030E-03
DEBUG_STATS_RL:                  Gu (DYNAMICS) S.D.=  2.09455186646577E-02
DEBUG_STATS_RL:                  Gv (DYNAMICS)  min= -1.08565553033864E-01
DEBUG_STATS_RL:                  Gv (DYNAMICS)  max=  1.39988641205371E-01
DEBUG_STATS_RL:                  Gv (DYNAMICS) mean=  3.10716767805976E-03
DEBUG_STATS_RL:                  Gv (DYNAMICS) S.D.=  1.45983829127142E-02
DEBUG_STATS_RL:               GuNm1 (DYNAMICS)  min= -9.75894466105165E-06
DEBUG_STATS_RL:               GuNm1 (DYNAMICS)  max=  9.28347297779817E-06
DEBUG_STATS_RL:               GuNm1 (DYNAMICS) mean=  1.39910149144661E-09
DEBUG_STATS_RL:               GuNm1 (DYNAMICS) S.D.=  1.19164425150937E-06
DEBUG_STATS_RL:               GvNm1 (DYNAMICS)  min= -1.00127986076962E-05
DEBUG_STATS_RL:               GvNm1 (DYNAMICS)  max=  1.56788626402930E-05
DEBUG_STATS_RL:               GvNm1 (DYNAMICS) mean=  7.37966197370383E-07
DEBUG_STATS_RL:               GvNm1 (DYNAMICS) S.D.=  2.62838705368008E-06
DEBUG_STATS_RL:               GtNm1 (DYNAMICS)  min= -2.69503764889165E-06
DEBUG_STATS_RL:               GtNm1 (DYNAMICS)  max=  2.25610452394595E-06
DEBUG_STATS_RL:               GtNm1 (DYNAMICS) mean=  1.46514938635345E-09
DEBUG_STATS_RL:               GtNm1 (DYNAMICS) S.D.=  1.41620110484652E-07
DEBUG_STATS_RL:               GsNm1 (DYNAMICS)  min= -2.62251337967311E-07
DEBUG_STATS_RL:               GsNm1 (DYNAMICS)  max=  2.92606397483174E-07
DEBUG_STATS_RL:               GsNm1 (DYNAMICS) mean= -3.38495892996319E-10
DEBUG_STATS_RL:               GsNm1 (DYNAMICS) S.D.=  1.36484769085355E-08
DEBUG_STATS_RL:    cg2d_b (SOLVE_FOR_PRESSURE)  min= -1.99309926563121E+04
DEBUG_STATS_RL:    cg2d_b (SOLVE_FOR_PRESSURE)  max=  2.42109491793101E+04
DEBUG_STATS_RL:    cg2d_b (SOLVE_FOR_PRESSURE) mean=  4.64083684806090E+00
DEBUG_STATS_RL:    cg2d_b (SOLVE_FOR_PRESSURE) S.D.=  3.89895410949906E+03
 cg2d: Sum(rhs),rhsMax =   4.43747051125253E-01  1.59023996511492E+00
(PID.TID 0000.0001)  cg2d: iter=     1 ; resid.=  6.93500131624538E-02
(PID.TID 0000.0001)  cg2d: iter=     2 ; resid.=  4.46420315573264E-02
(PID.TID 0000.0001)  cg2d: iter=     3 ; resid.=  4.24127083104254E-02
(PID.TID 0000.0001)  cg2d: iter=     4 ; resid.=  4.16521743607436E-02
(PID.TID 0000.0001)  cg2d: iter=     5 ; resid.=  4.12602741385448E-02
(PID.TID 0000.0001)  cg2d: iter=     6 ; resid.=  3.48408952845300E-02
(PID.TID 0000.0001)  cg2d: iter=     7 ; resid.=  2.75592641113221E-02
(PID.TID 0000.0001)  cg2d: iter=     8 ; resid.=  2.17807815513319E-02
(PID.TID 0000.0001)  cg2d: iter=     9 ; resid.=  1.90801004246899E-02
(PID.TID 0000.0001)  cg2d: iter=    10 ; resid.=  1.57709188731924E-02
(PID.TID 0000.0001)  cg2d: iter=    11 ; resid.=  1.23139166795749E-02
(PID.TID 0000.0001)  cg2d: iter=    12 ; resid.=  9.32298231680131E-03
(PID.TID 0000.0001)  cg2d: iter=    13 ; resid.=  6.68011338336070E-03
(PID.TID 0000.0001)  cg2d: iter=    14 ; resid.=  4.99182171067282E-03
(PID.TID 0000.0001)  cg2d: iter=    15 ; resid.=  4.30347330158649E-03
(PID.TID 0000.0001)  cg2d: iter=    16 ; resid.=  3.80003409900419E-03
(PID.TID 0000.0001)  cg2d: iter=    17 ; resid.=  3.57565281757766E-03
(PID.TID 0000.0001)  cg2d: iter=    18 ; resid.=  3.43324924971499E-03
(PID.TID 0000.0001)  cg2d: iter=    19 ; resid.=  2.87728828508225E-03
(PID.TID 0000.0001)  cg2d: iter=    20 ; resid.=  2.32397797617742E-03
(PID.TID 0000.0001)  cg2d: iter=    21 ; resid.=  1.88832184068193E-03
(PID.TID 0000.0001)  cg2d: iter=    22 ; resid.=  1.57545193705991E-03
(PID.TID 0000.0001)  cg2d: iter=    23 ; resid.=  1.33240792614823E-03
(PID.TID 0000.0001)  cg2d: iter=    24 ; resid.=  1.15664851096588E-03
(PID.TID 0000.0001)  cg2d: iter=    25 ; resid.=  9.59478901691390E-04
(PID.TID 0000.0001)  cg2d: iter=    26 ; resid.=  6.85649026657520E-04
(PID.TID 0000.0001)  cg2d: iter=    27 ; resid.=  5.69500251349726E-04
(PID.TID 0000.0001)  cg2d: iter=    28 ; resid.=  4.75971007609775E-04
(PID.TID 0000.0001)  cg2d: iter=    29 ; resid.=  3.73260241159728E-04
(PID.TID 0000.0001)  cg2d: iter=    30 ; resid.=  2.88599198985561E-04
(PID.TID 0000.0001)  cg2d: iter=    31 ; resid.=  2.69997682322105E-04
(PID.TID 0000.0001)  cg2d: iter=    32 ; resid.=  2.42880007686015E-04
(PID.TID 0000.0001)  cg2d: iter=    33 ; resid.=  2.13170061449973E-04
(PID.TID 0000.0001)  cg2d: iter=    34 ; resid.=  1.95360060029900E-04
(PID.TID 0000.0001)  cg2d: iter=    35 ; resid.=  1.64207632160019E-04
(PID.TID 0000.0001)  cg2d: iter=    36 ; resid.=  1.39745215484043E-04
(PID.TID 0000.0001)  cg2d: iter=    37 ; resid.=  1.12741925596094E-04
(PID.TID 0000.0001)  cg2d: iter=    38 ; resid.=  9.93046197293539E-05
(PID.TID 0000.0001)  cg2d: iter=    39 ; resid.=  8.63687768489694E-05
(PID.TID 0000.0001)  cg2d: iter=    40 ; resid.=  7.00996741651588E-05
(PID.TID 0000.0001)  cg2d: iter=    41 ; resid.=  5.08068530622326E-05
(PID.TID 0000.0001)  cg2d: iter=    42 ; resid.=  4.29037680208010E-05
(PID.TID 0000.0001)  cg2d: iter=    43 ; resid.=  3.95929904595868E-05
(PID.TID 0000.0001)  cg2d: iter=    44 ; resid.=  3.25093128271972E-05
(PID.TID 0000.0001)  cg2d: iter=    45 ; resid.=  2.51914480975657E-05
(PID.TID 0000.0001)  cg2d: iter=    46 ; resid.=  1.97787796423417E-05
(PID.TID 0000.0001)  cg2d: iter=    47 ; resid.=  1.57162516895626E-05
(PID.TID 0000.0001)  cg2d: iter=    48 ; resid.=  1.36703397601299E-05
(PID.TID 0000.0001)  cg2d: iter=    49 ; resid.=  1.25226520036269E-05
(PID.TID 0000.0001)  cg2d: iter=    50 ; resid.=  1.03764844626159E-05
(PID.TID 0000.0001)  cg2d: iter=    51 ; resid.=  8.00548273740807E-06
(PID.TID 0000.0001)  cg2d: iter=    52 ; resid.=  6.06090806500866E-06
(PID.TID 0000.0001)  cg2d: iter=    53 ; resid.=  5.19178886027846E-06
(PID.TID 0000.0001)  cg2d: iter=    54 ; resid.=  4.57220416407406E-06
(PID.TID 0000.0001)  cg2d: iter=    55 ; resid.=  3.78713640282810E-06
(PID.TID 0000.0001)  cg2d: iter=    56 ; resid.=  3.06378399024876E-06
(PID.TID 0000.0001)  cg2d: iter=    57 ; resid.=  2.70573668030683E-06
(PID.TID 0000.0001)  cg2d: iter=    58 ; resid.=  2.31780007082831E-06
(PID.TID 0000.0001)  cg2d: iter=    59 ; resid.=  1.63821968102441E-06
(PID.TID 0000.0001)  cg2d: iter=    60 ; resid.=  1.08967070536763E-06
(PID.TID 0000.0001)  cg2d: iter=    61 ; resid.=  7.93907222945089E-07
(PID.TID 0000.0001)  cg2d: iter=    62 ; resid.=  6.22042000192625E-07
(PID.TID 0000.0001)  cg2d: iter=    63 ; resid.=  4.91292563320961E-07
(PID.TID 0000.0001)  cg2d: iter=    64 ; resid.=  4.00246902622326E-07
(PID.TID 0000.0001)  cg2d: iter=    65 ; resid.=  3.23284470275473E-07
(PID.TID 0000.0001)  cg2d: iter=    66 ; resid.=  2.66217148931157E-07
(PID.TID 0000.0001)  cg2d: iter=    67 ; resid.=  2.23582308374456E-07
(PID.TID 0000.0001)  cg2d: iter=    68 ; resid.=  1.96785873126339E-07
(PID.TID 0000.0001)  cg2d: iter=    69 ; resid.=  1.73170948209737E-07
(PID.TID 0000.0001)  cg2d: iter=    70 ; resid.=  1.60907089811231E-07
(PID.TID 0000.0001)  cg2d: iter=    71 ; resid.=  1.46686812994842E-07
(PID.TID 0000.0001)  cg2d: iter=    72 ; resid.=  1.25218591306250E-07
(PID.TID 0000.0001)  cg2d: iter=    73 ; resid.=  1.10589222191998E-07
(PID.TID 0000.0001)  cg2d: iter=    74 ; resid.=  9.42817814552199E-08
(PID.TID 0000.0001)  cg2d: iter=    75 ; resid.=  6.97691027190118E-08
(PID.TID 0000.0001)  cg2d: iter=    76 ; resid.=  5.06662957996151E-08
(PID.TID 0000.0001)  cg2d: iter=    77 ; resid.=  3.83928318406194E-08
(PID.TID 0000.0001)  cg2d: iter=    78 ; resid.=  2.92448590872323E-08
(PID.TID 0000.0001)  cg2d: iter=    79 ; resid.=  2.43082002174104E-08
(PID.TID 0000.0001)  cg2d: iter=    80 ; resid.=  2.01769555464221E-08
(PID.TID 0000.0001)  cg2d: iter=    81 ; resid.=  1.52852991763527E-08
(PID.TID 0000.0001)  cg2d: iter=    82 ; resid.=  1.18748484819504E-08
(PID.TID 0000.0001)  cg2d: iter=    83 ; resid.=  9.44905137761016E-09
(PID.TID 0000.0001)  cg2d: iter=    84 ; resid.=  8.23508111245612E-09
(PID.TID 0000.0001)  cg2d: iter=    85 ; resid.=  5.93945145652140E-09
(PID.TID 0000.0001)  cg2d: iter=    86 ; resid.=  4.02225115575741E-09
(PID.TID 0000.0001)  cg2d: iter=    87 ; resid.=  3.02971301298599E-09
(PID.TID 0000.0001)  cg2d: iter=    88 ; resid.=  2.18007629321852E-09
(PID.TID 0000.0001)  cg2d: iter=    89 ; resid.=  1.56848436539798E-09
(PID.TID 0000.0001)  cg2d: iter=    90 ; resid.=  1.24342322181304E-09
(PID.TID 0000.0001)  cg2d: iter=    91 ; resid.=  1.01643362712643E-09
(PID.TID 0000.0001)  cg2d: iter=    92 ; resid.=  8.10440781608712E-10
(PID.TID 0000.0001)  cg2d: iter=    93 ; resid.=  6.41298507915840E-10
(PID.TID 0000.0001)  cg2d: iter=    94 ; resid.=  5.06150537310736E-10
(PID.TID 0000.0001)  cg2d: iter=    95 ; resid.=  3.74650967859954E-10
(PID.TID 0000.0001)  cg2d: iter=    96 ; resid.=  3.16293186261571E-10
(PID.TID 0000.0001)  cg2d: iter=    97 ; resid.=  2.66538858338430E-10
(PID.TID 0000.0001)  cg2d: iter=    98 ; resid.=  2.20998036503832E-10
(PID.TID 0000.0001)  cg2d: iter=    99 ; resid.=  1.86182083099839E-10
(PID.TID 0000.0001)  cg2d: iter=   100 ; resid.=  1.53971789883183E-10
(PID.TID 0000.0001)  cg2d: iter=   101 ; resid.=  1.30717623418866E-10
(PID.TID 0000.0001)  cg2d: iter=   102 ; resid.=  1.03898213661179E-10
(PID.TID 0000.0001)  cg2d: iter=   103 ; resid.=  8.25816293261950E-11
(PID.TID 0000.0001)  cg2d: iter=   104 ; resid.=  6.00725155901353E-11
(PID.TID 0000.0001)  cg2d: iter=   105 ; resid.=  4.78842209420020E-11
(PID.TID 0000.0001)  cg2d: iter=   106 ; resid.=  4.39691824125253E-11
(PID.TID 0000.0001)  cg2d: iter=   107 ; resid.=  3.50856174648547E-11
(PID.TID 0000.0001)  cg2d: iter=   108 ; resid.=  2.73903019204231E-11
(PID.TID 0000.0001)  cg2d: iter=   109 ; resid.=  2.19716601619375E-11
(PID.TID 0000.0001)  cg2d: iter=   110 ; resid.=  1.75779540207323E-11
(PID.TID 0000.0001)  cg2d: iter=   111 ; resid.=  1.46840401210617E-11
(PID.TID 0000.0001)  cg2d: iter=   112 ; resid.=  1.20440600494959E-11
(PID.TID 0000.0001)  cg2d: iter=   113 ; resid.=  9.09738539114766E-12
(PID.TID 0000.0001)  cg2d: iter=   114 ; resid.=  7.17239214351997E-12
(PID.TID 0000.0001)  cg2d: iter=   115 ; resid.=  5.35093650438897E-12
(PID.TID 0000.0001)  cg2d: iter=   116 ; resid.=  3.83346609674383E-12
(PID.TID 0000.0001)  cg2d: iter=   117 ; resid.=  2.87827101371017E-12
(PID.TID 0000.0001)  cg2d: iter=   118 ; resid.=  1.96533245902380E-12
(PID.TID 0000.0001)  cg2d: iter=   119 ; resid.=  1.32376593515096E-12
(PID.TID 0000.0001)  cg2d: iter=   120 ; resid.=  9.26374508633778E-13
(PID.TID 0000.0001)  cg2d: iter=   121 ; resid.=  6.59837908411038E-13
(PID.TID 0000.0001)  cg2d: iter=   122 ; resid.=  5.02544429920782E-13
(PID.TID 0000.0001)  cg2d: iter=   123 ; resid.=  3.96828220631813E-13
(PID.TID 0000.0001)  cg2d: iter=   124 ; resid.=  3.38817778337865E-13
(PID.TID 0000.0001)  cg2d: iter=   125 ; resid.=  2.79385699302281E-13
(PID.TID 0000.0001)  cg2d: iter=   126 ; resid.=  2.23901243155756E-13
(PID.TID 0000.0001)  cg2d: iter=   127 ; resid.=  1.81113325177927E-13
(PID.TID 0000.0001)  cg2d: iter=   128 ; resid.=  1.35657785246225E-13
(PID.TID 0000.0001)  cg2d: iter=   129 ; resid.=  9.49764853310150E-14
DEBUG_STATS_RL:    cg2d_x (SOLVE_FOR_PRESSURE)  min= -1.83792382182732E+01
DEBUG_STATS_RL:    cg2d_x (SOLVE_FOR_PRESSURE)  max=  9.38812813305390E+00
DEBUG_STATS_RL:    cg2d_x (SOLVE_FOR_PRESSURE) mean= -1.87577957645911E+00
DEBUG_STATS_RL:    cg2d_x (SOLVE_FOR_PRESSURE) S.D.=  7.28190485258945E+00
(PID.TID 0000.0001)      cg2d_init_res =   2.51290418829284E-01
(PID.TID 0000.0001)      cg2d_iters(min,last) =      -1     129
(PID.TID 0000.0001)      cg2d_last_res =   9.49764853310150E-14
(PID.TID 0000.0001) // =======================================================
(PID.TID 0000.0001) // Begin MONITOR dynamic field statistics
(PID.TID 0000.0001) // =======================================================
(PID.TID 0000.0001) %MON time_tsnumber                =                    66
(PID.TID 0000.0001) %MON time_secondsf                =   5.7024000000000E+06
(PID.TID 0000.0001) %MON dynstat_eta_max              =   9.5699573221742E-01
(PID.TID 0000.0001) %MON dynstat_eta_min              =  -1.8735207154204E+00
(PID.TID 0000.0001) %MON dynstat_eta_mean             =  -4.8421378061797E-03
(PID.TID 0000.0001) %MON dynstat_eta_sd               =   6.4690441742698E-01
(PID.TID 0000.0001) %MON dynstat_eta_del2             =   2.4130868254049E-03
(PID.TID 0000.0001) %MON dynstat_uvel_max             =   1.3085357073752E-01
(PID.TID 0000.0001) %MON dynstat_uvel_min             =  -1.2387273038806E-01
(PID.TID 0000.0001) %MON dynstat_uvel_mean            =   2.1252954775520E-03
(PID.TID 0000.0001) %MON dynstat_uvel_sd              =   1.2665016930555E-02
(PID.TID 0000.0001) %MON dynstat_uvel_del2            =   7.8530390365165E-05
(PID.TID 0000.0001) %MON dynstat_vvel_max             =   1.4053213665276E-01
(PID.TID 0000.0001) %MON dynstat_vvel_min             =  -9.8143535815575E-02
(PID.TID 0000.0001) %MON dynstat_vvel_mean            =   4.8416074781086E-05
(PID.TID 0000.0001) %MON dynstat_vvel_sd              =   8.2316344955919E-03
(PID.TID 0000.0001) %MON dynstat_vvel_del2            =   7.2542825094440E-05
(PID.TID 0000.0001) %MON dynstat_wvel_max             =   1.1732396603338E-04
(PID.TID 0000.0001) %MON dynstat_wvel_min             =  -7.2430614864819E-05
(PID.TID 0000.0001) %MON dynstat_wvel_mean            =  -1.7549039697993E-22
(PID.TID 0000.0001) %MON dynstat_wvel_sd              =   1.0325659487058E-05
(PID.TID 0000.0001) %MON dynstat_wvel_del2            =   1.0627634560214E-07
(PID.TID 0000.0001) %MON dynstat_theta_max            =   2.9977917794714E+01
(PID.TID 0000.0001) %MON dynstat_theta_min            =  -1.9309696027322E+00
(PID.TID 0000.0001) %MON dynstat_theta_mean           =   3.6213095169854E+00
(PID.TID 0000.0001) %MON dynstat_theta_sd             =   4.4205897859564E+00
(PID.TID 0000.0001) %MON dynstat_theta_del2           =   4.7361221715866E-03
(PID.TID 0000.0001) %MON dynstat_salt_max             =   3.7457321327164E+01
(PID.TID 0000.0001) %MON dynstat_salt_min             =   2.9844950081512E+01
(PID.TID 0000.0001) %MON dynstat_salt_mean            =   3.4717305948410E+01
(PID.TID 0000.0001) %MON dynstat_salt_sd              =   2.9625850774537E-01
(PID.TID 0000.0001) %MON dynstat_salt_del2            =   9.6351778753415E-04
(PID.TID 0000.0001) %MON dynstat_sst_max              =   2.9977917794714E+01
(PID.TID 0000.0001) %MON dynstat_sst_min              =  -1.9309696027322E+00
(PID.TID 0000.0001) %MON dynstat_sst_mean             =   1.8807663020848E+01
(PID.TID 0000.0001) %MON dynstat_sst_sd               =   9.1916657155883E+00
(PID.TID 0000.0001) %MON dynstat_sst_del2             =   2.4317209601264E-02
(PID.TID 0000.0001) %MON dynstat_sss_max              =   3.7394822400248E+01
(PID.TID 0000.0001) %MON dynstat_sss_min              =   2.9844950081512E+01
(PID.TID 0000.0001) %MON dynstat_sss_mean             =   3.4838886133801E+01
(PID.TID 0000.0001) %MON dynstat_sss_sd               =   9.7917084126950E-01
(PID.TID 0000.0001) %MON dynstat_sss_del2             =   7.6072458540760E-03
(PID.TID 0000.0001) %MON forcing_qnet_max             =   3.0248920694987E+02
(PID.TID 0000.0001) %MON forcing_qnet_min             =  -1.6684838358561E+02
(PID.TID 0000.0001) %MON forcing_qnet_mean            =  -9.4984609864109E+00
(PID.TID 0000.0001) %MON forcing_qnet_sd              =   5.4405557382944E+01
(PID.TID 0000.0001) %MON forcing_qnet_del2            =   8.6680590177986E-01
(PID.TID 0000.0001) %MON forcing_qsw_max              =   0.0000000000000E+00
(PID.TID 0000.0001) %MON forcing_qsw_min              =   0.0000000000000E+00
(PID.TID 0000.0001) %MON forcing_qsw_mean             =   0.0000000000000E+00
(PID.TID 0000.0001) %MON forcing_qsw_sd               =   0.0000000000000E+00
(PID.TID 0000.0001) %MON forcing_qsw_del2             =   0.0000000000000E+00
(PID.TID 0000.0001) %MON forcing_empmr_max            =   6.9166385211853E-05
(PID.TID 0000.0001) %MON forcing_empmr_min            =  -7.9272621652156E-05
(PID.TID 0000.0001) %MON forcing_empmr_mean           =   6.8161036242225E-07
(PID.TID 0000.0001) %MON forcing_empmr_sd             =   2.6616217830995E-05
(PID.TID 0000.0001) %MON forcing_empmr_del2           =   3.5673956520536E-07
(PID.TID 0000.0001) %MON forcing_fu_max               =   3.3813723921776E-01
(PID.TID 0000.0001) %MON forcing_fu_min               =  -3.2483523090680E-01
(PID.TID 0000.0001) %MON forcing_fu_mean              =   1.9514733405804E-02
(PID.TID 0000.0001) %MON forcing_fu_sd                =   9.7132739592026E-02
(PID.TID 0000.0001) %MON forcing_fu_del2              =   7.4286337191137E-04
(PID.TID 0000.0001) %MON forcing_fv_max               =   1.4849948386351E-01
(PID.TID 0000.0001) %MON forcing_fv_min               =  -1.7835372189681E-01
(PID.TID 0000.0001) %MON forcing_fv_mean              =  -7.4252919403498E-03
(PID.TID 0000.0001) %MON forcing_fv_sd                =   4.1714625157981E-02
(PID.TID 0000.0001) %MON forcing_fv_del2              =   4.6870613924266E-04
(PID.TID 0000.0001) %MON trAdv_CFL_u_max              =   4.3782897807088E-02
(PID.TID 0000.0001) %MON trAdv_CFL_v_max              =   2.6917126164891E-02
(PID.TID 0000.0001) %MON trAdv_CFL_w_max              =   3.0179260975712E-02
(PID.TID 0000.0001) %MON advcfl_uvel_max              =   4.5042731964334E-02
(PID.TID 0000.0001) %MON advcfl_vvel_max              =   2.7303140287132E-02
(PID.TID 0000.0001) %MON advcfl_wvel_max              =   2.7708493429613E-02
(PID.TID 0000.0001) %MON advcfl_W_hf_max              =   3.2000331450940E-02
(PID.TID 0000.0001) %MON pe_b_mean                    =   5.3553241729005E-04
(PID.TID 0000.0001) %MON ke_max                       =   1.0688145463625E-02
(PID.TID 0000.0001) %MON ke_mean                      =   1.0534684028682E-04
(PID.TID 0000.0001) %MON ke_vol                       =   1.3226782436723E+18
(PID.TID 0000.0001) %MON vort_r_min                   =  -3.0582745066990E-07
(PID.TID 0000.0001) %MON vort_r_max                   =   4.0643024850827E-07
(PID.TID 0000.0001) %MON vort_a_mean                  =  -2.5274807307223E-05
(PID.TID 0000.0001) %MON vort_a_sd                    =   7.3604614147518E-05
(PID.TID 0000.0001) %MON vort_p_mean                  =  -3.1845655685787E-05
(PID.TID 0000.0001) %MON vort_p_sd                    =   1.3162509259843E-04
(PID.TID 0000.0001) %MON surfExpan_theta_mean         =  -1.0995371457329E-07
(PID.TID 0000.0001) %MON surfExpan_salt_mean          =   5.3039845785941E-08
(PID.TID 0000.0001) // =======================================================
(PID.TID 0000.0001) // End MONITOR dynamic field statistics
(PID.TID 0000.0001) // =======================================================
 EXTERNAL_FIELDS_LOAD,        66 : iP,iLd,i0,i1=    2    3    2    3 ; Wght=  0.3000000000  0.7000000000
 EXTERNAL_FIELDS_LOAD: (fu0,1),fu,fv= -1.4435E-02 -2.7199E-02 -2.3370E-02 -5.6953E-03
 EXTERNAL_FIELDS_LOAD: SST,SSS,Q,E-P= -2.8829E-01  3.4532E+01  2.2292E+02  8.8697E-06
DEBUG_STATS_RL:          Uvel (THERMODYNAMICS)  min= -1.23872730388063E-01
DEBUG_STATS_RL:          Uvel (THERMODYNAMICS)  max=  1.30853570737521E-01
DEBUG_STATS_RL:          Uvel (THERMODYNAMICS) mean=  5.50072158846726E-03
DEBUG_STATS_RL:          Uvel (THERMODYNAMICS) S.D.=  2.05745529823333E-02
DEBUG_STATS_RL:          Vvel (THERMODYNAMICS)  min= -9.81435358155751E-02
DEBUG_STATS_RL:          Vvel (THERMODYNAMICS)  max=  1.40532136652761E-01
DEBUG_STATS_RL:          Vvel (THERMODYNAMICS) mean=  5.60255459263374E-04
DEBUG_STATS_RL:          Vvel (THERMODYNAMICS) S.D.=  1.34399117525589E-02
DEBUG_STATS_RL:          Wvel (THERMODYNAMICS)  min= -7.24306148648187E-05
DEBUG_STATS_RL:          Wvel (THERMODYNAMICS)  max=  1.17323966033375E-04
DEBUG_STATS_RL:          Wvel (THERMODYNAMICS) mean= -1.24690406071679E-07
DEBUG_STATS_RL:          Wvel (THERMODYNAMICS) S.D.=  9.15298371074273E-06
DEBUG_STATS_RL:         Theta (THERMODYNAMICS)  min= -1.93287669964964E+00
DEBUG_STATS_RL:         Theta (THERMODYNAMICS)  max=  2.99858780864223E+01
DEBUG_STATS_RL:         Theta (THERMODYNAMICS) mean=  3.21096220441488E+00
DEBUG_STATS_RL:         Theta (THERMODYNAMICS) S.D.=  5.86766371732368E+00
DEBUG_STATS_RL:          Salt (THERMODYNAMICS)  min= -6.86334120039182E-04
DEBUG_STATS_RL:          Salt (THERMODYNAMICS)  max=  3.74566934063529E+01
DEBUG_STATS_RL:          Salt (THERMODYNAMICS) mean=  1.88440479447225E+01
DEBUG_STATS_RL:          Salt (THERMODYNAMICS) S.D.=  1.73002692467295E+01
DEBUG_STATS_RL:         GtNm1 (THERMODYNAMICS)  min= -2.76647084962609E-06
DEBUG_STATS_RL:         GtNm1 (THERMODYNAMICS)  max=  1.76126586772459E-06
DEBUG_STATS_RL:         GtNm1 (THERMODYNAMICS) mean=  1.58814939124154E-09
DEBUG_STATS_RL:         GtNm1 (THERMODYNAMICS) S.D.=  1.38505876344353E-07
DEBUG_STATS_RL:         GsNm1 (THERMODYNAMICS)  min= -2.97612661189553E-07
DEBUG_STATS_RL:         GsNm1 (THERMODYNAMICS)  max=  2.23100077199668E-07
DEBUG_STATS_RL:         GsNm1 (THERMODYNAMICS) mean= -2.98410808863102E-10
DEBUG_STATS_RL:         GsNm1 (THERMODYNAMICS) S.D.=  1.31760481378826E-08
DEBUG_STATS_RL:                EtaN (DYNAMICS)  min= -1.87352071542037E+00
DEBUG_STATS_RL:                EtaN (DYNAMICS)  max=  9.56995732217425E-01
DEBUG_STATS_RL:                EtaN (DYNAMICS) mean= -1.91210965999908E-01
DEBUG_STATS_RL:                EtaN (DYNAMICS) S.D.=  7.42294072639085E-01
DEBUG_STATS_RL:                Uvel (DYNAMICS)  min= -1.23872730388063E-01
DEBUG_STATS_RL:                Uvel (DYNAMICS)  max=  1.30853570737521E-01
DEBUG_STATS_RL:                Uvel (DYNAMICS) mean=  5.50072158846726E-03
DEBUG_STATS_RL:                Uvel (DYNAMICS) S.D.=  2.05745529823333E-02
DEBUG_STATS_RL:                Vvel (DYNAMICS)  min= -9.81435358155751E-02
DEBUG_STATS_RL:                Vvel (DYNAMICS)  max=  1.40532136652761E-01
DEBUG_STATS_RL:                Vvel (DYNAMICS) mean=  5.60255459263374E-04
DEBUG_STATS_RL:                Vvel (DYNAMICS) S.D.=  1.34399117525589E-02
DEBUG_STATS_RL:                Wvel (DYNAMICS)  min= -7.24306148648187E-05
DEBUG_STATS_RL:                Wvel (DYNAMICS)  max=  1.17323966033375E-04
DEBUG_STATS_RL:                Wvel (DYNAMICS) mean= -1.24690406071679E-07
DEBUG_STATS_RL:                Wvel (DYNAMICS) S.D.=  9.15298371074273E-06
DEBUG_STATS_RL:               Theta (DYNAMICS)  min= -1.93287669964964E+00
DEBUG_STATS_RL:               Theta (DYNAMICS)  max=  2.99858780864223E+01
DEBUG_STATS_RL:               Theta (DYNAMICS) mean=  3.21096220441488E+00
DEBUG_STATS_RL:               Theta (DYNAMICS) S.D.=  5.86766371732368E+00
DEBUG_STATS_RL:                Salt (DYNAMICS)  min= -6.86334120039182E-04
DEBUG_STATS_RL:                Salt (DYNAMICS)  max=  3.74566934063529E+01
DEBUG_STATS_RL:                Salt (DYNAMICS) mean=  1.88440479447225E+01
DEBUG_STATS_RL:                Salt (DYNAMICS) S.D.=  1.73002692467295E+01
DEBUG_STATS_RL:                  Gu (DYNAMICS)  min= -1.23667372720762E-01
DEBUG_STATS_RL:                  Gu (DYNAMICS)  max=  1.34564234110453E-01
DEBUG_STATS_RL:                  Gu (DYNAMICS) mean=  5.52117137183752E-03
DEBUG_STATS_RL:                  Gu (DYNAMICS) S.D.=  2.11868408468492E-02
DEBUG_STATS_RL:                  Gv (DYNAMICS)  min= -1.07007235000615E-01
DEBUG_STATS_RL:                  Gv (DYNAMICS)  max=  1.41312398845520E-01
DEBUG_STATS_RL:                  Gv (DYNAMICS) mean=  3.11172625830424E-03
DEBUG_STATS_RL:                  Gv (DYNAMICS) S.D.=  1.45329627525379E-02
DEBUG_STATS_RL:               GuNm1 (DYNAMICS)  min= -9.78192905138358E-06
DEBUG_STATS_RL:               GuNm1 (DYNAMICS)  max=  9.27285487901335E-06
DEBUG_STATS_RL:               GuNm1 (DYNAMICS) mean=  1.78677908784048E-09
DEBUG_STATS_RL:               GuNm1 (DYNAMICS) S.D.=  1.19279873134043E-06
DEBUG_STATS_RL:               GvNm1 (DYNAMICS)  min= -1.00242852397719E-05
DEBUG_STATS_RL:               GvNm1 (DYNAMICS)  max=  1.56529655456678E-05
DEBUG_STATS_RL:               GvNm1 (DYNAMICS) mean=  7.37753506477191E-07
DEBUG_STATS_RL:               GvNm1 (DYNAMICS) S.D.=  2.62656402152552E-06
DEBUG_STATS_RL:               GtNm1 (DYNAMICS)  min= -2.76647084962609E-06
DEBUG_STATS_RL:               GtNm1 (DYNAMICS)  max=  1.76126586772459E-06
DEBUG_STATS_RL:               GtNm1 (DYNAMICS) mean=  1.58814939124154E-09
DEBUG_STATS_RL:               GtNm1 (DYNAMICS) S.D.=  1.38505876344353E-07
DEBUG_STATS_RL:               GsNm1 (DYNAMICS)  min= -2.97612661189553E-07
DEBUG_STATS_RL:               GsNm1 (DYNAMICS)  max=  2.23100077199668E-07
DEBUG_STATS_RL:               GsNm1 (DYNAMICS) mean= -2.98410808863102E-10
DEBUG_STATS_RL:               GsNm1 (DYNAMICS) S.D.=  1.31760481378826E-08
DEBUG_STATS_RL:    cg2d_b (SOLVE_FOR_PRESSURE)  min= -2.03964430599255E+04
DEBUG_STATS_RL:    cg2d_b (SOLVE_FOR_PRESSURE)  max=  2.40573919913664E+04
DEBUG_STATS_RL:    cg2d_b (SOLVE_FOR_PRESSURE) mean=  4.69432372408810E+00
DEBUG_STATS_RL:    cg2d_b (SOLVE_FOR_PRESSURE) S.D.=  3.89825018419975E+03
 cg2d: Sum(rhs),rhsMax =   4.51726414283151E-01  1.58015391787282E+00
(PID.TID 0000.0001)  cg2d: iter=     1 ; resid.=  6.99132939904864E-02
(PID.TID 0000.0001)  cg2d: iter=     2 ; resid.=  4.46040969756213E-02
(PID.TID 0000.0001)  cg2d: iter=     3 ; resid.=  4.13099881464941E-02
(PID.TID 0000.0001)  cg2d: iter=     4 ; resid.=  4.05680236248732E-02
(PID.TID 0000.0001)  cg2d: iter=     5 ; resid.=  4.07238123000024E-02
(PID.TID 0000.0001)  cg2d: iter=     6 ; resid.=  3.37692541305442E-02
(PID.TID 0000.0001)  cg2d: iter=     7 ; resid.=  2.68811055941790E-02
(PID.TID 0000.0001)  cg2d: iter=     8 ; resid.=  2.22889728544988E-02
(PID.TID 0000.0001)  cg2d: iter=     9 ; resid.=  1.98092912616293E-02
(PID.TID 0000.0001)  cg2d: iter=    10 ; resid.=  1.61693139910141E-02
(PID.TID 0000.0001)  cg2d: iter=    11 ; resid.=  1.28125998808724E-02
(PID.TID 0000.0001)  cg2d: iter=    12 ; resid.=  9.70650064363956E-03
(PID.TID 0000.0001)  cg2d: iter=    13 ; resid.=  6.78646454909530E-03
(PID.TID 0000.0001)  cg2d: iter=    14 ; resid.=  5.08207904700347E-03
(PID.TID 0000.0001)  cg2d: iter=    15 ; resid.=  4.45645392200660E-03
(PID.TID 0000.0001)  cg2d: iter=    16 ; resid.=  3.92773342544058E-03
(PID.TID 0000.0001)  cg2d: iter=    17 ; resid.=  3.78245797204529E-03
(PID.TID 0000.0001)  cg2d: iter=    18 ; resid.=  3.74693065468148E-03
(PID.TID 0000.0001)  cg2d: iter=    19 ; resid.=  3.06296350364717E-03
(PID.TID 0000.0001)  cg2d: iter=    20 ; resid.=  2.43042942127199E-03
(PID.TID 0000.0001)  cg2d: iter=    21 ; resid.=  1.97875918555111E-03
(PID.TID 0000.0001)  cg2d: iter=    22 ; resid.=  1.60762860804655E-03
(PID.TID 0000.0001)  cg2d: iter=    23 ; resid.=  1.34095347741620E-03
(PID.TID 0000.0001)  cg2d: iter=    24 ; resid.=  1.17571145722041E-03
(PID.TID 0000.0001)  cg2d: iter=    25 ; resid.=  9.81418678449315E-04
(PID.TID 0000.0001)  cg2d: iter=    26 ; resid.=  6.93014373612901E-04
(PID.TID 0000.0001)  cg2d: iter=    27 ; resid.=  5.72470802635355E-04
(PID.TID 0000.0001)  cg2d: iter=    28 ; resid.=  4.78285188016621E-04
(PID.TID 0000.0001)  cg2d: iter=    29 ; resid.=  3.78500031982219E-04
(PID.TID 0000.0001)  cg2d: iter=    30 ; resid.=  3.01080250618418E-04
(PID.TID 0000.0001)  cg2d: iter=    31 ; resid.=  2.88947566364578E-04
(PID.TID 0000.0001)  cg2d: iter=    32 ; resid.=  2.60210814794500E-04
(PID.TID 0000.0001)  cg2d: iter=    33 ; resid.=  2.28324397052434E-04
(PID.TID 0000.0001)  cg2d: iter=    34 ; resid.=  2.10317767413128E-04
(PID.TID 0000.0001)  cg2d: iter=    35 ; resid.=  1.75599264512619E-04
(PID.TID 0000.0001)  cg2d: iter=    36 ; resid.=  1.48671496841419E-04
(PID.TID 0000.0001)  cg2d: iter=    37 ; resid.=  1.18963978117441E-04
(PID.TID 0000.0001)  cg2d: iter=    38 ; resid.=  1.02388949442597E-04
(PID.TID 0000.0001)  cg2d: iter=    39 ; resid.=  8.75947351368711E-05
(PID.TID 0000.0001)  cg2d: iter=    40 ; resid.=  7.11527671990666E-05
(PID.TID 0000.0001)  cg2d: iter=    41 ; resid.=  5.09471702678942E-05
(PID.TID 0000.0001)  cg2d: iter=    42 ; resid.=  4.14445876309910E-05
(PID.TID 0000.0001)  cg2d: iter=    43 ; resid.=  3.77079191924100E-05
(PID.TID 0000.0001)  cg2d: iter=    44 ; resid.=  3.13778831830481E-05
(PID.TID 0000.0001)  cg2d: iter=    45 ; resid.=  2.46931946153133E-05
(PID.TID 0000.0001)  cg2d: iter=    46 ; resid.=  1.95910678403997E-05
(PID.TID 0000.0001)  cg2d: iter=    47 ; resid.=  1.57135053643019E-05
(PID.TID 0000.0001)  cg2d: iter=    48 ; resid.=  1.35865354600703E-05
(PID.TID 0000.0001)  cg2d: iter=    49 ; resid.=  1.23012549764602E-05
(PID.TID 0000.0001)  cg2d: iter=    50 ; resid.=  1.01821599380412E-05
(PID.TID 0000.0001)  cg2d: iter=    51 ; resid.=  7.90211227987300E-06
(PID.TID 0000.0001)  cg2d: iter=    52 ; resid.=  5.78852485030136E-06
(PID.TID 0000.0001)  cg2d: iter=    53 ; resid.=  4.86724270493474E-06
(PID.TID 0000.0001)  cg2d: iter=    54 ; resid.=  4.28543985830812E-06
(PID.TID 0000.0001)  cg2d: iter=    55 ; resid.=  3.54589621064484E-06
(PID.TID 0000.0001)  cg2d: iter=    56 ; resid.=  2.88986715521010E-06
(PID.TID 0000.0001)  cg2d: iter=    57 ; resid.=  2.61309343694035E-06
(PID.TID 0000.0001)  cg2d: iter=    58 ; resid.=  2.25514529720248E-06
(PID.TID 0000.0001)  cg2d: iter=    59 ; resid.=  1.55790172272655E-06
(PID.TID 0000.0001)  cg2d: iter=    60 ; resid.=  1.03757120158831E-06
(PID.TID 0000.0001)  cg2d: iter=    61 ; resid.=  7.64914061204654E-07
(PID.TID 0000.0001)  cg2d: iter=    62 ; resid.=  6.12225290765259E-07
(PID.TID 0000.0001)  cg2d: iter=    63 ; resid.=  5.05232574661864E-07
(PID.TID 0000.0001)  cg2d: iter=    64 ; resid.=  4.26825480658643E-07
(PID.TID 0000.0001)  cg2d: iter=    65 ; resid.=  3.49674421360777E-07
(PID.TID 0000.0001)  cg2d: iter=    66 ; resid.=  2.87553703237627E-07
(PID.TID 0000.0001)  cg2d: iter=    67 ; resid.=  2.50323208440969E-07
(PID.TID 0000.0001)  cg2d: iter=    68 ; resid.=  2.21734243481754E-07
(PID.TID 0000.0001)  cg2d: iter=    69 ; resid.=  1.97601023139724E-07
(PID.TID 0000.0001)  cg2d: iter=    70 ; resid.=  1.83995260780701E-07
(PID.TID 0000.0001)  cg2d: iter=    71 ; resid.=  1.60118438129776E-07
(PID.TID 0000.0001)  cg2d: iter=    72 ; resid.=  1.28603480968249E-07
(PID.TID 0000.0001)  cg2d: iter=    73 ; resid.=  1.14172753283493E-07
(PID.TID 0000.0001)  cg2d: iter=    74 ; resid.=  9.68380771012426E-08
(PID.TID 0000.0001)  cg2d: iter=    75 ; resid.=  7.14604828984252E-08
(PID.TID 0000.0001)  cg2d: iter=    76 ; resid.=  5.10109010433235E-08
(PID.TID 0000.0001)  cg2d: iter=    77 ; resid.=  3.91980521053525E-08
(PID.TID 0000.0001)  cg2d: iter=    78 ; resid.=  3.05871658142971E-08
(PID.TID 0000.0001)  cg2d: iter=    79 ; resid.=  2.63020505694480E-08
(PID.TID 0000.0001)  cg2d: iter=    80 ; resid.=  2.16442048935098E-08
(PID.TID 0000.0001)  cg2d: iter=    81 ; resid.=  1.64782625077728E-08
(PID.TID 0000.0001)  cg2d: iter=    82 ; resid.=  1.30304622736546E-08
(PID.TID 0000.0001)  cg2d: iter=    83 ; resid.=  1.05624484171908E-08
(PID.TID 0000.0001)  cg2d: iter=    84 ; resid.=  8.97413786673650E-09
(PID.TID 0000.0001)  cg2d: iter=    85 ; resid.=  6.30515282738114E-09
(PID.TID 0000.0001)  cg2d: iter=    86 ; resid.=  4.25154778161176E-09
(PID.TID 0000.0001)  cg2d: iter=    87 ; resid.=  3.16751004046596E-09
(PID.TID 0000.0001)  cg2d: iter=    88 ; resid.=  2.31356531791459E-09
(PID.TID 0000.0001)  cg2d: iter=    89 ; resid.=  1.74359669832120E-09
(PID.TID 0000.0001)  cg2d: iter=    90 ; resid.=  1.40242400896403E-09
(PID.TID 0000.0001)  cg2d: iter=    91 ; resid.=  1.14038057289298E-09
(PID.TID 0000.0001)  cg2d: iter=    92 ; resid.=  9.15883104831170E-10
(PID.TID 0000.0001)  cg2d: iter=    93 ; resid.=  7.41540544658762E-10
(PID.TID 0000.0001)  cg2d: iter=    94 ; resid.=  5.90709846767765E-10
(PID.TID 0000.0001)  cg2d: iter=    95 ; resid.=  4.33074015100037E-10
(PID.TID 0000.0001)  cg2d: iter=    96 ; resid.=  3.60138604135733E-10
(PID.TID 0000.0001)  cg2d: iter=    97 ; resid.=  3.02414999032401E-10
(PID.TID 0000.0001)  cg2d: iter=    98 ; resid.=  2.50871827978308E-10
(PID.TID 0000.0001)  cg2d: iter=    99 ; resid.=  2.13404426003562E-10
(PID.TID 0000.0001)  cg2d: iter=   100 ; resid.=  1.77163795286479E-10
(PID.TID 0000.0001)  cg2d: iter=   101 ; resid.=  1.48359049407270E-10
(PID.TID 0000.0001)  cg2d: iter=   102 ; resid.=  1.16761900930399E-10
(PID.TID 0000.0001)  cg2d: iter=   103 ; resid.=  9.22697699900519E-11
(PID.TID 0000.0001)  cg2d: iter=   104 ; resid.=  6.85575810640447E-11
(PID.TID 0000.0001)  cg2d: iter=   105 ; resid.=  5.54391391470430E-11
(PID.TID 0000.0001)  cg2d: iter=   106 ; resid.=  5.17500716132931E-11
(PID.TID 0000.0001)  cg2d: iter=   107 ; resid.=  4.18436376596913E-11
(PID.TID 0000.0001)  cg2d: iter=   108 ; resid.=  3.25354289266591E-11
(PID.TID 0000.0001)  cg2d: iter=   109 ; resid.=  2.56913699939551E-11
(PID.TID 0000.0001)  cg2d: iter=   110 ; resid.=  1.98592677242062E-11
(PID.TID 0000.0001)  cg2d: iter=   111 ; resid.=  1.65947726345619E-11
(PID.TID 0000.0001)  cg2d: iter=   112 ; resid.=  1.32218732961862E-11
(PID.TID 0000.0001)  cg2d: iter=   113 ; resid.=  9.79708736049460E-12
(PID.TID 0000.0001)  cg2d: iter=   114 ; resid.=  7.68033343855400E-12
(PID.TID 0000.0001)  cg2d: iter=   115 ; resid.=  5.57775533297834E-12
(PID.TID 0000.0001)  cg2d: iter=   116 ; resid.=  3.89422563652360E-12
(PID.TID 0000.0001)  cg2d: iter=   117 ; resid.=  2.91556131553545E-12
(PID.TID 0000.0001)  cg2d: iter=   118 ; resid.=  2.02552721627465E-12
(PID.TID 0000.0001)  cg2d: iter=   119 ; resid.=  1.38092498034310E-12
(PID.TID 0000.0001)  cg2d: iter=   120 ; resid.=  9.81996848894574E-13
(PID.TID 0000.0001)  cg2d: iter=   121 ; resid.=  7.12549140167814E-13
(PID.TID 0000.0001)  cg2d: iter=   122 ; resid.=  5.72619368894420E-13
(PID.TID 0000.0001)  cg2d: iter=   123 ; resid.=  4.62598711311849E-13
(PID.TID 0000.0001)  cg2d: iter=   124 ; resid.=  3.98852669942913E-13
(PID.TID 0000.0001)  cg2d: iter=   125 ; resid.=  3.27577088583269E-13
(PID.TID 0000.0001)  cg2d: iter=   126 ; resid.=  2.57286904629151E-13
(PID.TID 0000.0001)  cg2d: iter=   127 ; resid.=  1.99836647152071E-13
(PID.TID 0000.0001)  cg2d: iter=   128 ; resid.=  1.44902544865021E-13
(PID.TID 0000.0001)  cg2d: iter=   129 ; resid.=  9.99832514684225E-14
DEBUG_STATS_RL:    cg2d_x (SOLVE_FOR_PRESSURE)  min= -1.84486989320629E+01
DEBUG_STATS_RL:    cg2d_x (SOLVE_FOR_PRESSURE)  max=  9.37026854698983E+00
DEBUG_STATS_RL:    cg2d_x (SOLVE_FOR_PRESSURE) mean= -1.86598808701344E+00
DEBUG_STATS_RL:    cg2d_x (SOLVE_FOR_PRESSURE) S.D.=  7.25278246072083E+00
(PID.TID 0000.0001)      cg2d_init_res =   2.52499041671873E-01
(PID.TID 0000.0001)      cg2d_iters(min,last) =      -1     129
(PID.TID 0000.0001)      cg2d_last_res =   9.99832514684225E-14
(PID.TID 0000.0001) // =======================================================
(PID.TID 0000.0001) // Begin MONITOR dynamic field statistics
(PID.TID 0000.0001) // =======================================================
(PID.TID 0000.0001) %MON time_tsnumber                =                    67
(PID.TID 0000.0001) %MON time_secondsf                =   5.7888000000000E+06
(PID.TID 0000.0001) %MON dynstat_eta_max              =   9.5517518317941E-01
(PID.TID 0000.0001) %MON dynstat_eta_min              =  -1.8806013182531E+00
(PID.TID 0000.0001) %MON dynstat_eta_mean             =  -4.8979447291612E-03
(PID.TID 0000.0001) %MON dynstat_eta_sd               =   6.4377877628713E-01
(PID.TID 0000.0001) %MON dynstat_eta_del2             =   2.4160412712659E-03
(PID.TID 0000.0001) %MON dynstat_uvel_max             =   1.3584593718156E-01
(PID.TID 0000.0001) %MON dynstat_uvel_min             =  -1.2346528960919E-01
(PID.TID 0000.0001) %MON dynstat_uvel_mean            =   2.1430538529817E-03
(PID.TID 0000.0001) %MON dynstat_uvel_sd              =   1.2787262646545E-02
(PID.TID 0000.0001) %MON dynstat_uvel_del2            =   7.9001818699086E-05
(PID.TID 0000.0001) %MON dynstat_vvel_max             =   1.4160696572223E-01
(PID.TID 0000.0001) %MON dynstat_vvel_min             =  -9.6544367591722E-02
(PID.TID 0000.0001) %MON dynstat_vvel_mean            =   5.4393149635993E-05
(PID.TID 0000.0001) %MON dynstat_vvel_sd              =   8.2111182505066E-03
(PID.TID 0000.0001) %MON dynstat_vvel_del2            =   7.2573514845231E-05
(PID.TID 0000.0001) %MON dynstat_wvel_max             =   1.2310435542861E-04
(PID.TID 0000.0001) %MON dynstat_wvel_min             =  -7.4534355287680E-05
(PID.TID 0000.0001) %MON dynstat_wvel_mean            =   1.0784941139716E-22
(PID.TID 0000.0001) %MON dynstat_wvel_sd              =   1.0249086694589E-05
(PID.TID 0000.0001) %MON dynstat_wvel_del2            =   1.0509147355375E-07
(PID.TID 0000.0001) %MON dynstat_theta_max            =   2.9985878086422E+01
(PID.TID 0000.0001) %MON dynstat_theta_min            =  -1.9328766996496E+00
(PID.TID 0000.0001) %MON dynstat_theta_mean           =   3.6213431716598E+00
(PID.TID 0000.0001) %MON dynstat_theta_sd             =   4.4207532263424E+00
(PID.TID 0000.0001) %MON dynstat_theta_del2           =   4.7293207741784E-03
(PID.TID 0000.0001) %MON dynstat_salt_max             =   3.7456693406353E+01
(PID.TID 0000.0001) %MON dynstat_salt_min             =   2.9847046465004E+01
(PID.TID 0000.0001) %MON dynstat_salt_mean            =   3.4717306241717E+01
(PID.TID 0000.0001) %MON dynstat_salt_sd              =   2.9625894005578E-01
(PID.TID 0000.0001) %MON dynstat_salt_del2            =   9.6264971324866E-04
(PID.TID 0000.0001) %MON dynstat_sst_max              =   2.9985878086422E+01
(PID.TID 0000.0001) %MON dynstat_sst_min              =  -1.9328766996496E+00
(PID.TID 0000.0001) %MON dynstat_sst_mean             =   1.8809173317559E+01
(PID.TID 0000.0001) %MON dynstat_sst_sd               =   9.1975913667387E+00
(PID.TID 0000.0001) %MON dynstat_sst_del2             =   2.4242668406898E-02
(PID.TID 0000.0001) %MON dynstat_sss_max              =   3.7395242650904E+01
(PID.TID 0000.0001) %MON dynstat_sss_min              =   2.9847046465004E+01
(PID.TID 0000.0001) %MON dynstat_sss_mean             =   3.4838740819218E+01
(PID.TID 0000.0001) %MON dynstat_sss_sd               =   9.7937466745036E-01
(PID.TID 0000.0001) %MON dynstat_sss_del2             =   7.6012543469791E-03
(PID.TID 0000.0001) %MON forcing_qnet_max             =   2.9969105529785E+02
(PID.TID 0000.0001) %MON forcing_qnet_min             =  -1.6654910430908E+02
(PID.TID 0000.0001) %MON forcing_qnet_mean            =  -9.2751214867842E+00
(PID.TID 0000.0001) %MON forcing_qnet_sd              =   5.3417334292331E+01
(PID.TID 0000.0001) %MON forcing_qnet_del2            =   8.6450663547171E-01
(PID.TID 0000.0001) %MON forcing_qsw_max              =   0.0000000000000E+00
(PID.TID 0000.0001) %MON forcing_qsw_min              =   0.0000000000000E+00
(PID.TID 0000.0001) %MON forcing_qsw_mean             =   0.0000000000000E+00
(PID.TID 0000.0001) %MON forcing_qsw_sd               =   0.0000000000000E+00
(PID.TID 0000.0001) %MON forcing_qsw_del2             =   0.0000000000000E+00
(PID.TID 0000.0001) %MON forcing_empmr_max            =   6.9160628868303E-05
(PID.TID 0000.0001) %MON forcing_empmr_min            =  -7.9671801245240E-05
(PID.TID 0000.0001) %MON forcing_empmr_mean           =   6.6852043154790E-07
(PID.TID 0000.0001) %MON forcing_empmr_sd             =   2.6572386265845E-05
(PID.TID 0000.0001) %MON forcing_empmr_del2           =   3.5744101537631E-07
(PID.TID 0000.0001) %MON forcing_fu_max               =   3.4007865488529E-01
(PID.TID 0000.0001) %MON forcing_fu_min               =  -3.3120734989643E-01
(PID.TID 0000.0001) %MON forcing_fu_mean              =   1.9608932995262E-02
(PID.TID 0000.0001) %MON forcing_fu_sd                =   9.7551455334173E-02
(PID.TID 0000.0001) %MON forcing_fu_del2              =   7.5067710575234E-04
(PID.TID 0000.0001) %MON forcing_fv_max               =   1.4891323596239E-01
(PID.TID 0000.0001) %MON forcing_fv_min               =  -1.7985151261091E-01
(PID.TID 0000.0001) %MON forcing_fv_mean              =  -7.4357202903193E-03
(PID.TID 0000.0001) %MON forcing_fv_sd                =   4.1731256114148E-02
(PID.TID 0000.0001) %MON forcing_fv_del2              =   4.7036402229304E-04
(PID.TID 0000.0001) %MON trAdv_CFL_u_max              =   4.5051880465347E-02
(PID.TID 0000.0001) %MON trAdv_CFL_v_max              =   2.7191879458528E-02
(PID.TID 0000.0001) %MON trAdv_CFL_w_max              =   2.9372083279500E-02
(PID.TID 0000.0001) %MON advcfl_uvel_max              =   4.5999064860108E-02
(PID.TID 0000.0001) %MON advcfl_vvel_max              =   2.7511962337144E-02
(PID.TID 0000.0001) %MON advcfl_wvel_max              =   2.9140318654882E-02
(PID.TID 0000.0001) %MON advcfl_W_hf_max              =   3.2104390085479E-02
(PID.TID 0000.0001) %MON pe_b_mean                    =   5.3037085171130E-04
(PID.TID 0000.0001) %MON ke_max                       =   1.0660089577113E-02
(PID.TID 0000.0001) %MON ke_mean                      =   1.0664367516584E-04
(PID.TID 0000.0001) %MON ke_vol                       =   1.3226782436723E+18
(PID.TID 0000.0001) %MON vort_r_min                   =  -2.9367454927900E-07
(PID.TID 0000.0001) %MON vort_r_max                   =   4.0783949708748E-07
(PID.TID 0000.0001) %MON vort_a_mean                  =  -2.5274807334884E-05
(PID.TID 0000.0001) %MON vort_a_sd                    =   7.3604616136821E-05
(PID.TID 0000.0001) %MON vort_p_mean                  =  -3.1845655720639E-05
(PID.TID 0000.0001) %MON vort_p_sd                    =   1.3162507943258E-04
(PID.TID 0000.0001) %MON surfExpan_theta_mean         =  -1.0914919796568E-07
(PID.TID 0000.0001) %MON surfExpan_salt_mean          =   5.0689285510291E-08
(PID.TID 0000.0001) // =======================================================
(PID.TID 0000.0001) // End MONITOR dynamic field statistics
(PID.TID 0000.0001) // =======================================================
 EXTERNAL_FIELDS_LOAD,        67 : iP,iLd,i0,i1=    2    3    2    3 ; Wght=  0.2666666667  0.7333333333
 EXTERNAL_FIELDS_LOAD: (fu0,1),fu,fv= -1.4435E-02 -2.7199E-02 -2.3795E-02 -5.1267E-03
 EXTERNAL_FIELDS_LOAD: SST,SSS,Q,E-P= -2.7669E-01  3.4537E+01  2.2209E+02  8.8932E-06
DEBUG_STATS_RL:          Uvel (THERMODYNAMICS)  min= -1.23465289609186E-01
DEBUG_STATS_RL:          Uvel (THERMODYNAMICS)  max=  1.35845937181561E-01
DEBUG_STATS_RL:          Uvel (THERMODYNAMICS) mean=  5.59394081214185E-03
DEBUG_STATS_RL:          Uvel (THERMODYNAMICS) S.D.=  2.08117478903174E-02
DEBUG_STATS_RL:          Vvel (THERMODYNAMICS)  min= -9.65443675917219E-02
DEBUG_STATS_RL:          Vvel (THERMODYNAMICS)  max=  1.41606965722226E-01
DEBUG_STATS_RL:          Vvel (THERMODYNAMICS) mean=  5.58764251200062E-04
DEBUG_STATS_RL:          Vvel (THERMODYNAMICS) S.D.=  1.33889184217460E-02
DEBUG_STATS_RL:          Wvel (THERMODYNAMICS)  min= -7.45343552876798E-05
DEBUG_STATS_RL:          Wvel (THERMODYNAMICS)  max=  1.23104355428611E-04
DEBUG_STATS_RL:          Wvel (THERMODYNAMICS) mean= -1.20880966123643E-07
DEBUG_STATS_RL:          Wvel (THERMODYNAMICS) S.D.=  9.07871482113927E-06
DEBUG_STATS_RL:         Theta (THERMODYNAMICS)  min= -1.93481784930287E+00
DEBUG_STATS_RL:         Theta (THERMODYNAMICS)  max=  2.99937128980880E+01
DEBUG_STATS_RL:         Theta (THERMODYNAMICS) mean=  3.21099805845354E+00
DEBUG_STATS_RL:         Theta (THERMODYNAMICS) S.D.=  5.86798759689488E+00
DEBUG_STATS_RL:          Salt (THERMODYNAMICS)  min= -6.86334120039182E-04
DEBUG_STATS_RL:          Salt (THERMODYNAMICS)  max=  3.74559862703351E+01
DEBUG_STATS_RL:          Salt (THERMODYNAMICS) mean=  1.88440411476718E+01
DEBUG_STATS_RL:          Salt (THERMODYNAMICS) S.D.=  1.73002633724499E+01
DEBUG_STATS_RL:         GtNm1 (THERMODYNAMICS)  min= -2.81901513962848E-06
DEBUG_STATS_RL:         GtNm1 (THERMODYNAMICS)  max=  1.72001533080464E-06
DEBUG_STATS_RL:         GtNm1 (THERMODYNAMICS) mean=  1.69995285694925E-09
DEBUG_STATS_RL:         GtNm1 (THERMODYNAMICS) S.D.=  1.38236324348239E-07
DEBUG_STATS_RL:         GsNm1 (THERMODYNAMICS)  min= -2.55421277096281E-07
DEBUG_STATS_RL:         GsNm1 (THERMODYNAMICS)  max=  2.31193994192651E-07
DEBUG_STATS_RL:         GsNm1 (THERMODYNAMICS) mean= -2.45397197088838E-10
DEBUG_STATS_RL:         GsNm1 (THERMODYNAMICS) S.D.=  1.31174588810744E-08
DEBUG_STATS_RL:                EtaN (DYNAMICS)  min= -1.88060131825311E+00
DEBUG_STATS_RL:                EtaN (DYNAMICS)  max=  9.55175183179409E-01
DEBUG_STATS_RL:                EtaN (DYNAMICS) mean= -1.90212852906569E-01
DEBUG_STATS_RL:                EtaN (DYNAMICS) S.D.=  7.39325429227401E-01
DEBUG_STATS_RL:                Uvel (DYNAMICS)  min= -1.23465289609186E-01
DEBUG_STATS_RL:                Uvel (DYNAMICS)  max=  1.35845937181561E-01
DEBUG_STATS_RL:                Uvel (DYNAMICS) mean=  5.59394081214185E-03
DEBUG_STATS_RL:                Uvel (DYNAMICS) S.D.=  2.08117478903174E-02
DEBUG_STATS_RL:                Vvel (DYNAMICS)  min= -9.65443675917219E-02
DEBUG_STATS_RL:                Vvel (DYNAMICS)  max=  1.41606965722226E-01
DEBUG_STATS_RL:                Vvel (DYNAMICS) mean=  5.58764251200062E-04
DEBUG_STATS_RL:                Vvel (DYNAMICS) S.D.=  1.33889184217460E-02
DEBUG_STATS_RL:                Wvel (DYNAMICS)  min= -7.45343552876798E-05
DEBUG_STATS_RL:                Wvel (DYNAMICS)  max=  1.23104355428611E-04
DEBUG_STATS_RL:                Wvel (DYNAMICS) mean= -1.20880966123643E-07
DEBUG_STATS_RL:                Wvel (DYNAMICS) S.D.=  9.07871482113927E-06
DEBUG_STATS_RL:               Theta (DYNAMICS)  min= -1.93481784930287E+00
DEBUG_STATS_RL:               Theta (DYNAMICS)  max=  2.99937128980880E+01
DEBUG_STATS_RL:               Theta (DYNAMICS) mean=  3.21099805845354E+00
DEBUG_STATS_RL:               Theta (DYNAMICS) S.D.=  5.86798759689488E+00
DEBUG_STATS_RL:                Salt (DYNAMICS)  min= -6.86334120039182E-04
DEBUG_STATS_RL:                Salt (DYNAMICS)  max=  3.74559862703351E+01
DEBUG_STATS_RL:                Salt (DYNAMICS) mean=  1.88440411476718E+01
DEBUG_STATS_RL:                Salt (DYNAMICS) S.D.=  1.73002633724499E+01
DEBUG_STATS_RL:                  Gu (DYNAMICS)  min= -1.23240461422810E-01
DEBUG_STATS_RL:                  Gu (DYNAMICS)  max=  1.38462211897190E-01
DEBUG_STATS_RL:                  Gu (DYNAMICS) mean=  5.61111865929176E-03
DEBUG_STATS_RL:                  Gu (DYNAMICS) S.D.=  2.14370552249075E-02
DEBUG_STATS_RL:                  Gv (DYNAMICS)  min= -1.04470180278588E-01
DEBUG_STATS_RL:                  Gv (DYNAMICS)  max=  1.42294530052884E-01
DEBUG_STATS_RL:                  Gv (DYNAMICS) mean=  3.13024453792607E-03
DEBUG_STATS_RL:                  Gv (DYNAMICS) S.D.=  1.44837259021855E-02
DEBUG_STATS_RL:               GuNm1 (DYNAMICS)  min= -9.80673303023717E-06
DEBUG_STATS_RL:               GuNm1 (DYNAMICS)  max=  9.26192794307931E-06
DEBUG_STATS_RL:               GuNm1 (DYNAMICS) mean=  2.17148390336054E-09
DEBUG_STATS_RL:               GuNm1 (DYNAMICS) S.D.=  1.19405943500934E-06
DEBUG_STATS_RL:               GvNm1 (DYNAMICS)  min= -1.00297082769138E-05
DEBUG_STATS_RL:               GvNm1 (DYNAMICS)  max=  1.56311168668951E-05
DEBUG_STATS_RL:               GvNm1 (DYNAMICS) mean=  7.37686184465948E-07
DEBUG_STATS_RL:               GvNm1 (DYNAMICS) S.D.=  2.62452098740151E-06
DEBUG_STATS_RL:               GtNm1 (DYNAMICS)  min= -2.81901513962848E-06
DEBUG_STATS_RL:               GtNm1 (DYNAMICS)  max=  1.72001533080464E-06
DEBUG_STATS_RL:               GtNm1 (DYNAMICS) mean=  1.69995285694925E-09
DEBUG_STATS_RL:               GtNm1 (DYNAMICS) S.D.=  1.38236324348239E-07
DEBUG_STATS_RL:               GsNm1 (DYNAMICS)  min= -2.55421277096281E-07
DEBUG_STATS_RL:               GsNm1 (DYNAMICS)  max=  2.31193994192651E-07
DEBUG_STATS_RL:               GsNm1 (DYNAMICS) mean= -2.45397197088838E-10
DEBUG_STATS_RL:               GsNm1 (DYNAMICS) S.D.=  1.31174588810744E-08
DEBUG_STATS_RL:    cg2d_b (SOLVE_FOR_PRESSURE)  min= -2.08406343087796E+04
DEBUG_STATS_RL:    cg2d_b (SOLVE_FOR_PRESSURE)  max=  2.39078034030241E+04
DEBUG_STATS_RL:    cg2d_b (SOLVE_FOR_PRESSURE) mean=  4.74676330301557E+00
DEBUG_STATS_RL:    cg2d_b (SOLVE_FOR_PRESSURE) S.D.=  3.89674361450249E+03
 cg2d: Sum(rhs),rhsMax =   4.59630559162480E-01  1.57032853887817E+00
(PID.TID 0000.0001)  cg2d: iter=     1 ; resid.=  7.01715147115128E-02
(PID.TID 0000.0001)  cg2d: iter=     2 ; resid.=  4.32889626362233E-02
(PID.TID 0000.0001)  cg2d: iter=     3 ; resid.=  3.88258363548774E-02
(PID.TID 0000.0001)  cg2d: iter=     4 ; resid.=  3.83179999195868E-02
(PID.TID 0000.0001)  cg2d: iter=     5 ; resid.=  3.93873291737191E-02
(PID.TID 0000.0001)  cg2d: iter=     6 ; resid.=  3.24204599310687E-02
(PID.TID 0000.0001)  cg2d: iter=     7 ; resid.=  2.57969725977616E-02
(PID.TID 0000.0001)  cg2d: iter=     8 ; resid.=  2.20642305946899E-02
(PID.TID 0000.0001)  cg2d: iter=     9 ; resid.=  1.97182537085342E-02
(PID.TID 0000.0001)  cg2d: iter=    10 ; resid.=  1.59056045439652E-02
(PID.TID 0000.0001)  cg2d: iter=    11 ; resid.=  1.27028855224304E-02
(PID.TID 0000.0001)  cg2d: iter=    12 ; resid.=  9.71016536195782E-03
(PID.TID 0000.0001)  cg2d: iter=    13 ; resid.=  6.73073537470749E-03
(PID.TID 0000.0001)  cg2d: iter=    14 ; resid.=  5.05737548309224E-03
(PID.TID 0000.0001)  cg2d: iter=    15 ; resid.=  4.45341548644294E-03
(PID.TID 0000.0001)  cg2d: iter=    16 ; resid.=  3.92521002480167E-03
(PID.TID 0000.0001)  cg2d: iter=    17 ; resid.=  3.81754592015987E-03
(PID.TID 0000.0001)  cg2d: iter=    18 ; resid.=  3.88496510467532E-03
(PID.TID 0000.0001)  cg2d: iter=    19 ; resid.=  3.14184648604378E-03
(PID.TID 0000.0001)  cg2d: iter=    20 ; resid.=  2.45778987503136E-03
(PID.TID 0000.0001)  cg2d: iter=    21 ; resid.=  1.99754189823494E-03
(PID.TID 0000.0001)  cg2d: iter=    22 ; resid.=  1.58380762283050E-03
(PID.TID 0000.0001)  cg2d: iter=    23 ; resid.=  1.29969351711178E-03
(PID.TID 0000.0001)  cg2d: iter=    24 ; resid.=  1.13588813383951E-03
(PID.TID 0000.0001)  cg2d: iter=    25 ; resid.=  9.57524716643620E-04
(PID.TID 0000.0001)  cg2d: iter=    26 ; resid.=  6.79837864604271E-04
(PID.TID 0000.0001)  cg2d: iter=    27 ; resid.=  5.55181555372904E-04
(PID.TID 0000.0001)  cg2d: iter=    28 ; resid.=  4.62886424116219E-04
(PID.TID 0000.0001)  cg2d: iter=    29 ; resid.=  3.70515099767513E-04
(PID.TID 0000.0001)  cg2d: iter=    30 ; resid.=  3.03441363149163E-04
(PID.TID 0000.0001)  cg2d: iter=    31 ; resid.=  2.98326293183634E-04
(PID.TID 0000.0001)  cg2d: iter=    32 ; resid.=  2.70261319011189E-04
(PID.TID 0000.0001)  cg2d: iter=    33 ; resid.=  2.36184409083784E-04
(PID.TID 0000.0001)  cg2d: iter=    34 ; resid.=  2.15204014890043E-04
(PID.TID 0000.0001)  cg2d: iter=    35 ; resid.=  1.77018434559209E-04
(PID.TID 0000.0001)  cg2d: iter=    36 ; resid.=  1.48392395585819E-04
(PID.TID 0000.0001)  cg2d: iter=    37 ; resid.=  1.17679651945866E-04
(PID.TID 0000.0001)  cg2d: iter=    38 ; resid.=  9.89946085463466E-05
(PID.TID 0000.0001)  cg2d: iter=    39 ; resid.=  8.34035251115994E-05
(PID.TID 0000.0001)  cg2d: iter=    40 ; resid.=  6.79205481504770E-05
(PID.TID 0000.0001)  cg2d: iter=    41 ; resid.=  4.83557460368821E-05
(PID.TID 0000.0001)  cg2d: iter=    42 ; resid.=  3.80503892634383E-05
(PID.TID 0000.0001)  cg2d: iter=    43 ; resid.=  3.43686143238104E-05
(PID.TID 0000.0001)  cg2d: iter=    44 ; resid.=  2.92944446748882E-05
(PID.TID 0000.0001)  cg2d: iter=    45 ; resid.=  2.36539448778926E-05
(PID.TID 0000.0001)  cg2d: iter=    46 ; resid.=  1.90563760186459E-05
(PID.TID 0000.0001)  cg2d: iter=    47 ; resid.=  1.53024863110614E-05
(PID.TID 0000.0001)  cg2d: iter=    48 ; resid.=  1.30061740052631E-05
(PID.TID 0000.0001)  cg2d: iter=    49 ; resid.=  1.15873954573531E-05
(PID.TID 0000.0001)  cg2d: iter=    50 ; resid.=  9.61238097060672E-06
(PID.TID 0000.0001)  cg2d: iter=    51 ; resid.=  7.57797775173477E-06
(PID.TID 0000.0001)  cg2d: iter=    52 ; resid.=  5.41082512758698E-06
(PID.TID 0000.0001)  cg2d: iter=    53 ; resid.=  4.41697113192652E-06
(PID.TID 0000.0001)  cg2d: iter=    54 ; resid.=  3.86059808060882E-06
(PID.TID 0000.0001)  cg2d: iter=    55 ; resid.=  3.19597135437744E-06
(PID.TID 0000.0001)  cg2d: iter=    56 ; resid.=  2.62250671070865E-06
(PID.TID 0000.0001)  cg2d: iter=    57 ; resid.=  2.41949038329823E-06
(PID.TID 0000.0001)  cg2d: iter=    58 ; resid.=  2.18253247875107E-06
(PID.TID 0000.0001)  cg2d: iter=    59 ; resid.=  1.57983798591941E-06
(PID.TID 0000.0001)  cg2d: iter=    60 ; resid.=  1.08173666002467E-06
(PID.TID 0000.0001)  cg2d: iter=    61 ; resid.=  8.07744860604265E-07
(PID.TID 0000.0001)  cg2d: iter=    62 ; resid.=  6.53455348459166E-07
(PID.TID 0000.0001)  cg2d: iter=    63 ; resid.=  5.57257964009392E-07
(PID.TID 0000.0001)  cg2d: iter=    64 ; resid.=  4.79487863627340E-07
(PID.TID 0000.0001)  cg2d: iter=    65 ; resid.=  3.89964574259361E-07
(PID.TID 0000.0001)  cg2d: iter=    66 ; resid.=  3.29077704382794E-07
(PID.TID 0000.0001)  cg2d: iter=    67 ; resid.=  2.80125829148359E-07
(PID.TID 0000.0001)  cg2d: iter=    68 ; resid.=  2.49639652954071E-07
(PID.TID 0000.0001)  cg2d: iter=    69 ; resid.=  2.13121025005906E-07
(PID.TID 0000.0001)  cg2d: iter=    70 ; resid.=  1.97182373837582E-07
(PID.TID 0000.0001)  cg2d: iter=    71 ; resid.=  1.70192174061122E-07
(PID.TID 0000.0001)  cg2d: iter=    72 ; resid.=  1.33720868592371E-07
(PID.TID 0000.0001)  cg2d: iter=    73 ; resid.=  1.17449388321336E-07
(PID.TID 0000.0001)  cg2d: iter=    74 ; resid.=  1.02315568556304E-07
(PID.TID 0000.0001)  cg2d: iter=    75 ; resid.=  7.61904495024163E-08
(PID.TID 0000.0001)  cg2d: iter=    76 ; resid.=  5.47002840621630E-08
(PID.TID 0000.0001)  cg2d: iter=    77 ; resid.=  4.15148592370279E-08
(PID.TID 0000.0001)  cg2d: iter=    78 ; resid.=  3.24925782741564E-08
(PID.TID 0000.0001)  cg2d: iter=    79 ; resid.=  2.74854804807696E-08
(PID.TID 0000.0001)  cg2d: iter=    80 ; resid.=  2.28639825107112E-08
(PID.TID 0000.0001)  cg2d: iter=    81 ; resid.=  1.75636387135567E-08
(PID.TID 0000.0001)  cg2d: iter=    82 ; resid.=  1.37300423996997E-08
(PID.TID 0000.0001)  cg2d: iter=    83 ; resid.=  1.09241452801236E-08
(PID.TID 0000.0001)  cg2d: iter=    84 ; resid.=  9.49964501205320E-09
(PID.TID 0000.0001)  cg2d: iter=    85 ; resid.=  6.76195853153750E-09
(PID.TID 0000.0001)  cg2d: iter=    86 ; resid.=  4.40935652048778E-09
(PID.TID 0000.0001)  cg2d: iter=    87 ; resid.=  3.25026309440981E-09
(PID.TID 0000.0001)  cg2d: iter=    88 ; resid.=  2.36616360890616E-09
(PID.TID 0000.0001)  cg2d: iter=    89 ; resid.=  1.81149731093810E-09
(PID.TID 0000.0001)  cg2d: iter=    90 ; resid.=  1.47425722581333E-09
(PID.TID 0000.0001)  cg2d: iter=    91 ; resid.=  1.21812577313104E-09
(PID.TID 0000.0001)  cg2d: iter=    92 ; resid.=  9.94312718475593E-10
(PID.TID 0000.0001)  cg2d: iter=    93 ; resid.=  8.23920959518233E-10
(PID.TID 0000.0001)  cg2d: iter=    94 ; resid.=  6.69569213786071E-10
(PID.TID 0000.0001)  cg2d: iter=    95 ; resid.=  4.88324815000205E-10
(PID.TID 0000.0001)  cg2d: iter=    96 ; resid.=  3.99686050256773E-10
(PID.TID 0000.0001)  cg2d: iter=    97 ; resid.=  3.37532738274211E-10
(PID.TID 0000.0001)  cg2d: iter=    98 ; resid.=  2.85015058853356E-10
(PID.TID 0000.0001)  cg2d: iter=    99 ; resid.=  2.46147966953185E-10
(PID.TID 0000.0001)  cg2d: iter=   100 ; resid.=  2.05918778233038E-10
(PID.TID 0000.0001)  cg2d: iter=   101 ; resid.=  1.68824767136420E-10
(PID.TID 0000.0001)  cg2d: iter=   102 ; resid.=  1.29827305016563E-10
(PID.TID 0000.0001)  cg2d: iter=   103 ; resid.=  1.00323720378755E-10
(PID.TID 0000.0001)  cg2d: iter=   104 ; resid.=  7.44901896338334E-11
(PID.TID 0000.0001)  cg2d: iter=   105 ; resid.=  5.98100411383313E-11
(PID.TID 0000.0001)  cg2d: iter=   106 ; resid.=  5.60173426500866E-11
(PID.TID 0000.0001)  cg2d: iter=   107 ; resid.=  4.58100384651774E-11
(PID.TID 0000.0001)  cg2d: iter=   108 ; resid.=  3.52571147408679E-11
(PID.TID 0000.0001)  cg2d: iter=   109 ; resid.=  2.72869419931668E-11
(PID.TID 0000.0001)  cg2d: iter=   110 ; resid.=  2.04149350683472E-11
(PID.TID 0000.0001)  cg2d: iter=   111 ; resid.=  1.70532900346810E-11
(PID.TID 0000.0001)  cg2d: iter=   112 ; resid.=  1.35105376913394E-11
(PID.TID 0000.0001)  cg2d: iter=   113 ; resid.=  9.96787831438503E-12
(PID.TID 0000.0001)  cg2d: iter=   114 ; resid.=  7.76538225951937E-12
(PID.TID 0000.0001)  cg2d: iter=   115 ; resid.=  5.50619402809091E-12
(PID.TID 0000.0001)  cg2d: iter=   116 ; resid.=  3.69793909243748E-12
(PID.TID 0000.0001)  cg2d: iter=   117 ; resid.=  2.72427376787680E-12
(PID.TID 0000.0001)  cg2d: iter=   118 ; resid.=  1.89762572297570E-12
(PID.TID 0000.0001)  cg2d: iter=   119 ; resid.=  1.28618660257748E-12
(PID.TID 0000.0001)  cg2d: iter=   120 ; resid.=  9.03440269161812E-13
(PID.TID 0000.0001)  cg2d: iter=   121 ; resid.=  6.38033414157746E-13
(PID.TID 0000.0001)  cg2d: iter=   122 ; resid.=  5.08866077461969E-13
(PID.TID 0000.0001)  cg2d: iter=   123 ; resid.=  3.97748692237432E-13
(PID.TID 0000.0001)  cg2d: iter=   124 ; resid.=  3.32960929761899E-13
(PID.TID 0000.0001)  cg2d: iter=   125 ; resid.=  2.73000744474627E-13
(PID.TID 0000.0001)  cg2d: iter=   126 ; resid.=  2.16856840662155E-13
(PID.TID 0000.0001)  cg2d: iter=   127 ; resid.=  1.72034757390315E-13
(PID.TID 0000.0001)  cg2d: iter=   128 ; resid.=  1.29248494441580E-13
(PID.TID 0000.0001)  cg2d: iter=   129 ; resid.=  9.29403215470640E-14
DEBUG_STATS_RL:    cg2d_x (SOLVE_FOR_PRESSURE)  min= -1.85124914016878E+01
DEBUG_STATS_RL:    cg2d_x (SOLVE_FOR_PRESSURE)  max=  9.36669004578277E+00
DEBUG_STATS_RL:    cg2d_x (SOLVE_FOR_PRESSURE) mean= -1.85679418271926E+00
DEBUG_STATS_RL:    cg2d_x (SOLVE_FOR_PRESSURE) S.D.=  7.22780702095150E+00
(PID.TID 0000.0001)      cg2d_init_res =   2.54216772399334E-01
(PID.TID 0000.0001)      cg2d_iters(min,last) =      -1     129
(PID.TID 0000.0001)      cg2d_last_res =   9.29403215470640E-14
(PID.TID 0000.0001) // =======================================================
(PID.TID 0000.0001) // Begin MONITOR dynamic field statistics
(PID.TID 0000.0001) // =======================================================
(PID.TID 0000.0001) %MON time_tsnumber                =                    68
(PID.TID 0000.0001) %MON time_secondsf                =   5.8752000000000E+06
(PID.TID 0000.0001) %MON dynstat_eta_max              =   9.5481040222036E-01
(PID.TID 0000.0001) %MON dynstat_eta_min              =  -1.8871041184187E+00
(PID.TID 0000.0001) %MON dynstat_eta_mean             =  -4.9526589274781E-03
(PID.TID 0000.0001) %MON dynstat_eta_sd               =   6.4103380766431E-01
(PID.TID 0000.0001) %MON dynstat_eta_del2             =   2.4188194061657E-03
(PID.TID 0000.0001) %MON dynstat_uvel_max             =   1.4014052877928E-01
(PID.TID 0000.0001) %MON dynstat_uvel_min             =  -1.2299200760386E-01
(PID.TID 0000.0001) %MON dynstat_uvel_mean            =   2.1641522818691E-03
(PID.TID 0000.0001) %MON dynstat_uvel_sd              =   1.2918609166065E-02
(PID.TID 0000.0001) %MON dynstat_uvel_del2            =   7.9491177931433E-05
(PID.TID 0000.0001) %MON dynstat_vvel_max             =   1.4232580234561E-01
(PID.TID 0000.0001) %MON dynstat_vvel_min             =  -9.3974194663403E-02
(PID.TID 0000.0001) %MON dynstat_vvel_mean            =   5.7067716078813E-05
(PID.TID 0000.0001) %MON dynstat_vvel_sd              =   8.1905448861733E-03
(PID.TID 0000.0001) %MON dynstat_vvel_del2            =   7.2554293685716E-05
(PID.TID 0000.0001) %MON dynstat_wvel_max             =   1.2973675892275E-04
(PID.TID 0000.0001) %MON dynstat_wvel_min             =  -7.5676607615929E-05
(PID.TID 0000.0001) %MON dynstat_wvel_mean            =  -2.7340812076863E-23
(PID.TID 0000.0001) %MON dynstat_wvel_sd              =   1.0198814026006E-05
(PID.TID 0000.0001) %MON dynstat_wvel_del2            =   1.0415075355401E-07
(PID.TID 0000.0001) %MON dynstat_theta_max            =   2.9993712898088E+01
(PID.TID 0000.0001) %MON dynstat_theta_min            =  -1.9348178493029E+00
(PID.TID 0000.0001) %MON dynstat_theta_mean           =   3.6213757461131E+00
(PID.TID 0000.0001) %MON dynstat_theta_sd             =   4.4209157071531E+00
(PID.TID 0000.0001) %MON dynstat_theta_del2           =   4.7220811529650E-03
(PID.TID 0000.0001) %MON dynstat_salt_max             =   3.7455986270335E+01
(PID.TID 0000.0001) %MON dynstat_salt_min             =   2.9849394015791E+01
(PID.TID 0000.0001) %MON dynstat_salt_mean            =   3.4717306595129E+01
(PID.TID 0000.0001) %MON dynstat_salt_sd              =   2.9625930392585E-01
(PID.TID 0000.0001) %MON dynstat_salt_del2            =   9.6187559542630E-04
(PID.TID 0000.0001) %MON dynstat_sst_max              =   2.9993712898088E+01
(PID.TID 0000.0001) %MON dynstat_sst_min              =  -1.9348178493029E+00
(PID.TID 0000.0001) %MON dynstat_sst_mean             =   1.8810633814280E+01
(PID.TID 0000.0001) %MON dynstat_sst_sd               =   9.2036192222670E+00
(PID.TID 0000.0001) %MON dynstat_sst_del2             =   2.4171645121319E-02
(PID.TID 0000.0001) %MON dynstat_sss_max              =   3.7395742564403E+01
(PID.TID 0000.0001) %MON dynstat_sss_min              =   2.9849394015791E+01
(PID.TID 0000.0001) %MON dynstat_sss_mean             =   3.4838632417183E+01
(PID.TID 0000.0001) %MON dynstat_sss_sd               =   9.7957862005483E-01
(PID.TID 0000.0001) %MON dynstat_sss_del2             =   7.5964436016339E-03
(PID.TID 0000.0001) %MON forcing_qnet_max             =   2.9689290364583E+02
(PID.TID 0000.0001) %MON forcing_qnet_min             =  -1.6624982503255E+02
(PID.TID 0000.0001) %MON forcing_qnet_mean            =  -9.0517819871576E+00
(PID.TID 0000.0001) %MON forcing_qnet_sd              =   5.2467021838171E+01
(PID.TID 0000.0001) %MON forcing_qnet_del2            =   8.6239476817543E-01
(PID.TID 0000.0001) %MON forcing_qsw_max              =   0.0000000000000E+00
(PID.TID 0000.0001) %MON forcing_qsw_min              =   0.0000000000000E+00
(PID.TID 0000.0001) %MON forcing_qsw_mean             =   0.0000000000000E+00
(PID.TID 0000.0001) %MON forcing_qsw_sd               =   0.0000000000000E+00
(PID.TID 0000.0001) %MON forcing_qsw_del2             =   0.0000000000000E+00
(PID.TID 0000.0001) %MON forcing_empmr_max            =   6.9154872524753E-05
(PID.TID 0000.0001) %MON forcing_empmr_min            =  -8.0070980838324E-05
(PID.TID 0000.0001) %MON forcing_empmr_mean           =   6.5543050067353E-07
(PID.TID 0000.0001) %MON forcing_empmr_sd             =   2.6530988089422E-05
(PID.TID 0000.0001) %MON forcing_empmr_del2           =   3.5820452796475E-07
(PID.TID 0000.0001) %MON forcing_fu_max               =   3.4202007055283E-01
(PID.TID 0000.0001) %MON forcing_fu_min               =  -3.3757946888606E-01
(PID.TID 0000.0001) %MON forcing_fu_mean              =   1.9703132584721E-02
(PID.TID 0000.0001) %MON forcing_fu_sd                =   9.7988970330100E-02
(PID.TID 0000.0001) %MON forcing_fu_del2              =   7.5916327161955E-04
(PID.TID 0000.0001) %MON forcing_fv_max               =   1.5269908905029E-01
(PID.TID 0000.0001) %MON forcing_fv_min               =  -1.8134930332502E-01
(PID.TID 0000.0001) %MON forcing_fv_mean              =  -7.4461486402888E-03
(PID.TID 0000.0001) %MON forcing_fv_sd                =   4.1765973059055E-02
(PID.TID 0000.0001) %MON forcing_fv_del2              =   4.7254399856662E-04
(PID.TID 0000.0001) %MON trAdv_CFL_u_max              =   4.6008407599172E-02
(PID.TID 0000.0001) %MON trAdv_CFL_v_max              =   2.7399850554617E-02
(PID.TID 0000.0001) %MON trAdv_CFL_w_max              =   2.8647152628289E-02
(PID.TID 0000.0001) %MON advcfl_uvel_max              =   4.6613907735169E-02
(PID.TID 0000.0001) %MON advcfl_vvel_max              =   2.7651620764313E-02
(PID.TID 0000.0001) %MON advcfl_wvel_max              =   3.0710290331302E-02
(PID.TID 0000.0001) %MON advcfl_W_hf_max              =   3.2968399914486E-02
(PID.TID 0000.0001) %MON pe_b_mean                    =   5.2585861378588E-04
(PID.TID 0000.0001) %MON ke_max                       =   1.0823640976040E-02
(PID.TID 0000.0001) %MON ke_mean                      =   1.0806754364325E-04
(PID.TID 0000.0001) %MON ke_vol                       =   1.3226782436723E+18
(PID.TID 0000.0001) %MON vort_r_min                   =  -2.9089601606476E-07
(PID.TID 0000.0001) %MON vort_r_max                   =   4.0866897081965E-07
(PID.TID 0000.0001) %MON vort_a_mean                  =  -2.5274807339114E-05
(PID.TID 0000.0001) %MON vort_a_sd                    =   7.3604619197706E-05
(PID.TID 0000.0001) %MON vort_p_mean                  =  -3.1845655725969E-05
(PID.TID 0000.0001) %MON vort_p_sd                    =   1.3162506496131E-04
(PID.TID 0000.0001) %MON surfExpan_theta_mean         =  -9.7385816131998E-08
(PID.TID 0000.0001) %MON surfExpan_salt_mean          =   4.7701352238689E-08
(PID.TID 0000.0001) // =======================================================
(PID.TID 0000.0001) // End MONITOR dynamic field statistics
(PID.TID 0000.0001) // =======================================================
 EXTERNAL_FIELDS_LOAD,        68 : iP,iLd,i0,i1=    2    3    2    3 ; Wght=  0.2333333333  0.7666666667
 EXTERNAL_FIELDS_LOAD: (fu0,1),fu,fv= -1.4435E-02 -2.7199E-02 -2.4221E-02 -4.5581E-03
 EXTERNAL_FIELDS_LOAD: SST,SSS,Q,E-P= -2.6509E-01  3.4542E+01  2.2125E+02  8.9166E-06
DEBUG_STATS_RL:          Uvel (THERMODYNAMICS)  min= -1.22992007603863E-01
DEBUG_STATS_RL:          Uvel (THERMODYNAMICS)  max=  1.40140528779281E-01
DEBUG_STATS_RL:          Uvel (THERMODYNAMICS) mean=  5.68640225437617E-03
DEBUG_STATS_RL:          Uvel (THERMODYNAMICS) S.D.=  2.10575050938194E-02
DEBUG_STATS_RL:          Vvel (THERMODYNAMICS)  min= -9.39741946634026E-02
DEBUG_STATS_RL:          Vvel (THERMODYNAMICS)  max=  1.42325802345608E-01
DEBUG_STATS_RL:          Vvel (THERMODYNAMICS) mean=  5.69936335185486E-04
DEBUG_STATS_RL:          Vvel (THERMODYNAMICS) S.D.=  1.33409059022188E-02
DEBUG_STATS_RL:          Wvel (THERMODYNAMICS)  min= -7.56766076159288E-05
DEBUG_STATS_RL:          Wvel (THERMODYNAMICS)  max=  1.29736758922745E-04
DEBUG_STATS_RL:          Wvel (THERMODYNAMICS) mean= -1.13799354586060E-07
DEBUG_STATS_RL:          Wvel (THERMODYNAMICS) S.D.=  9.03116045721665E-06
DEBUG_STATS_RL:         Theta (THERMODYNAMICS)  min= -1.93678029450618E+00
DEBUG_STATS_RL:         Theta (THERMODYNAMICS)  max=  3.00013741083876E+01
DEBUG_STATS_RL:         Theta (THERMODYNAMICS) mean=  3.21103310754358E+00
DEBUG_STATS_RL:         Theta (THERMODYNAMICS) S.D.=  5.86832023352121E+00
DEBUG_STATS_RL:          Salt (THERMODYNAMICS)  min= -6.86334120039182E-04
DEBUG_STATS_RL:          Salt (THERMODYNAMICS)  max=  3.74552119555121E+01
DEBUG_STATS_RL:          Salt (THERMODYNAMICS) mean=  1.88440367568284E+01
DEBUG_STATS_RL:          Salt (THERMODYNAMICS) S.D.=  1.73002597072606E+01
DEBUG_STATS_RL:         GtNm1 (THERMODYNAMICS)  min= -2.86854098763443E-06
DEBUG_STATS_RL:         GtNm1 (THERMODYNAMICS)  max=  1.93384258987058E-06
DEBUG_STATS_RL:         GtNm1 (THERMODYNAMICS) mean=  1.72599102238273E-09
DEBUG_STATS_RL:         GtNm1 (THERMODYNAMICS) S.D.=  1.37296910969482E-07
DEBUG_STATS_RL:         GsNm1 (THERMODYNAMICS)  min= -2.68474472569835E-07
DEBUG_STATS_RL:         GsNm1 (THERMODYNAMICS)  max=  2.44581609379458E-07
DEBUG_STATS_RL:         GsNm1 (THERMODYNAMICS) mean= -1.96633663595067E-10
DEBUG_STATS_RL:         GsNm1 (THERMODYNAMICS) S.D.=  1.29245696542788E-08
DEBUG_STATS_RL:                EtaN (DYNAMICS)  min= -1.88710411841872E+00
DEBUG_STATS_RL:                EtaN (DYNAMICS)  max=  9.54810402220357E-01
DEBUG_STATS_RL:                EtaN (DYNAMICS) mean= -1.89275655730811E-01
DEBUG_STATS_RL:                EtaN (DYNAMICS) S.D.=  7.36779512839090E-01
DEBUG_STATS_RL:                Uvel (DYNAMICS)  min= -1.22992007603863E-01
DEBUG_STATS_RL:                Uvel (DYNAMICS)  max=  1.40140528779281E-01
DEBUG_STATS_RL:                Uvel (DYNAMICS) mean=  5.68640225437617E-03
DEBUG_STATS_RL:                Uvel (DYNAMICS) S.D.=  2.10575050938194E-02
DEBUG_STATS_RL:                Vvel (DYNAMICS)  min= -9.39741946634026E-02
DEBUG_STATS_RL:                Vvel (DYNAMICS)  max=  1.42325802345608E-01
DEBUG_STATS_RL:                Vvel (DYNAMICS) mean=  5.69936335185486E-04
DEBUG_STATS_RL:                Vvel (DYNAMICS) S.D.=  1.33409059022188E-02
DEBUG_STATS_RL:                Wvel (DYNAMICS)  min= -7.56766076159288E-05
DEBUG_STATS_RL:                Wvel (DYNAMICS)  max=  1.29736758922745E-04
DEBUG_STATS_RL:                Wvel (DYNAMICS) mean= -1.13799354586060E-07
DEBUG_STATS_RL:                Wvel (DYNAMICS) S.D.=  9.03116045721665E-06
DEBUG_STATS_RL:               Theta (DYNAMICS)  min= -1.93678029450618E+00
DEBUG_STATS_RL:               Theta (DYNAMICS)  max=  3.00013741083876E+01
DEBUG_STATS_RL:               Theta (DYNAMICS) mean=  3.21103310754358E+00
DEBUG_STATS_RL:               Theta (DYNAMICS) S.D.=  5.86832023352121E+00
DEBUG_STATS_RL:                Salt (DYNAMICS)  min= -6.86334120039182E-04
DEBUG_STATS_RL:                Salt (DYNAMICS)  max=  3.74552119555121E+01
DEBUG_STATS_RL:                Salt (DYNAMICS) mean=  1.88440367568284E+01
DEBUG_STATS_RL:                Salt (DYNAMICS) S.D.=  1.73002597072606E+01
DEBUG_STATS_RL:                  Gu (DYNAMICS)  min= -1.22748830951165E-01
DEBUG_STATS_RL:                  Gu (DYNAMICS)  max=  1.41803356897512E-01
DEBUG_STATS_RL:                  Gu (DYNAMICS) mean=  5.69705020828013E-03
DEBUG_STATS_RL:                  Gu (DYNAMICS) S.D.=  2.16837233267120E-02
DEBUG_STATS_RL:                  Gv (DYNAMICS)  min= -1.01036886789885E-01
DEBUG_STATS_RL:                  Gv (DYNAMICS)  max=  1.42924654150273E-01
DEBUG_STATS_RL:                  Gv (DYNAMICS) mean=  3.16048905672764E-03
DEBUG_STATS_RL:                  Gv (DYNAMICS) S.D.=  1.44531568908150E-02
DEBUG_STATS_RL:               GuNm1 (DYNAMICS)  min= -9.83269832391738E-06
DEBUG_STATS_RL:               GuNm1 (DYNAMICS)  max=  9.25167778446279E-06
DEBUG_STATS_RL:               GuNm1 (DYNAMICS) mean=  2.55032085293163E-09
DEBUG_STATS_RL:               GuNm1 (DYNAMICS) S.D.=  1.19545828221474E-06
DEBUG_STATS_RL:               GvNm1 (DYNAMICS)  min= -1.00289925690228E-05
DEBUG_STATS_RL:               GvNm1 (DYNAMICS)  max=  1.56129739278968E-05
DEBUG_STATS_RL:               GvNm1 (DYNAMICS) mean=  7.37750149605824E-07
DEBUG_STATS_RL:               GvNm1 (DYNAMICS) S.D.=  2.62234478469547E-06
DEBUG_STATS_RL:               GtNm1 (DYNAMICS)  min= -2.86854098763443E-06
DEBUG_STATS_RL:               GtNm1 (DYNAMICS)  max=  1.93384258987058E-06
DEBUG_STATS_RL:               GtNm1 (DYNAMICS) mean=  1.72599102238273E-09
DEBUG_STATS_RL:               GtNm1 (DYNAMICS) S.D.=  1.37296910969482E-07
DEBUG_STATS_RL:               GsNm1 (DYNAMICS)  min= -2.68474472569835E-07
DEBUG_STATS_RL:               GsNm1 (DYNAMICS)  max=  2.44581609379458E-07
DEBUG_STATS_RL:               GsNm1 (DYNAMICS) mean= -1.96633663595067E-10
DEBUG_STATS_RL:               GsNm1 (DYNAMICS) S.D.=  1.29245696542788E-08
DEBUG_STATS_RL:    cg2d_b (SOLVE_FOR_PRESSURE)  min= -2.12638538864928E+04
DEBUG_STATS_RL:    cg2d_b (SOLVE_FOR_PRESSURE)  max=  2.37598854975526E+04
DEBUG_STATS_RL:    cg2d_b (SOLVE_FOR_PRESSURE) mean=  4.79815558484168E+00
DEBUG_STATS_RL:    cg2d_b (SOLVE_FOR_PRESSURE) S.D.=  3.89473409491535E+03
 cg2d: Sum(rhs),rhsMax =   4.67499314340239E-01  1.56061289480759E+00
(PID.TID 0000.0001)  cg2d: iter=     1 ; resid.=  7.01351859374509E-02
(PID.TID 0000.0001)  cg2d: iter=     2 ; resid.=  4.11258013708983E-02
(PID.TID 0000.0001)  cg2d: iter=     3 ; resid.=  3.56849648678966E-02
(PID.TID 0000.0001)  cg2d: iter=     4 ; resid.=  3.53357921750559E-02
(PID.TID 0000.0001)  cg2d: iter=     5 ; resid.=  3.73217061395128E-02
(PID.TID 0000.0001)  cg2d: iter=     6 ; resid.=  3.09771255268903E-02
(PID.TID 0000.0001)  cg2d: iter=     7 ; resid.=  2.44999522659006E-02
(PID.TID 0000.0001)  cg2d: iter=     8 ; resid.=  2.10816262939496E-02
(PID.TID 0000.0001)  cg2d: iter=     9 ; resid.=  1.88408694257917E-02
(PID.TID 0000.0001)  cg2d: iter=    10 ; resid.=  1.50857120015066E-02
(PID.TID 0000.0001)  cg2d: iter=    11 ; resid.=  1.20436776993519E-02
(PID.TID 0000.0001)  cg2d: iter=    12 ; resid.=  9.38972191694070E-03
(PID.TID 0000.0001)  cg2d: iter=    13 ; resid.=  6.57049410192594E-03
(PID.TID 0000.0001)  cg2d: iter=    14 ; resid.=  4.96231822632147E-03
(PID.TID 0000.0001)  cg2d: iter=    15 ; resid.=  4.34892685882588E-03
(PID.TID 0000.0001)  cg2d: iter=    16 ; resid.=  3.83648820949992E-03
(PID.TID 0000.0001)  cg2d: iter=    17 ; resid.=  3.71228430074452E-03
(PID.TID 0000.0001)  cg2d: iter=    18 ; resid.=  3.85664057643436E-03
(PID.TID 0000.0001)  cg2d: iter=    19 ; resid.=  3.13230818277869E-03
(PID.TID 0000.0001)  cg2d: iter=    20 ; resid.=  2.41909870976927E-03
(PID.TID 0000.0001)  cg2d: iter=    21 ; resid.=  1.95819706050720E-03
(PID.TID 0000.0001)  cg2d: iter=    22 ; resid.=  1.52768600906684E-03
(PID.TID 0000.0001)  cg2d: iter=    23 ; resid.=  1.23546911052469E-03
(PID.TID 0000.0001)  cg2d: iter=    24 ; resid.=  1.06725478946558E-03
(PID.TID 0000.0001)  cg2d: iter=    25 ; resid.=  9.08020032616892E-04
(PID.TID 0000.0001)  cg2d: iter=    26 ; resid.=  6.59943367395624E-04
(PID.TID 0000.0001)  cg2d: iter=    27 ; resid.=  5.34545631864129E-04
(PID.TID 0000.0001)  cg2d: iter=    28 ; resid.=  4.44329436803215E-04
(PID.TID 0000.0001)  cg2d: iter=    29 ; resid.=  3.58782610001615E-04
(PID.TID 0000.0001)  cg2d: iter=    30 ; resid.=  3.00562191617918E-04
(PID.TID 0000.0001)  cg2d: iter=    31 ; resid.=  3.00138922789043E-04
(PID.TID 0000.0001)  cg2d: iter=    32 ; resid.=  2.71480129805615E-04
(PID.TID 0000.0001)  cg2d: iter=    33 ; resid.=  2.34085170254601E-04
(PID.TID 0000.0001)  cg2d: iter=    34 ; resid.=  2.08769392570546E-04
(PID.TID 0000.0001)  cg2d: iter=    35 ; resid.=  1.68744350865417E-04
(PID.TID 0000.0001)  cg2d: iter=    36 ; resid.=  1.40192148056056E-04
(PID.TID 0000.0001)  cg2d: iter=    37 ; resid.=  1.11417453422082E-04
(PID.TID 0000.0001)  cg2d: iter=    38 ; resid.=  9.33669881103543E-05
(PID.TID 0000.0001)  cg2d: iter=    39 ; resid.=  7.87853390097523E-05
(PID.TID 0000.0001)  cg2d: iter=    40 ; resid.=  6.52705023626480E-05
(PID.TID 0000.0001)  cg2d: iter=    41 ; resid.=  4.68696687558426E-05
(PID.TID 0000.0001)  cg2d: iter=    42 ; resid.=  3.62467122173845E-05
(PID.TID 0000.0001)  cg2d: iter=    43 ; resid.=  3.25733108050917E-05
(PID.TID 0000.0001)  cg2d: iter=    44 ; resid.=  2.82708644485969E-05
(PID.TID 0000.0001)  cg2d: iter=    45 ; resid.=  2.32615179400882E-05
(PID.TID 0000.0001)  cg2d: iter=    46 ; resid.=  1.88743375958732E-05
(PID.TID 0000.0001)  cg2d: iter=    47 ; resid.=  1.49565226316354E-05
(PID.TID 0000.0001)  cg2d: iter=    48 ; resid.=  1.22446930973992E-05
(PID.TID 0000.0001)  cg2d: iter=    49 ; resid.=  1.05327144463853E-05
(PID.TID 0000.0001)  cg2d: iter=    50 ; resid.=  8.69467809441849E-06
(PID.TID 0000.0001)  cg2d: iter=    51 ; resid.=  7.06354591396185E-06
(PID.TID 0000.0001)  cg2d: iter=    52 ; resid.=  5.06621190323495E-06
(PID.TID 0000.0001)  cg2d: iter=    53 ; resid.=  4.10967466272944E-06
(PID.TID 0000.0001)  cg2d: iter=    54 ; resid.=  3.60656409185864E-06
(PID.TID 0000.0001)  cg2d: iter=    55 ; resid.=  3.03721822169948E-06
(PID.TID 0000.0001)  cg2d: iter=    56 ; resid.=  2.53501422582803E-06
(PID.TID 0000.0001)  cg2d: iter=    57 ; resid.=  2.36127455001031E-06
(PID.TID 0000.0001)  cg2d: iter=    58 ; resid.=  2.20566300540294E-06
(PID.TID 0000.0001)  cg2d: iter=    59 ; resid.=  1.65229457133249E-06
(PID.TID 0000.0001)  cg2d: iter=    60 ; resid.=  1.13926607986148E-06
(PID.TID 0000.0001)  cg2d: iter=    61 ; resid.=  8.38045377632091E-07
(PID.TID 0000.0001)  cg2d: iter=    62 ; resid.=  6.65544352893994E-07
(PID.TID 0000.0001)  cg2d: iter=    63 ; resid.=  5.64791666834492E-07
(PID.TID 0000.0001)  cg2d: iter=    64 ; resid.=  4.86855079631540E-07
(PID.TID 0000.0001)  cg2d: iter=    65 ; resid.=  3.94696913949247E-07
(PID.TID 0000.0001)  cg2d: iter=    66 ; resid.=  3.34914602400563E-07
(PID.TID 0000.0001)  cg2d: iter=    67 ; resid.=  2.85320267193635E-07
(PID.TID 0000.0001)  cg2d: iter=    68 ; resid.=  2.54616985324199E-07
(PID.TID 0000.0001)  cg2d: iter=    69 ; resid.=  2.14168097975806E-07
(PID.TID 0000.0001)  cg2d: iter=    70 ; resid.=  1.97783335361414E-07
(PID.TID 0000.0001)  cg2d: iter=    71 ; resid.=  1.72155814613884E-07
(PID.TID 0000.0001)  cg2d: iter=    72 ; resid.=  1.34415112437926E-07
(PID.TID 0000.0001)  cg2d: iter=    73 ; resid.=  1.16828326833111E-07
(PID.TID 0000.0001)  cg2d: iter=    74 ; resid.=  1.02640085784440E-07
(PID.TID 0000.0001)  cg2d: iter=    75 ; resid.=  7.60604210097073E-08
(PID.TID 0000.0001)  cg2d: iter=    76 ; resid.=  5.38410634183197E-08
(PID.TID 0000.0001)  cg2d: iter=    77 ; resid.=  3.95636230400512E-08
(PID.TID 0000.0001)  cg2d: iter=    78 ; resid.=  2.98969914226501E-08
(PID.TID 0000.0001)  cg2d: iter=    79 ; resid.=  2.45405363579129E-08
(PID.TID 0000.0001)  cg2d: iter=    80 ; resid.=  2.03620752198411E-08
(PID.TID 0000.0001)  cg2d: iter=    81 ; resid.=  1.59697138739418E-08
(PID.TID 0000.0001)  cg2d: iter=    82 ; resid.=  1.26188780354377E-08
(PID.TID 0000.0001)  cg2d: iter=    83 ; resid.=  1.00958362197962E-08
(PID.TID 0000.0001)  cg2d: iter=    84 ; resid.=  8.97484923629835E-09
(PID.TID 0000.0001)  cg2d: iter=    85 ; resid.=  6.60412852446183E-09
(PID.TID 0000.0001)  cg2d: iter=    86 ; resid.=  4.45047107866958E-09
(PID.TID 0000.0001)  cg2d: iter=    87 ; resid.=  3.31978072051072E-09
(PID.TID 0000.0001)  cg2d: iter=    88 ; resid.=  2.43488634910987E-09
(PID.TID 0000.0001)  cg2d: iter=    89 ; resid.=  1.87659992616600E-09
(PID.TID 0000.0001)  cg2d: iter=    90 ; resid.=  1.52074119573227E-09
(PID.TID 0000.0001)  cg2d: iter=    91 ; resid.=  1.25296318591913E-09
(PID.TID 0000.0001)  cg2d: iter=    92 ; resid.=  1.01594112709858E-09
(PID.TID 0000.0001)  cg2d: iter=    93 ; resid.=  8.46106821233187E-10
(PID.TID 0000.0001)  cg2d: iter=    94 ; resid.=  6.92166801086100E-10
(PID.TID 0000.0001)  cg2d: iter=    95 ; resid.=  4.99422043381070E-10
(PID.TID 0000.0001)  cg2d: iter=    96 ; resid.=  4.00388376949073E-10
(PID.TID 0000.0001)  cg2d: iter=    97 ; resid.=  3.36473183584904E-10
(PID.TID 0000.0001)  cg2d: iter=    98 ; resid.=  2.87647169529640E-10
(PID.TID 0000.0001)  cg2d: iter=    99 ; resid.=  2.53690643934826E-10
(PID.TID 0000.0001)  cg2d: iter=   100 ; resid.=  2.19417019047336E-10
(PID.TID 0000.0001)  cg2d: iter=   101 ; resid.=  1.81965871742359E-10
(PID.TID 0000.0001)  cg2d: iter=   102 ; resid.=  1.39190278691339E-10
(PID.TID 0000.0001)  cg2d: iter=   103 ; resid.=  1.05139979818486E-10
(PID.TID 0000.0001)  cg2d: iter=   104 ; resid.=  7.60831231134782E-11
(PID.TID 0000.0001)  cg2d: iter=   105 ; resid.=  5.90467759125141E-11
(PID.TID 0000.0001)  cg2d: iter=   106 ; resid.=  5.46767986096221E-11
(PID.TID 0000.0001)  cg2d: iter=   107 ; resid.=  4.52522131125050E-11
(PID.TID 0000.0001)  cg2d: iter=   108 ; resid.=  3.45089725961703E-11
(PID.TID 0000.0001)  cg2d: iter=   109 ; resid.=  2.60891060159565E-11
(PID.TID 0000.0001)  cg2d: iter=   110 ; resid.=  1.87990407625768E-11
(PID.TID 0000.0001)  cg2d: iter=   111 ; resid.=  1.55038888910251E-11
(PID.TID 0000.0001)  cg2d: iter=   112 ; resid.=  1.24638491138465E-11
(PID.TID 0000.0001)  cg2d: iter=   113 ; resid.=  9.30951080521273E-12
(PID.TID 0000.0001)  cg2d: iter=   114 ; resid.=  7.28217788749185E-12
(PID.TID 0000.0001)  cg2d: iter=   115 ; resid.=  5.12593681642519E-12
(PID.TID 0000.0001)  cg2d: iter=   116 ; resid.=  3.32339094405406E-12
(PID.TID 0000.0001)  cg2d: iter=   117 ; resid.=  2.39640752023627E-12
(PID.TID 0000.0001)  cg2d: iter=   118 ; resid.=  1.66180050383395E-12
(PID.TID 0000.0001)  cg2d: iter=   119 ; resid.=  1.12166163983716E-12
(PID.TID 0000.0001)  cg2d: iter=   120 ; resid.=  7.85759252035844E-13
(PID.TID 0000.0001)  cg2d: iter=   121 ; resid.=  5.54839953859584E-13
(PID.TID 0000.0001)  cg2d: iter=   122 ; resid.=  4.47135474302444E-13
(PID.TID 0000.0001)  cg2d: iter=   123 ; resid.=  3.43773086361611E-13
(PID.TID 0000.0001)  cg2d: iter=   124 ; resid.=  2.75237080287138E-13
(PID.TID 0000.0001)  cg2d: iter=   125 ; resid.=  2.18180182565241E-13
(PID.TID 0000.0001)  cg2d: iter=   126 ; resid.=  1.69653383295844E-13
(PID.TID 0000.0001)  cg2d: iter=   127 ; resid.=  1.36091587048539E-13
(PID.TID 0000.0001)  cg2d: iter=   128 ; resid.=  1.07318546431622E-13
(PID.TID 0000.0001)  cg2d: iter=   129 ; resid.=  8.28500799215942E-14
DEBUG_STATS_RL:    cg2d_x (SOLVE_FOR_PRESSURE)  min= -1.85678860123060E+01
DEBUG_STATS_RL:    cg2d_x (SOLVE_FOR_PRESSURE)  max=  9.37833962235973E+00
DEBUG_STATS_RL:    cg2d_x (SOLVE_FOR_PRESSURE) mean= -1.84894072190179E+00
DEBUG_STATS_RL:    cg2d_x (SOLVE_FOR_PRESSURE) S.D.=  7.20781455937643E+00
(PID.TID 0000.0001)      cg2d_init_res =   2.56191453411096E-01
(PID.TID 0000.0001)      cg2d_iters(min,last) =      -1     129
(PID.TID 0000.0001)      cg2d_last_res =   8.28500799215942E-14
(PID.TID 0000.0001) // =======================================================
(PID.TID 0000.0001) // Begin MONITOR dynamic field statistics
(PID.TID 0000.0001) // =======================================================
(PID.TID 0000.0001) %MON time_tsnumber                =                    69
(PID.TID 0000.0001) %MON time_secondsf                =   5.9616000000000E+06
(PID.TID 0000.0001) %MON dynstat_eta_max              =   9.5599792276848E-01
(PID.TID 0000.0001) %MON dynstat_eta_min              =  -1.8927508677172E+00
(PID.TID 0000.0001) %MON dynstat_eta_mean             =  -5.0062804011306E-03
(PID.TID 0000.0001) %MON dynstat_eta_sd               =   6.3872855820634E-01
(PID.TID 0000.0001) %MON dynstat_eta_del2             =   2.4215135086759E-03
(PID.TID 0000.0001) %MON dynstat_uvel_max             =   1.4356705947265E-01
(PID.TID 0000.0001) %MON dynstat_uvel_min             =  -1.2245522450092E-01
(PID.TID 0000.0001) %MON dynstat_uvel_mean            =   2.1884611973267E-03
(PID.TID 0000.0001) %MON dynstat_uvel_sd              =   1.3053024244619E-02
(PID.TID 0000.0001) %MON dynstat_uvel_del2            =   7.9974374059769E-05
(PID.TID 0000.0001) %MON dynstat_vvel_max             =   1.4267988962328E-01
(PID.TID 0000.0001) %MON dynstat_vvel_min             =  -9.0515939909823E-02
(PID.TID 0000.0001) %MON dynstat_vvel_mean            =   5.6294156046839E-05
(PID.TID 0000.0001) %MON dynstat_vvel_sd              =   8.1716597242872E-03
(PID.TID 0000.0001) %MON dynstat_vvel_del2            =   7.2498428571108E-05
(PID.TID 0000.0001) %MON dynstat_wvel_max             =   1.3661115142946E-04
(PID.TID 0000.0001) %MON dynstat_wvel_min             =  -7.5872960579495E-05
(PID.TID 0000.0001) %MON dynstat_wvel_mean            =   1.7331712353674E-22
(PID.TID 0000.0001) %MON dynstat_wvel_sd              =   1.0175655922906E-05
(PID.TID 0000.0001) %MON dynstat_wvel_del2            =   1.0344761100586E-07
(PID.TID 0000.0001) %MON dynstat_theta_max            =   3.0001374108388E+01
(PID.TID 0000.0001) %MON dynstat_theta_min            =  -1.9367802945062E+00
(PID.TID 0000.0001) %MON dynstat_theta_mean           =   3.6214070674830E+00
(PID.TID 0000.0001) %MON dynstat_theta_sd             =   4.4210769536745E+00
(PID.TID 0000.0001) %MON dynstat_theta_del2           =   4.7146395410287E-03
(PID.TID 0000.0001) %MON dynstat_salt_max             =   3.7455211955512E+01
(PID.TID 0000.0001) %MON dynstat_salt_min             =   2.9851872471988E+01
(PID.TID 0000.0001) %MON dynstat_salt_mean            =   3.4717307015981E+01
(PID.TID 0000.0001) %MON dynstat_salt_sd              =   2.9625968211645E-01
(PID.TID 0000.0001) %MON dynstat_salt_del2            =   9.6119766854658E-04
(PID.TID 0000.0001) %MON dynstat_sst_max              =   3.0001374108388E+01
(PID.TID 0000.0001) %MON dynstat_sst_min              =  -1.9367802945062E+00
(PID.TID 0000.0001) %MON dynstat_sst_mean             =   1.8811963496375E+01
(PID.TID 0000.0001) %MON dynstat_sst_sd               =   9.2098091673104E+00
(PID.TID 0000.0001) %MON dynstat_sst_del2             =   2.4107585667951E-02
(PID.TID 0000.0001) %MON dynstat_sss_max              =   3.7396324100247E+01
(PID.TID 0000.0001) %MON dynstat_sss_min              =   2.9851872471988E+01
(PID.TID 0000.0001) %MON dynstat_sss_mean             =   3.4838555000905E+01
(PID.TID 0000.0001) %MON dynstat_sss_sd               =   9.7978197218003E-01
(PID.TID 0000.0001) %MON dynstat_sss_del2             =   7.5926014321633E-03
(PID.TID 0000.0001) %MON forcing_qnet_max             =   2.9409475199382E+02
(PID.TID 0000.0001) %MON forcing_qnet_min             =  -1.6595054575602E+02
(PID.TID 0000.0001) %MON forcing_qnet_mean            =  -8.8284424875309E+00
(PID.TID 0000.0001) %MON forcing_qnet_sd              =   5.1556716411678E+01
(PID.TID 0000.0001) %MON forcing_qnet_del2            =   8.6047167969994E-01
(PID.TID 0000.0001) %MON forcing_qsw_max              =   0.0000000000000E+00
(PID.TID 0000.0001) %MON forcing_qsw_min              =   0.0000000000000E+00
(PID.TID 0000.0001) %MON forcing_qsw_mean             =   0.0000000000000E+00
(PID.TID 0000.0001) %MON forcing_qsw_sd               =   0.0000000000000E+00
(PID.TID 0000.0001) %MON forcing_qsw_del2             =   0.0000000000000E+00
(PID.TID 0000.0001) %MON forcing_empmr_max            =   6.9149116181203E-05
(PID.TID 0000.0001) %MON forcing_empmr_min            =  -8.0470160431408E-05
(PID.TID 0000.0001) %MON forcing_empmr_mean           =   6.4234056979919E-07
(PID.TID 0000.0001) %MON forcing_empmr_sd             =   2.6492034709442E-05
(PID.TID 0000.0001) %MON forcing_empmr_del2           =   3.5902970702507E-07
(PID.TID 0000.0001) %MON forcing_fu_max               =   3.4396148622036E-01
(PID.TID 0000.0001) %MON forcing_fu_min               =  -3.4395158787568E-01
(PID.TID 0000.0001) %MON forcing_fu_mean              =   1.9797332174179E-02
(PID.TID 0000.0001) %MON forcing_fu_sd                =   9.8445033933998E-02
(PID.TID 0000.0001) %MON forcing_fu_del2              =   7.6829958802129E-04
(PID.TID 0000.0001) %MON forcing_fv_max               =   1.5652424618602E-01
(PID.TID 0000.0001) %MON forcing_fv_min               =  -1.8284709403912E-01
(PID.TID 0000.0001) %MON forcing_fv_mean              =  -7.4565769902582E-03
(PID.TID 0000.0001) %MON forcing_fv_sd                =   4.1818730949016E-02
(PID.TID 0000.0001) %MON forcing_fv_del2              =   4.7523888340989E-04
(PID.TID 0000.0001) %MON trAdv_CFL_u_max              =   4.6623375353219E-02
(PID.TID 0000.0001) %MON trAdv_CFL_v_max              =   2.7538939870975E-02
(PID.TID 0000.0001) %MON trAdv_CFL_w_max              =   2.8741681976731E-02
(PID.TID 0000.0001) %MON advcfl_uvel_max              =   4.7454026803053E-02
(PID.TID 0000.0001) %MON advcfl_vvel_max              =   2.7720414243487E-02
(PID.TID 0000.0001) %MON advcfl_wvel_max              =   3.2337543790426E-02
(PID.TID 0000.0001) %MON advcfl_W_hf_max              =   3.4715304363252E-02
(PID.TID 0000.0001) %MON pe_b_mean                    =   5.2208419709277E-04
(PID.TID 0000.0001) %MON ke_max                       =   1.0956438107294E-02
(PID.TID 0000.0001) %MON ke_mean                      =   1.0956285384460E-04
(PID.TID 0000.0001) %MON ke_vol                       =   1.3226782436723E+18
(PID.TID 0000.0001) %MON vort_r_min                   =  -2.8760506242540E-07
(PID.TID 0000.0001) %MON vort_r_max                   =   4.0896601049667E-07
(PID.TID 0000.0001) %MON vort_a_mean                  =  -2.5274807320709E-05
(PID.TID 0000.0001) %MON vort_a_sd                    =   7.3604623280638E-05
(PID.TID 0000.0001) %MON vort_p_mean                  =  -3.1845655702779E-05
(PID.TID 0000.0001) %MON vort_p_sd                    =   1.3162505053170E-04
(PID.TID 0000.0001) %MON surfExpan_theta_mean         =  -7.6281842510285E-08
(PID.TID 0000.0001) %MON surfExpan_salt_mean          =   4.4440194838596E-08
(PID.TID 0000.0001) // =======================================================
(PID.TID 0000.0001) // End MONITOR dynamic field statistics
(PID.TID 0000.0001) // =======================================================
 EXTERNAL_FIELDS_LOAD,        69 : iP,iLd,i0,i1=    2    3    2    3 ; Wght=  0.2000000000  0.8000000000
 EXTERNAL_FIELDS_LOAD: (fu0,1),fu,fv= -1.4435E-02 -2.7199E-02 -2.4646E-02 -3.9896E-03
 EXTERNAL_FIELDS_LOAD: SST,SSS,Q,E-P= -2.5350E-01  3.4548E+01  2.2041E+02  8.9401E-06
DEBUG_STATS_RL:          Uvel (THERMODYNAMICS)  min= -1.22455224500924E-01
DEBUG_STATS_RL:          Uvel (THERMODYNAMICS)  max=  1.43567059472648E-01
DEBUG_STATS_RL:          Uvel (THERMODYNAMICS) mean=  5.77551832734065E-03
DEBUG_STATS_RL:          Uvel (THERMODYNAMICS) S.D.=  2.12996468886705E-02
DEBUG_STATS_RL:          Vvel (THERMODYNAMICS)  min= -9.05159399098233E-02
DEBUG_STATS_RL:          Vvel (THERMODYNAMICS)  max=  1.42679889623275E-01
DEBUG_STATS_RL:          Vvel (THERMODYNAMICS) mean=  5.92015913399683E-04
DEBUG_STATS_RL:          Vvel (THERMODYNAMICS) S.D.=  1.32991927128433E-02
DEBUG_STATS_RL:          Wvel (THERMODYNAMICS)  min= -7.58729605794945E-05
DEBUG_STATS_RL:          Wvel (THERMODYNAMICS)  max=  1.36611151429463E-04
DEBUG_STATS_RL:          Wvel (THERMODYNAMICS) mean= -1.03964473370362E-07
DEBUG_STATS_RL:          Wvel (THERMODYNAMICS) S.D.=  9.01149867697383E-06
DEBUG_STATS_RL:         Theta (THERMODYNAMICS)  min= -1.93875289110874E+00
DEBUG_STATS_RL:         Theta (THERMODYNAMICS)  max=  3.00088089340771E+01
DEBUG_STATS_RL:         Theta (THERMODYNAMICS) mean=  3.21106421813895E+00
DEBUG_STATS_RL:         Theta (THERMODYNAMICS) S.D.=  5.86866129672868E+00
DEBUG_STATS_RL:          Salt (THERMODYNAMICS)  min= -6.86334120039182E-04
DEBUG_STATS_RL:          Salt (THERMODYNAMICS)  max=  3.74543820378797E+01
DEBUG_STATS_RL:          Salt (THERMODYNAMICS) mean=  1.88440347944297E+01
DEBUG_STATS_RL:          Salt (THERMODYNAMICS) S.D.=  1.73002582791724E+01
DEBUG_STATS_RL:         GtNm1 (THERMODYNAMICS)  min= -2.89804025194177E-06
DEBUG_STATS_RL:         GtNm1 (THERMODYNAMICS)  max=  1.62819563659812E-06
DEBUG_STATS_RL:         GtNm1 (THERMODYNAMICS) mean=  1.69320004276584E-09
DEBUG_STATS_RL:         GtNm1 (THERMODYNAMICS) S.D.=  1.36253619557495E-07
DEBUG_STATS_RL:         GsNm1 (THERMODYNAMICS)  min= -2.66397914771049E-07
DEBUG_STATS_RL:         GsNm1 (THERMODYNAMICS)  max=  2.20547303812508E-07
DEBUG_STATS_RL:         GsNm1 (THERMODYNAMICS) mean= -1.43076950670365E-10
DEBUG_STATS_RL:         GsNm1 (THERMODYNAMICS) S.D.=  1.27916621795612E-08
DEBUG_STATS_RL:                EtaN (DYNAMICS)  min= -1.89275086771720E+00
DEBUG_STATS_RL:                EtaN (DYNAMICS)  max=  9.55997922768484E-01
DEBUG_STATS_RL:                EtaN (DYNAMICS) mean= -1.88475099072557E-01
DEBUG_STATS_RL:                EtaN (DYNAMICS) S.D.=  7.34741545298312E-01
DEBUG_STATS_RL:                Uvel (DYNAMICS)  min= -1.22455224500924E-01
DEBUG_STATS_RL:                Uvel (DYNAMICS)  max=  1.43567059472648E-01
DEBUG_STATS_RL:                Uvel (DYNAMICS) mean=  5.77551832734065E-03
DEBUG_STATS_RL:                Uvel (DYNAMICS) S.D.=  2.12996468886705E-02
DEBUG_STATS_RL:                Vvel (DYNAMICS)  min= -9.05159399098233E-02
DEBUG_STATS_RL:                Vvel (DYNAMICS)  max=  1.42679889623275E-01
DEBUG_STATS_RL:                Vvel (DYNAMICS) mean=  5.92015913399683E-04
DEBUG_STATS_RL:                Vvel (DYNAMICS) S.D.=  1.32991927128433E-02
DEBUG_STATS_RL:                Wvel (DYNAMICS)  min= -7.58729605794945E-05
DEBUG_STATS_RL:                Wvel (DYNAMICS)  max=  1.36611151429463E-04
DEBUG_STATS_RL:                Wvel (DYNAMICS) mean= -1.03964473370362E-07
DEBUG_STATS_RL:                Wvel (DYNAMICS) S.D.=  9.01149867697383E-06
DEBUG_STATS_RL:               Theta (DYNAMICS)  min= -1.93875289110874E+00
DEBUG_STATS_RL:               Theta (DYNAMICS)  max=  3.00088089340771E+01
DEBUG_STATS_RL:               Theta (DYNAMICS) mean=  3.21106421813895E+00
DEBUG_STATS_RL:               Theta (DYNAMICS) S.D.=  5.86866129672868E+00
DEBUG_STATS_RL:                Salt (DYNAMICS)  min= -6.86334120039182E-04
DEBUG_STATS_RL:                Salt (DYNAMICS)  max=  3.74543820378797E+01
DEBUG_STATS_RL:                Salt (DYNAMICS) mean=  1.88440347944297E+01
DEBUG_STATS_RL:                Salt (DYNAMICS) S.D.=  1.73002582791724E+01
DEBUG_STATS_RL:                  Gu (DYNAMICS)  min= -1.22194859914147E-01
DEBUG_STATS_RL:                  Gu (DYNAMICS)  max=  1.44155576692249E-01
DEBUG_STATS_RL:                  Gu (DYNAMICS) mean=  5.77692786126332E-03
DEBUG_STATS_RL:                  Gu (DYNAMICS) S.D.=  2.19163950659571E-02
DEBUG_STATS_RL:                  Gv (DYNAMICS)  min= -9.68093714358340E-02
DEBUG_STATS_RL:                  Gv (DYNAMICS)  max=  1.43194432335679E-01
DEBUG_STATS_RL:                  Gv (DYNAMICS) mean=  3.20010422591718E-03
DEBUG_STATS_RL:                  Gv (DYNAMICS) S.D.=  1.44420330673126E-02
DEBUG_STATS_RL:               GuNm1 (DYNAMICS)  min= -9.85893978095343E-06
DEBUG_STATS_RL:               GuNm1 (DYNAMICS)  max=  9.24289537631045E-06
DEBUG_STATS_RL:               GuNm1 (DYNAMICS) mean=  2.92836830154586E-09
DEBUG_STATS_RL:               GuNm1 (DYNAMICS) S.D.=  1.19701085876629E-06
DEBUG_STATS_RL:               GvNm1 (DYNAMICS)  min= -1.00224264711811E-05
DEBUG_STATS_RL:               GvNm1 (DYNAMICS)  max=  1.55980498349273E-05
DEBUG_STATS_RL:               GvNm1 (DYNAMICS) mean=  7.37925398769879E-07
DEBUG_STATS_RL:               GvNm1 (DYNAMICS) S.D.=  2.62012042393814E-06
DEBUG_STATS_RL:               GtNm1 (DYNAMICS)  min= -2.89804025194177E-06
DEBUG_STATS_RL:               GtNm1 (DYNAMICS)  max=  1.62819563659812E-06
DEBUG_STATS_RL:               GtNm1 (DYNAMICS) mean=  1.69320004276584E-09
DEBUG_STATS_RL:               GtNm1 (DYNAMICS) S.D.=  1.36253619557495E-07
DEBUG_STATS_RL:               GsNm1 (DYNAMICS)  min= -2.66397914771049E-07
DEBUG_STATS_RL:               GsNm1 (DYNAMICS)  max=  2.20547303812508E-07
DEBUG_STATS_RL:               GsNm1 (DYNAMICS) mean= -1.43076950670365E-10
DEBUG_STATS_RL:               GsNm1 (DYNAMICS) S.D.=  1.27916621795612E-08
DEBUG_STATS_RL:    cg2d_b (SOLVE_FOR_PRESSURE)  min= -2.16666383538150E+04
DEBUG_STATS_RL:    cg2d_b (SOLVE_FOR_PRESSURE)  max=  2.36112246869369E+04
DEBUG_STATS_RL:    cg2d_b (SOLVE_FOR_PRESSURE) mean=  4.84850056956642E+00
DEBUG_STATS_RL:    cg2d_b (SOLVE_FOR_PRESSURE) S.D.=  3.89255283003842E+03
 cg2d: Sum(rhs),rhsMax =   4.75378933849041E-01  1.55084845473808E+00
(PID.TID 0000.0001)  cg2d: iter=     1 ; resid.=  6.99413182731940E-02
(PID.TID 0000.0001)  cg2d: iter=     2 ; resid.=  3.86169302389177E-02
(PID.TID 0000.0001)  cg2d: iter=     3 ; resid.=  3.23120295999556E-02
(PID.TID 0000.0001)  cg2d: iter=     4 ; resid.=  3.18348055183311E-02
(PID.TID 0000.0001)  cg2d: iter=     5 ; resid.=  3.44541504833073E-02
(PID.TID 0000.0001)  cg2d: iter=     6 ; resid.=  2.93999124721551E-02
(PID.TID 0000.0001)  cg2d: iter=     7 ; resid.=  2.31750254889482E-02
(PID.TID 0000.0001)  cg2d: iter=     8 ; resid.=  1.95425178387761E-02
(PID.TID 0000.0001)  cg2d: iter=     9 ; resid.=  1.72974259741650E-02
(PID.TID 0000.0001)  cg2d: iter=    10 ; resid.=  1.38325091557580E-02
(PID.TID 0000.0001)  cg2d: iter=    11 ; resid.=  1.09894376308399E-02
(PID.TID 0000.0001)  cg2d: iter=    12 ; resid.=  8.82120646947572E-03
(PID.TID 0000.0001)  cg2d: iter=    13 ; resid.=  6.34142633402512E-03
(PID.TID 0000.0001)  cg2d: iter=    14 ; resid.=  4.83481307498343E-03
(PID.TID 0000.0001)  cg2d: iter=    15 ; resid.=  4.19087327549907E-03
(PID.TID 0000.0001)  cg2d: iter=    16 ; resid.=  3.69454619008449E-03
(PID.TID 0000.0001)  cg2d: iter=    17 ; resid.=  3.51303548798059E-03
(PID.TID 0000.0001)  cg2d: iter=    18 ; resid.=  3.68232940864277E-03
(PID.TID 0000.0001)  cg2d: iter=    19 ; resid.=  3.04572405085016E-03
(PID.TID 0000.0001)  cg2d: iter=    20 ; resid.=  2.33747885781463E-03
(PID.TID 0000.0001)  cg2d: iter=    21 ; resid.=  1.88164452402058E-03
(PID.TID 0000.0001)  cg2d: iter=    22 ; resid.=  1.45866882802567E-03
(PID.TID 0000.0001)  cg2d: iter=    23 ; resid.=  1.17191207541927E-03
(PID.TID 0000.0001)  cg2d: iter=    24 ; resid.=  9.96565567009077E-04
(PID.TID 0000.0001)  cg2d: iter=    25 ; resid.=  8.50912351592622E-04
(PID.TID 0000.0001)  cg2d: iter=    26 ; resid.=  6.41155452772956E-04
(PID.TID 0000.0001)  cg2d: iter=    27 ; resid.=  5.18364786973738E-04
(PID.TID 0000.0001)  cg2d: iter=    28 ; resid.=  4.29712842941482E-04
(PID.TID 0000.0001)  cg2d: iter=    29 ; resid.=  3.48419636311802E-04
(PID.TID 0000.0001)  cg2d: iter=    30 ; resid.=  2.95219588614977E-04
(PID.TID 0000.0001)  cg2d: iter=    31 ; resid.=  2.94488309811074E-04
(PID.TID 0000.0001)  cg2d: iter=    32 ; resid.=  2.62289963861515E-04
(PID.TID 0000.0001)  cg2d: iter=    33 ; resid.=  2.21241768344588E-04
(PID.TID 0000.0001)  cg2d: iter=    34 ; resid.=  1.92605837767209E-04
(PID.TID 0000.0001)  cg2d: iter=    35 ; resid.=  1.54116865425114E-04
(PID.TID 0000.0001)  cg2d: iter=    36 ; resid.=  1.28390491128153E-04
(PID.TID 0000.0001)  cg2d: iter=    37 ; resid.=  1.04046993925608E-04
(PID.TID 0000.0001)  cg2d: iter=    38 ; resid.=  8.90397453812439E-05
(PID.TID 0000.0001)  cg2d: iter=    39 ; resid.=  7.69641329014754E-05
(PID.TID 0000.0001)  cg2d: iter=    40 ; resid.=  6.55887920340653E-05
(PID.TID 0000.0001)  cg2d: iter=    41 ; resid.=  4.77570527057199E-05
(PID.TID 0000.0001)  cg2d: iter=    42 ; resid.=  3.66246529719513E-05
(PID.TID 0000.0001)  cg2d: iter=    43 ; resid.=  3.25314944938284E-05
(PID.TID 0000.0001)  cg2d: iter=    44 ; resid.=  2.82429653322257E-05
(PID.TID 0000.0001)  cg2d: iter=    45 ; resid.=  2.32443378044004E-05
(PID.TID 0000.0001)  cg2d: iter=    46 ; resid.=  1.87283827313814E-05
(PID.TID 0000.0001)  cg2d: iter=    47 ; resid.=  1.45016202997514E-05
(PID.TID 0000.0001)  cg2d: iter=    48 ; resid.=  1.13586848664861E-05
(PID.TID 0000.0001)  cg2d: iter=    49 ; resid.=  9.36115485621720E-06
(PID.TID 0000.0001)  cg2d: iter=    50 ; resid.=  7.66383443967006E-06
(PID.TID 0000.0001)  cg2d: iter=    51 ; resid.=  6.50619374821822E-06
(PID.TID 0000.0001)  cg2d: iter=    52 ; resid.=  4.86003376859217E-06
(PID.TID 0000.0001)  cg2d: iter=    53 ; resid.=  4.03464667575611E-06
(PID.TID 0000.0001)  cg2d: iter=    54 ; resid.=  3.57596892282275E-06
(PID.TID 0000.0001)  cg2d: iter=    55 ; resid.=  3.07779402362795E-06
(PID.TID 0000.0001)  cg2d: iter=    56 ; resid.=  2.59647410384877E-06
(PID.TID 0000.0001)  cg2d: iter=    57 ; resid.=  2.37666164220867E-06
(PID.TID 0000.0001)  cg2d: iter=    58 ; resid.=  2.20943624037353E-06
(PID.TID 0000.0001)  cg2d: iter=    59 ; resid.=  1.66068957684166E-06
(PID.TID 0000.0001)  cg2d: iter=    60 ; resid.=  1.14064721711028E-06
(PID.TID 0000.0001)  cg2d: iter=    61 ; resid.=  8.26287168406552E-07
(PID.TID 0000.0001)  cg2d: iter=    62 ; resid.=  6.46537483282976E-07
(PID.TID 0000.0001)  cg2d: iter=    63 ; resid.=  5.48248991361926E-07
(PID.TID 0000.0001)  cg2d: iter=    64 ; resid.=  4.79391515987507E-07
(PID.TID 0000.0001)  cg2d: iter=    65 ; resid.=  3.97397503357146E-07
(PID.TID 0000.0001)  cg2d: iter=    66 ; resid.=  3.44691539408252E-07
(PID.TID 0000.0001)  cg2d: iter=    67 ; resid.=  2.95978666137582E-07
(PID.TID 0000.0001)  cg2d: iter=    68 ; resid.=  2.60723065005335E-07
(PID.TID 0000.0001)  cg2d: iter=    69 ; resid.=  2.10997350817942E-07
(PID.TID 0000.0001)  cg2d: iter=    70 ; resid.=  1.87619382189939E-07
(PID.TID 0000.0001)  cg2d: iter=    71 ; resid.=  1.61618024283955E-07
(PID.TID 0000.0001)  cg2d: iter=    72 ; resid.=  1.25676163218968E-07
(PID.TID 0000.0001)  cg2d: iter=    73 ; resid.=  1.08913200554271E-07
(PID.TID 0000.0001)  cg2d: iter=    74 ; resid.=  9.67712268818161E-08
(PID.TID 0000.0001)  cg2d: iter=    75 ; resid.=  7.30956270806514E-08
(PID.TID 0000.0001)  cg2d: iter=    76 ; resid.=  5.30875759460190E-08
(PID.TID 0000.0001)  cg2d: iter=    77 ; resid.=  4.01472053280914E-08
(PID.TID 0000.0001)  cg2d: iter=    78 ; resid.=  3.11019555230035E-08
(PID.TID 0000.0001)  cg2d: iter=    79 ; resid.=  2.61935757527610E-08
(PID.TID 0000.0001)  cg2d: iter=    80 ; resid.=  2.24722707586016E-08
(PID.TID 0000.0001)  cg2d: iter=    81 ; resid.=  1.83640536901047E-08
(PID.TID 0000.0001)  cg2d: iter=    82 ; resid.=  1.45394950637195E-08
(PID.TID 0000.0001)  cg2d: iter=    83 ; resid.=  1.12143917418268E-08
(PID.TID 0000.0001)  cg2d: iter=    84 ; resid.=  9.41294721758143E-09
(PID.TID 0000.0001)  cg2d: iter=    85 ; resid.=  6.71217149015555E-09
(PID.TID 0000.0001)  cg2d: iter=    86 ; resid.=  4.54390301688172E-09
(PID.TID 0000.0001)  cg2d: iter=    87 ; resid.=  3.36871189405831E-09
(PID.TID 0000.0001)  cg2d: iter=    88 ; resid.=  2.42417238149366E-09
(PID.TID 0000.0001)  cg2d: iter=    89 ; resid.=  1.81065361856122E-09
(PID.TID 0000.0001)  cg2d: iter=    90 ; resid.=  1.42931859888206E-09
(PID.TID 0000.0001)  cg2d: iter=    91 ; resid.=  1.16945740229011E-09
(PID.TID 0000.0001)  cg2d: iter=    92 ; resid.=  9.49896645430845E-10
(PID.TID 0000.0001)  cg2d: iter=    93 ; resid.=  8.02859528024287E-10
(PID.TID 0000.0001)  cg2d: iter=    94 ; resid.=  6.75083475777032E-10
(PID.TID 0000.0001)  cg2d: iter=    95 ; resid.=  4.97560411849607E-10
(PID.TID 0000.0001)  cg2d: iter=    96 ; resid.=  4.01214010344374E-10
(PID.TID 0000.0001)  cg2d: iter=    97 ; resid.=  3.36828140725276E-10
(PID.TID 0000.0001)  cg2d: iter=    98 ; resid.=  2.86809600893064E-10
(PID.TID 0000.0001)  cg2d: iter=    99 ; resid.=  2.49947879174521E-10
(PID.TID 0000.0001)  cg2d: iter=   100 ; resid.=  2.18971081196105E-10
(PID.TID 0000.0001)  cg2d: iter=   101 ; resid.=  1.83262895177618E-10
(PID.TID 0000.0001)  cg2d: iter=   102 ; resid.=  1.40094712561211E-10
(PID.TID 0000.0001)  cg2d: iter=   103 ; resid.=  1.03274989760876E-10
(PID.TID 0000.0001)  cg2d: iter=   104 ; resid.=  7.17642547371480E-11
(PID.TID 0000.0001)  cg2d: iter=   105 ; resid.=  5.27395969097478E-11
(PID.TID 0000.0001)  cg2d: iter=   106 ; resid.=  4.80777680902437E-11
(PID.TID 0000.0001)  cg2d: iter=   107 ; resid.=  4.13625469060774E-11
(PID.TID 0000.0001)  cg2d: iter=   108 ; resid.=  3.27439710657054E-11
(PID.TID 0000.0001)  cg2d: iter=   109 ; resid.=  2.53298366099578E-11
(PID.TID 0000.0001)  cg2d: iter=   110 ; resid.=  1.83155736621769E-11
(PID.TID 0000.0001)  cg2d: iter=   111 ; resid.=  1.51592027226112E-11
(PID.TID 0000.0001)  cg2d: iter=   112 ; resid.=  1.23986426060082E-11
(PID.TID 0000.0001)  cg2d: iter=   113 ; resid.=  9.37976477938024E-12
(PID.TID 0000.0001)  cg2d: iter=   114 ; resid.=  7.35403023332562E-12
(PID.TID 0000.0001)  cg2d: iter=   115 ; resid.=  5.15626904966457E-12
(PID.TID 0000.0001)  cg2d: iter=   116 ; resid.=  3.26813716631850E-12
(PID.TID 0000.0001)  cg2d: iter=   117 ; resid.=  2.31316577056958E-12
(PID.TID 0000.0001)  cg2d: iter=   118 ; resid.=  1.57935907715083E-12
(PID.TID 0000.0001)  cg2d: iter=   119 ; resid.=  1.04640037382593E-12
(PID.TID 0000.0001)  cg2d: iter=   120 ; resid.=  7.19609884048680E-13
(PID.TID 0000.0001)  cg2d: iter=   121 ; resid.=  4.98597036703370E-13
(PID.TID 0000.0001)  cg2d: iter=   122 ; resid.=  3.97550280008673E-13
(PID.TID 0000.0001)  cg2d: iter=   123 ; resid.=  3.01461304069935E-13
(PID.TID 0000.0001)  cg2d: iter=   124 ; resid.=  2.30583133721464E-13
(PID.TID 0000.0001)  cg2d: iter=   125 ; resid.=  1.74147311753931E-13
(PID.TID 0000.0001)  cg2d: iter=   126 ; resid.=  1.27797369080400E-13
(PID.TID 0000.0001)  cg2d: iter=   127 ; resid.=  9.77144853725802E-14
DEBUG_STATS_RL:    cg2d_x (SOLVE_FOR_PRESSURE)  min= -1.86146073718145E+01
DEBUG_STATS_RL:    cg2d_x (SOLVE_FOR_PRESSURE)  max=  9.40387765938555E+00
DEBUG_STATS_RL:    cg2d_x (SOLVE_FOR_PRESSURE) mean= -1.84296785137436E+00
DEBUG_STATS_RL:    cg2d_x (SOLVE_FOR_PRESSURE) S.D.=  7.19305964877532E+00
(PID.TID 0000.0001)      cg2d_init_res =   2.58175941123028E-01
(PID.TID 0000.0001)      cg2d_iters(min,last) =      -1     127
(PID.TID 0000.0001)      cg2d_last_res =   9.77144853725802E-14
(PID.TID 0000.0001) // =======================================================
(PID.TID 0000.0001) // Begin MONITOR dynamic field statistics
(PID.TID 0000.0001) // =======================================================
(PID.TID 0000.0001) %MON time_tsnumber                =                    70
(PID.TID 0000.0001) %MON time_secondsf                =   6.0480000000000E+06
(PID.TID 0000.0001) %MON dynstat_eta_max              =   9.5860118852042E-01
(PID.TID 0000.0001) %MON dynstat_eta_min              =  -1.8975134935590E+00
(PID.TID 0000.0001) %MON dynstat_eta_mean             =  -5.0588091501195E-03
(PID.TID 0000.0001) %MON dynstat_eta_sd               =   6.3688983790411E-01
(PID.TID 0000.0001) %MON dynstat_eta_del2             =   2.4242338455092E-03
(PID.TID 0000.0001) %MON dynstat_uvel_max             =   1.4600144748121E-01
(PID.TID 0000.0001) %MON dynstat_uvel_min             =  -1.2185820417351E-01
(PID.TID 0000.0001) %MON dynstat_uvel_mean            =   2.2157767794311E-03
(PID.TID 0000.0001) %MON dynstat_uvel_sd              =   1.3185200564096E-02
(PID.TID 0000.0001) %MON dynstat_uvel_del2            =   8.0431928779346E-05
(PID.TID 0000.0001) %MON dynstat_vvel_max             =   1.4266343476898E-01
(PID.TID 0000.0001) %MON dynstat_vvel_min             =  -8.6271104363904E-02
(PID.TID 0000.0001) %MON dynstat_vvel_mean            =   5.2362859878532E-05
(PID.TID 0000.0001) %MON dynstat_vvel_sd              =   8.1556179993179E-03
(PID.TID 0000.0001) %MON dynstat_vvel_del2            =   7.2420851544077E-05
(PID.TID 0000.0001) %MON dynstat_wvel_max             =   1.4339317351109E-04
(PID.TID 0000.0001) %MON dynstat_wvel_min             =  -7.5169120788880E-05
(PID.TID 0000.0001) %MON dynstat_wvel_mean            =   1.6792694665917E-22
(PID.TID 0000.0001) %MON dynstat_wvel_sd              =   1.0176156789066E-05
(PID.TID 0000.0001) %MON dynstat_wvel_del2            =   1.0294916905361E-07
(PID.TID 0000.0001) %MON dynstat_theta_max            =   3.0008808934077E+01
(PID.TID 0000.0001) %MON dynstat_theta_min            =  -1.9387528911087E+00
(PID.TID 0000.0001) %MON dynstat_theta_mean           =   3.6214369862800E+00
(PID.TID 0000.0001) %MON dynstat_theta_sd             =   4.4212367157889E+00
(PID.TID 0000.0001) %MON dynstat_theta_del2           =   4.7072126696564E-03
(PID.TID 0000.0001) %MON dynstat_salt_max             =   3.7454382037880E+01
(PID.TID 0000.0001) %MON dynstat_salt_min             =   2.9854359524328E+01
(PID.TID 0000.0001) %MON dynstat_salt_mean            =   3.4717307503522E+01
(PID.TID 0000.0001) %MON dynstat_salt_sd              =   2.9626017366142E-01
(PID.TID 0000.0001) %MON dynstat_salt_del2            =   9.6064230566488E-04
(PID.TID 0000.0001) %MON dynstat_sst_max              =   3.0008808934077E+01
(PID.TID 0000.0001) %MON dynstat_sst_min              =  -1.9387528911087E+00
(PID.TID 0000.0001) %MON dynstat_sst_mean             =   1.8813156849417E+01
(PID.TID 0000.0001) %MON dynstat_sst_sd               =   9.2161823146710E+00
(PID.TID 0000.0001) %MON dynstat_sst_del2             =   2.4047357360123E-02
(PID.TID 0000.0001) %MON dynstat_sss_max              =   3.7396989107138E+01
(PID.TID 0000.0001) %MON dynstat_sss_min              =   2.9854359524328E+01
(PID.TID 0000.0001) %MON dynstat_sss_mean             =   3.4838509815420E+01
(PID.TID 0000.0001) %MON dynstat_sss_sd               =   9.7998531761104E-01
(PID.TID 0000.0001) %MON dynstat_sss_del2             =   7.5900537342806E-03
(PID.TID 0000.0001) %MON forcing_qnet_max             =   2.9129660034180E+02
(PID.TID 0000.0001) %MON forcing_qnet_min             =  -1.6565126647949E+02
(PID.TID 0000.0001) %MON forcing_qnet_mean            =  -8.6051029879044E+00
(PID.TID 0000.0001) %MON forcing_qnet_sd              =   5.0688573492058E+01
(PID.TID 0000.0001) %MON forcing_qnet_del2            =   8.5873863831928E-01
(PID.TID 0000.0001) %MON forcing_qsw_max              =   0.0000000000000E+00
(PID.TID 0000.0001) %MON forcing_qsw_min              =   0.0000000000000E+00
(PID.TID 0000.0001) %MON forcing_qsw_mean             =   0.0000000000000E+00
(PID.TID 0000.0001) %MON forcing_qsw_sd               =   0.0000000000000E+00
(PID.TID 0000.0001) %MON forcing_qsw_del2             =   0.0000000000000E+00
(PID.TID 0000.0001) %MON forcing_empmr_max            =   6.9143359837653E-05
(PID.TID 0000.0001) %MON forcing_empmr_min            =  -8.0869340024492E-05
(PID.TID 0000.0001) %MON forcing_empmr_mean           =   6.2925063892483E-07
(PID.TID 0000.0001) %MON forcing_empmr_sd             =   2.6455536925131E-05
(PID.TID 0000.0001) %MON forcing_empmr_del2           =   3.5991612840969E-07
(PID.TID 0000.0001) %MON forcing_fu_max               =   3.4590290188789E-01
(PID.TID 0000.0001) %MON forcing_fu_min               =  -3.5032370686531E-01
(PID.TID 0000.0001) %MON forcing_fu_mean              =   1.9891531763637E-02
(PID.TID 0000.0001) %MON forcing_fu_sd                =   9.8919389593516E-02
(PID.TID 0000.0001) %MON forcing_fu_del2              =   7.7806315234272E-04
(PID.TID 0000.0001) %MON forcing_fv_max               =   1.6034940332174E-01
(PID.TID 0000.0001) %MON forcing_fv_min               =  -1.8434488475323E-01
(PID.TID 0000.0001) %MON forcing_fv_mean              =  -7.4670053402277E-03
(PID.TID 0000.0001) %MON forcing_fv_sd                =   4.1889461618814E-02
(PID.TID 0000.0001) %MON forcing_fv_del2              =   4.7843997600298E-04
(PID.TID 0000.0001) %MON trAdv_CFL_u_max              =   4.7463665055293E-02
(PID.TID 0000.0001) %MON trAdv_CFL_v_max              =   2.7607453015381E-02
(PID.TID 0000.0001) %MON trAdv_CFL_w_max              =   3.0264624316681E-02
(PID.TID 0000.0001) %MON advcfl_uvel_max              =   4.8258678749201E-02
(PID.TID 0000.0001) %MON advcfl_vvel_max              =   2.7717217329201E-02
(PID.TID 0000.0001) %MON advcfl_wvel_max              =   3.3942932031119E-02
(PID.TID 0000.0001) %MON advcfl_W_hf_max              =   3.6438735856936E-02
(PID.TID 0000.0001) %MON pe_b_mean                    =   5.1908351671205E-04
(PID.TID 0000.0001) %MON ke_max                       =   1.1161250595063E-02
(PID.TID 0000.0001) %MON ke_mean                      =   1.1107532938807E-04
(PID.TID 0000.0001) %MON ke_vol                       =   1.3226782436723E+18
(PID.TID 0000.0001) %MON vort_r_min                   =  -2.8925269432718E-07
(PID.TID 0000.0001) %MON vort_r_max                   =   4.0877941928053E-07
(PID.TID 0000.0001) %MON vort_a_mean                  =  -2.5274807286208E-05
(PID.TID 0000.0001) %MON vort_a_sd                    =   7.3604628260379E-05
(PID.TID 0000.0001) %MON vort_p_mean                  =  -3.1845655659308E-05
(PID.TID 0000.0001) %MON vort_p_sd                    =   1.3162503685196E-04
(PID.TID 0000.0001) %MON surfExpan_theta_mean         =  -4.6457948501885E-08
(PID.TID 0000.0001) %MON surfExpan_salt_mean          =   4.1182063113519E-08
(PID.TID 0000.0001) // =======================================================
(PID.TID 0000.0001) // End MONITOR dynamic field statistics
(PID.TID 0000.0001) // =======================================================
(PID.TID 0000.0001) // =======================================================
(PID.TID 0000.0001) // Field Current uVel   at iteration         70
(PID.TID 0000.0001) // CMIN =         -1.218582041735107E-01
(PID.TID 0000.0001) // CMAX =          1.460014474812128E-01
(PID.TID 0000.0001) // CINT =          9.920727839063833E-03
(PID.TID 0000.0001) // SYMBOLS (CMIN->CMAX): -abcdefghijklmnopqrstuvwxyz+
(PID.TID 0000.0001) //                  0.0: .
(PID.TID 0000.0001) // RANGE I (Lo:Hi:Step):(     1:    90:     1)
(PID.TID 0000.0001) // RANGE J (Lo:Hi:Step):(    40:     1:    -1)
(PID.TID 0000.0001) // RANGE K (Lo:Hi:Step):(   1:   1:   1)
(PID.TID 0000.0001) // =======================================================
(PID.TID 0000.0001) K =   1
(PID.TID 0000.0001)                I=10      I=20      I=30      I=40      I=50      I=60      I=70      I=80      I=90
(PID.TID 0000.0001) |--J--|123456789|123456789|123456789|123456789|123456789|123456789|123456789|123456789|123456789|
(PID.TID 0000.0001)     40 lmlll..llllllmmmmmm...................................................................llll
(PID.TID 0000.0001)     39 mnnmmmmmmmmmmm....l......................................................lll.........kjjkl
(PID.TID 0000.0001)     38 mnonmmmmmmmmm............................................................llll.......jjjklm
(PID.TID 0000.0001)     37 non...................................................................l....kl....jkjk..lmn
(PID.TID 0000.0001)     36 on..........................................kkl.....................llllkkkjjk..jjklmmnnop
(PID.TID 0000.0001)     35 on..................................lll...kkjjkl....klll............ll.....lkklkkmnooooqqo
(PID.TID 0000.0001)     34 ....................................lkk..kkkkkll..mkklmml...................nonoppqrrrqo..
(PID.TID 0000.0001)     33 .....................................lllkklmmmnnnnnooonnmll..................opqsttssrqnm.
(PID.TID 0000.0001)     32 .....................................kllllmnoppppoooooonnnm.................opppqrqqponnn.
(PID.TID 0000.0001)     31 .....................................llmmnnooppppoonnnnnnnn...............nrspqqpponmmlm..
(PID.TID 0000.0001)     30 ....................................oppooopppppppoooooonnmm.............ooppppppponmllll..
(PID.TID 0000.0001)     29 ..................................ortsrrrrrrsrqqpppqqpponmml............rqqppoonnmmlkkkj..
(PID.TID 0000.0001)     28 ................................oqsttrrssssstsrqpoppqqponmlll..........rrqppoonmllkkjjkl..
(PID.TID 0000.0001)     27 ...............m...............nqqqqpooppqqpppoonmmmnnnmllkklm....llm..qqpponnmlkjjjii....
(PID.TID 0000.0001)     26 ...............nl............jjlnmmlllkklllllkkkkjkllllkkklllmnm..llklmnnnnmmmllkkkjjj....
(PID.TID 0000.0001)     25 ...............onn....ml....mkkmonmlkjjijjjkjjjjjjkllllmmmnmmmnnm....kllmmnmnnnnnmmmll....
(PID.TID 0000.0001)     24 .............onmnmn..nml....nn..mmlkjjijjjjjjjkklllmmmmmnmnmlmllllmm..mlkkmmnnoonnmmno....
(PID.TID 0000.0001)     23 .............khhijk..jhi....km...ggffeefggfffghijjjkllllllmlkjiiiiikl.....kjiijjijjkmo....
(PID.TID 0000.0001)     22 l............caaabcbddeg....l..ecdedbbacedcbcdeghhhiklnopoomlkjijiiiii.......khfddgilpppnl
(PID.TID 0000.0001)     21 mmo.........fccb--aacfijn......ffmlheedeffgeffghhghghjklmllkkklmmlkihi.........gbbfiknonon
(PID.TID 0000.0001)     20 lln........jhijiihgeilnmm.........mllkihjlmllkkkjihffhgghgffgijjkkiggi..........gbeghijiik
(PID.TID 0000.0001)     19 kmn........igiijmnljkkllkmm....kn......mmoqppoonmlkihhgfgedccdddffedeg............hfeggfgh
(PID.TID 0000.0001)     18 imn........ifeffhjmkkkjjklmljjjjl....nopnpqqqponnmmmkjiiihhfeeeeffeeefj...........ljhhghhh
(PID.TID 0000.0001)     17 ikl..........ghiihkklolklmmkjjj......mnnmmnnnnnmlllllkkjjjkjiiihiihhihj..........nmljihiji
(PID.TID 0000.0001)     16 kkk.......l..kiiijiiklljjlmmlk........kkkkkkkklkkkjkjjkjjjjjkjjkkkkkkkll.........mlkjiijjj
(PID.TID 0000.0001)     15 ihhi.....lm..mlllmjjkkljiklmo..........kjjkkklmmlllllllkkjkkjjjklkjkkkjkk.......klkkjjiiii
(PID.TID 0000.0001)     14 hgef.....ljjloppppoomlnlkkjjm..........mklmmnopppppqqpooooonllllllkkkjiij......lnonnmmljji
(PID.TID 0000.0001)     13 kigf.....mlmnppppqqpnmonlljij..........oooopqqqqqqqrrrrrrrrqqpnmmnnmlljij.....lnoppppponml
(PID.TID 0000.0001)     12 mlkijkkjknoooonnooonnnonmlkkkklllk.....noooopppppppppppppqppqpnmmnnmmlkk......mnooppqqqpon
(PID.TID 0000.0001)     11 nnmllkkmoqqqqqppoppooooonmmllmmmmll...mmmmm..oonnnmmnnnmmnnnnnmmmmmmmmlk.....mnoppppqqpooo
(PID.TID 0000.0001)     10 qpoooprsstvvvuuuttutrqqqqqpoooonmmll..mmmmm..oomllllmmmllllmmmmmnnnnnnmm...nmnopqqqrrrrrqq
(PID.TID 0000.0001)      9 uttttuuuuwxwvuvwuuvvvuuuuuutssrrqqppoooonn..pponnnnnnnnoooooooooppoooonl..nnnprsssttuuvvvu
(PID.TID 0000.0001)      8 vwxyxwvuvvvvuuuttsstvwwwwwxxwvvvwwxxxwvusrrsrqrrsttttttttttsrrrrrrrqqqpn..nnnqrsrsuuuvvwvv
(PID.TID 0000.0001)      7 tuvvutssttstsssssrqqstttuuuuuuvwwxyz+zzyyxxvtttuuvwxyyyxwwvuttttuttuuttutrrqrrrrqqrrssssst
(PID.TID 0000.0001)      6 pppoppqqqqqqpppqqqqoooopqrrrssttuuuuuuvwxyywvuuuvvvwxyyxwvttsttuuuuvvvvwxxwxxwusqppppppppp
(PID.TID 0000.0001)      5 llllmnoooonnnmmnnnnnmmmmmmnoopppppppppqstuvvuttttttttssssssssssssttttuuuutsstrqponnnnnnnmm
(PID.TID 0000.0001)      4 kjjjklllmllllllllmmmmlllklllmmmmmmmmmmmnnoppqqqqpppoonnnooppqqqqqqqpppppon...lmmllllllllkk
(PID.TID 0000.0001)      3 kkkkkkkkll.............................llllllmmmmllllllllmmmmmmmnnmmmmmmm...llllllllllllll
(PID.TID 0000.0001)      2 ...........................................lllllllllkkklllllllll...lll......lmlllllllll...
(PID.TID 0000.0001)      1 ..........................................................................................
(PID.TID 0000.0001) // =======================================================
(PID.TID 0000.0001) // END OF FIELD                                          =
(PID.TID 0000.0001) // =======================================================
(PID.TID 0000.0001) 
(PID.TID 0000.0001) // =======================================================
(PID.TID 0000.0001) // Field Current vVel   at iteration         70
(PID.TID 0000.0001) // CMIN =         -8.627110436390376E-02
(PID.TID 0000.0001) // CMAX =          1.426634347689774E-01
(PID.TID 0000.0001) // CINT =          8.479057004921525E-03
(PID.TID 0000.0001) // SYMBOLS (CMIN->CMAX): -abcdefghijklmnopqrstuvwxyz+
(PID.TID 0000.0001) //                  0.0: .
(PID.TID 0000.0001) // RANGE I (Lo:Hi:Step):(     1:    90:     1)
(PID.TID 0000.0001) // RANGE J (Lo:Hi:Step):(    40:     1:    -1)
(PID.TID 0000.0001) // RANGE K (Lo:Hi:Step):(   1:   1:   1)
(PID.TID 0000.0001) // =======================================================
(PID.TID 0000.0001) K =   1
(PID.TID 0000.0001)                I=10      I=20      I=30      I=40      I=50      I=60      I=70      I=80      I=90
(PID.TID 0000.0001) |--J--|123456789|123456789|123456789|123456789|123456789|123456789|123456789|123456789|123456789|
(PID.TID 0000.0001)     40 ijmnl.iijjkkkk...jj..................................................................jjjjj
(PID.TID 0000.0001)     39 jklmljjiijjkk...........................................................jjjk........gjjjkk
(PID.TID 0000.0001)     38 kmm.......................................................................jjj......ig.llkl
(PID.TID 0000.0001)     37 ln...................................................................jj...jjh...fjnlj.kljk
(PID.TID 0000.0001)     36 ll.........................................lmlk....................ijj....hfgi.edilkjjiklk
(PID.TID 0000.0001)     35 ...................................jjkj..kklmllk...hhlmm...................efggghjjjiikm..
(PID.TID 0000.0001)     34 ....................................ijj.jjjjkkkj.ihijkmnl...................gehijkkkjhjj..
(PID.TID 0000.0001)     33 ....................................jiijjiiiijiiihhijkkkllk.................mgjllllljhgik.
(PID.TID 0000.0001)     32 ....................................iihhhhhhhihgggghhhiiiij................omhjkkjijihhj..
(PID.TID 0000.0001)     31 ....................................jhgfffeeefeddddddeeffgi..............ikjhhhhgghhiijj..
(PID.TID 0000.0001)     30 ...................................jifcbbba-abbbbbbbccdddef............nmhhfeefefffgijkj..
(PID.TID 0000.0001)     29 .................................jihgdbaaba-acddeeeefffffedf...........lkhfeeeghhhhiijjj..
(PID.TID 0000.0001)     28 ...............................nnlkihgffgggghiiijjjkkjjiihfef.........llkjjjjjjjjijjjj....
(PID.TID 0000.0001)     27 ..............jj..............mllllmlllmnmllllklmmlmlkkkjihggh...kkmo.lnmnnmljjkkkjjij....
(PID.TID 0000.0001)     26 ..............jjj...........gimljjlmmmmmmmlkkjjklkjjjjjjjjijjjkk....onmlkllkjijjkkiijk....
(PID.TID 0000.0001)     25 ..............nnmj...jjj...jij.kjkllmmmmmmmmlllmmllllmnnnonnnmmlk....nmlmmnnnooopooonk....
(PID.TID 0000.0001)     24 ............orsrplj.llll...lmm..lnqstuvvuttstttttttttuvxxxvtrponllll.....ssrtuvvvuttql....
(PID.TID 0000.0001)     23 ............ovvurnn.kopp...kk...hmsvxxz+zxwxwxwwvvvvvwwwxxvusponmmmnm.......qtwwvvuuto....
(PID.TID 0000.0001)     22 j...........jpqrqnmljmoq......hfefjnqqtttsrqqqpppqqrsstuvvutqonmlllmlj........oqsutsrolmmk
(PID.TID 0000.0001)     21 iih........lnoppmkjjijlmk......b.bdgikmmlkkkjjklmlmnnoprrrrrqonmmlkjhf.........kntspnnmmlj
(PID.TID 0000.0001)     20 gfi.......lmqpoligfffgige......e......khgfggggijkkjjkkllkjjllkjjjijjji...........tqmlmmljh
(PID.TID 0000.0001)     19 efi.......jlqpkdabbccceeegi...hhj.....mkjjjjjklllllmmlkjigfffeddfffgii...........lkhgihgfe
(PID.TID 0000.0001)     18 dfi.......i.qrkedfghhffgghijklj.....kmoooonnonnnonnnomkjihgfddccddddefi..........kkihheccd
(PID.TID 0000.0001)     17 fgi.......k.mqljjhijijiiikkkjk.......lmllmmmmnmmnnmmmmmlkjjjihggggfeggj.........jkkjjigefg
(PID.TID 0000.0001)     16 mnn......om.ijihgegjhfghijjii.........iihhhiiiiijjjjjjiijjjiijjjiiiijkll........hijjklkkkl
(PID.TID 0000.0001)     15 moqn....ikl.deededeigcdfhjihi.........ggfdeeeeffgggggggfgghghjjjiijjkmook......geggghiijkl
(PID.TID 0000.0001)     14 lmom....fhkfegfedegjhdehjjiii.........gfgggffffffgggffffghhhilkkkjjllmool.....ggghhghijkll
(PID.TID 0000.0001)     13 nnmm....fimljkkjijkljhilnljjj.........hiklkihiiiiiiihiiiijkklmlmmmlmmmnl.....ihjjlljkllnoo
(PID.TID 0000.0001)     12 oonmmjhhgjnommnnmlmnmklmnmllljjjkk....jklml.ijkklkjjjjjkkkllmmlmoommmmmk.....iklkmnmmnnopp
(PID.TID 0000.0001)     11 nnmmkiihhilnkijkkkkkllllmmmmkkkkkll..jikkkk.jjkjkkjjjjjkllkllkkmoonllllk....himmkkkkjkklno
(PID.TID 0000.0001)     10 lllmljiijmoolihikkhghjllkkklkjjjijlm.jijjj..nkihijjjjjijkllkkjjlnnnlllkk..nojknnljjihhijkl
(PID.TID 0000.0001)      9 kklmmljikmnonmjinqkgikmmmlklkjiiihkmljijjk.pokihijiiijiijlmmkkklnnnmllij.lopnnppmkkjiijllk
(PID.TID 0000.0001)      8 mmnmmlkklmmnnnmklsrmlmmnnnmmlllkkkmomkihikpromllmlkkkkkmmmnmlllmnonmmlii.noqrssromlkklmmnn
(PID.TID 0000.0001)      7 pomllllmmmmmnmmmlorqommnnnmmmmnnnnopnkihilopponoponmmkklmmmnmmmmnoonmmmmpqprttsqonmllmnnop
(PID.TID 0000.0001)      6 nmkjkklmmlllllkklmnonmmmlkklmnnnmmnnmlkjklnnoopqppppoljjjklnnnmmnoonnnopqrqqqoonmlllllnnnn
(PID.TID 0000.0001)      5 kjiiiijkkjiiiiijjkkkkjjhhhhijjjjjjjkkkkkklmllmopooonmlkjjklmnmllmnnnmnnnmm..lkllkkkkkklkkk
(PID.TID 0000.0001)      4 gfffgfffgh............................jiijjjjklmmllkkjjjkklllkkjkklkkkjjj...jkkjjjjjjjjiih
(PID.TID 0000.0001)      3 ..........................................jjjijjjjjiiiijjjjiiihi..jiii.....jjkjiiiiijii...
(PID.TID 0000.0001)      2 ..........................................................................................
(PID.TID 0000.0001)      1 ..........................................................................................
(PID.TID 0000.0001) // =======================================================
(PID.TID 0000.0001) // END OF FIELD                                          =
(PID.TID 0000.0001) // =======================================================
(PID.TID 0000.0001) 
(PID.TID 0000.0001) // =======================================================
(PID.TID 0000.0001) // Field Current theta  at iteration         70
(PID.TID 0000.0001) // CMIN =         -1.938752891108737E+00
(PID.TID 0000.0001) // CMAX =          3.000880893407715E+01
(PID.TID 0000.0001) // CINT =          1.183243030562440E+00
(PID.TID 0000.0001) // SYMBOLS (CMIN->CMAX): -abcdefghijklmnopqrstuvwxyz+
(PID.TID 0000.0001) //                  0.0: .
(PID.TID 0000.0001) // RANGE I (Lo:Hi:Step):(     1:    90:     1)
(PID.TID 0000.0001) // RANGE J (Lo:Hi:Step):(    40:     1:    -1)
(PID.TID 0000.0001) // RANGE K (Lo:Hi:Step):(   1:   1:   1)
(PID.TID 0000.0001) // =======================================================
(PID.TID 0000.0001) K =   1
(PID.TID 0000.0001)                I=10      I=20      I=30      I=40      I=50      I=60      I=70      I=80      I=90
(PID.TID 0000.0001) |--J--|123456789|123456789|123456789|123456789|123456789|123456789|123456789|123456789|123456789|
(PID.TID 0000.0001)     40 -abccbaa-----aabdddbbbbbbbbbbbbbbbbbbbbbbbbbbbbbbbbbbbbbbbbbbbbbbbbbbbbbbbbbbbbbbbbbbaa---
(PID.TID 0000.0001)     39 bbcdcccbba----bbbddbbbbbbbbbbbbbbbbbbbbbbbbbbbbbbbbbbbbbbbbbbbbbbbbbbbbb----bbbbbbbbaa--aa
(PID.TID 0000.0001)     38 eeefeecccbbaabbbbbbbbbbbbbbbbbbbbbbbbbbbbbbbbbbbbbbbbbbbbbbbbbbbbbbbbbbb-----bbbbbbbaaabcd
(PID.TID 0000.0001)     37 fggbbbbbbbbbbbbbbbbbbbbbbbbbbbbbbbbbbbbbbbbbbbbbbbbbbbbbbbbbbbbbbbbbbbbbbbaabbbbdccdebcdde
(PID.TID 0000.0001)     36 ggbbbbbbbbbbbbbbbbbbbbbbbbbbbbbbbbbbbbbbbbbcbaabbbbbbbbbbbbbbbbbbbbccccbbcbbbdbdefgghhhhgg
(PID.TID 0000.0001)     35 ggbbbbbbbbbbbbbbbbbbbbbbbbbbbbbbbbbaa-abbbbcccbabbbeeeffbbbbbbbbbbbbbbbbbbccdedeefghiiiihg
(PID.TID 0000.0001)     34 bbbbbbbbbbbbbbbbbbbbbbbbbbbbbbbbbbb----bbcddddddbddeeffggbbbbbbbbbbbbbbbbbbcbcdefghiijjjbb
(PID.TID 0000.0001)     33 bbbbbbbbbbbbbbbbbbbbbbbbbbbbbbbbbbbb-abbccddddeeeeefffgghhibbbbbbbbbbbbbbbbbbbdghijkkkkkjb
(PID.TID 0000.0001)     32 bbbbbbbbbbbbbbbbbbbbbbbbbbbbbbbbbbbbabbccdeeefffgggghhhhiiibbbbbbbbbbbbbbbbdcbcikllllllkkb
(PID.TID 0000.0001)     31 bbbbbbbbbbbbbbbbbbbbbbbbbbbbbbbbbbbbdefggghhiiiiiiijjjkkkkkbbbbbbbbbbbbbbgjlkgkmnnnnmmmmbb
(PID.TID 0000.0001)     30 bbbbbbbbbbbbbbbbbbbbbbbbbbbbbbbbbbblkkkkkkkllllllllllmmmmmlbbbbbbbbbbbbmnnpppoppppoooonobb
(PID.TID 0000.0001)     29 bbbbbbbbbbbbbbbbbbbbbbbbbbbbbbbbbooooonnnnnnnnnnnnnnooooonmmbbbbbbbbbbbpqqqqqqqqqqppppoobb
(PID.TID 0000.0001)     28 bbbbbbbbbbbbbbbbbbbbbbbbbbbbbbbnpqqqqqppqqqqqqqqqqqqqqqqpponnbbbbbbbbbrssrrrsrrrrrqqqqqpbb
(PID.TID 0000.0001)     27 bbbbbbbbbbbbbbvvbbbbbbbbbbbbbbrrssssssssstssssssstsssssrrrqpppbbbssstbtuuttuuttttsssrrbbbb
(PID.TID 0000.0001)     26 bbbbbbbbbbbbbbvuubbbbbbbbbbbutuuuuuvvvvvvvvvuuuuuuuutttsssrrrssubtuvwvvvvvvvvuuuttssrqbbbb
(PID.TID 0000.0001)     25 bbbbbbbbbbbbbbvvwwbbbxwxbbbuvvwwwwwxxxwwwwwwwwwvvvvvuuuuuuttuuvwwbbbwwwwwwwvvvvuuutsrqbbbb
(PID.TID 0000.0001)     24 bbbbbbbbbbbbwwwwxyybxxxybbbwxxbxxxxyyxxxxxxwxxwwwwwvwwwwwwvwwwxxxwwwbxwwwwwwwwvvvvuutsbbbb
(PID.TID 0000.0001)     23 bbbbbbbbbbbbxwxyyzzbxyyybbbxxxbbxyyyyyyyxxxxxxxxxxxxxxxwwwwwwwwwxwwwwbbbbwwwwwwwwvvvvubbbb
(PID.TID 0000.0001)     22 wbbbbbbbbbbbxxxyyyzzyyyybbbyybzyyyyyzyyzzyyyyyyyyxxyxyxxxxxxxxxwwwwwwwbbbbbbxxxxxxxxxxxxxx
(PID.TID 0000.0001)     21 xwwbbbbbbbbxyyyyyyzzzzz++bbbbbzzzzzzzz+++zzzzzyyyyyyyyyyxxxxxxxxwwwvvubbbbbbbbyyyyyyyzzyyx
(PID.TID 0000.0001)     20 wwwbbbbbbbyyzzzzzzzzzzz++bbbbbbzbz+++++++++zzzzzzzyzyyyyyxxxxxxxwwwwvubbbbbbbbbyyyyyyyyxxx
(PID.TID 0000.0001)     19 wwwbbbbbbbzzzzyyzzyzzzzzzzzbbbzzzbbbbb+++++++++zzzzzzzyyyxxxxxwwwwwwvubbbbbbbbbbbyyxxxxwww
(PID.TID 0000.0001)     18 vvubbbbbbbzzyyyyyyyyyyyzzzzzzz+zzbbb+++++++++++++zzzzzzyyyyxxwwwwwwvvutbbbbbbbbbbyyyxxwwww
(PID.TID 0000.0001)     17 vuubbbbbbbzbyyyyyyyyyyyyyzzzzzzbbbbbzzzzz+++zzzzzzzzzzyyyyyxxxwvvvvvutubbbbbbbbbyyyyxwvvwv
(PID.TID 0000.0001)     16 uttbbbbbbyzbyyyyyxyxxxxxxxxyyzbbbbbbbyyyzzzzzzzzzzzzzzyyyyyyxxwwwvvuutttbbbbbbbbyyyyyxwvwv
(PID.TID 0000.0001)     15 utsrbbbbxyxbxxxxxxxxwwwvvvwwxbbbbbbbbbxxxxxxyxxyxyyxyyxyyyyyxxwwwvuuutttsbbbbbbxyyyyyxxwvv
(PID.TID 0000.0001)     14 utsqbbbbxxxwwxwwwwwvvuvvuuuuubbbbbbbbbwwwwwwwwwwwxwwwwwxxxxxxwwwwvvuutsssbbbbbwwxxxxxxwwwv
(PID.TID 0000.0001)     13 uttrbbbbwwwwwwvvvvvvuuuttttttbbbbbbbbbvvvvvvvvvvvvvvvvvvwwwwwwvvvuuuussrqbbbbvwwwwwwwwwvvu
(PID.TID 0000.0001)     12 ssssststuvutuutttssstttsrssssrrssrbbbbuuuuttttttttttttttttttttttssttssrqbbbbbuvvvutuuuuttt
(PID.TID 0000.0001)     11 qppqrssssssrrsrqqqpppqqpppppqqqqqqqbbttssssbsrrrrrrrrrrrrrrrqqqqppqrrrqpbbbbprsssrrrrrrqqq
(PID.TID 0000.0001)     10 mllmnooooooonoonnnnnmmmmmmmmmnnnoooobqrqqqqbpqqqqqpppppppooooooonnnoopoobboooppoooooooonnm
(PID.TID 0000.0001)      9 jiiiiijjjjjjijjjiiijjjjiiijjjjkklmmmmnoooobnnonooonnnnnnnnmmmmmmllllmmmmbmmmnnmmllkjjkkjii
(PID.TID 0000.0001)      8 ffffffggggggghhhgfggghgggghhhiiijjjjjklllllllllllllllllkkkjjjjjkkjjjjklkbkkkjjjiihhhgggfff
(PID.TID 0000.0001)      7 dddeeeeefffeeffffeeeeeeeeefffgggghhhhhiijjjjjjjjjjiiiihhhihhhhhiiiiiiijjiiiihhggffeeeeeeed
(PID.TID 0000.0001)      6 cccdddeeeeeeeeeeeeeeeeeeeeeedeefffffffggghhhhhhhhggffffffggfffffggggghhhhhgggffeeddddddddc
(PID.TID 0000.0001)      5 cccdddddddddddddddddddddddddddeeeeeeeeeeeefffeeeeeddddddeeeeeeeeeefffffeeeedddddcccccccccc
(PID.TID 0000.0001)      4 ccccccccccccbbccbbccbbbbbbbbccccccbbbccccccccccccccccccccccccccdccccccdddcbbaaabbccccccccc
(PID.TID 0000.0001)      3 bbbbbaaaaabbbbbbbbbbbbbbbbbbbbbbbbbbbbbbaaabbbbbbbbbbbbbbaaabbbbaaaaabbbbbbaaaaaabbbbbbbbb
(PID.TID 0000.0001)      2 bbbbbbbbbbbbbbbbbbbbbbbbbbbbbbbbbbbbbbbbbbaaabbbbbaaaaaaaaaaaaaabbaaaabbbbbaaaaaaaaaaaabbb
(PID.TID 0000.0001)      1 bbbbbbbbbbbbbbbbbbbbbbbbbbbbbbbbbbbbbbbbbbbbbbbbbbbbbbbbbbbbbbbbbbbbbbbbbbbbbbbbbbbbbbbbbb
(PID.TID 0000.0001) // =======================================================
(PID.TID 0000.0001) // END OF FIELD                                          =
(PID.TID 0000.0001) // =======================================================
(PID.TID 0000.0001) 
(PID.TID 0000.0001) // =======================================================
(PID.TID 0000.0001) // Field Current etaN   at iteration         70
(PID.TID 0000.0001) // CMIN =         -1.897513493558959E+00
(PID.TID 0000.0001) // CMAX =          9.586011885204212E-01
(PID.TID 0000.0001) // CINT =          1.057820252621993E-01
(PID.TID 0000.0001) // SYMBOLS (CMIN->CMAX): -abcdefghijklmnopqrstuvwxyz+
(PID.TID 0000.0001) //                  0.0: .
(PID.TID 0000.0001) // RANGE I (Lo:Hi:Step):(    -1:    92:     1)
(PID.TID 0000.0001) // RANGE J (Lo:Hi:Step):(    42:    -1:    -1)
(PID.TID 0000.0001) // RANGE K (Lo:Hi:Step):(   1:   1:   1)
(PID.TID 0000.0001) // =======================================================
(PID.TID 0000.0001) K =   1
(PID.TID 0000.0001)                I=8       I=18      I=28      I=38      I=48      I=58      I=68      I=78      I=88
(PID.TID 0000.0001) |--J--|101234567|901234567|901234567|901234567|901234567|901234567|901234567|901234567|901234567|9012
(PID.TID 0000.0001)     42 ............................................bbbbbcccccddddddccccdd..eddd.....aaaaaaaaaaaa.....
(PID.TID 0000.0001)     41 ..............................................................................................
(PID.TID 0000.0001)     40 kkkjkkk.mllllllllllll..................................................................klkkkkj
(PID.TID 0000.0001)     39 kkjjjklllllllllm...ll.....................................................iiii........llkkkkjj
(PID.TID 0000.0001)     38 kkkkllllllllllm...........................................................iiiii......lkkkkkkkk
(PID.TID 0000.0001)     37 kkllm..................................................................ll...iji...jjjkj.kkkkll
(PID.TID 0000.0001)     36 llln.........................................qqqp....................kllllkjiiii.lihijkkkkllln
(PID.TID 0000.0001)     35 mmmm.................................pppp..ppppqqq...srrrr...........lll....kihhhhhhijjkklmmmm
(PID.TID 0000.0001)     34 .....................................qppp.qqpppqqq.qqqpqqrs..................jjihhhiijkllo....
(PID.TID 0000.0001)     33 m.....................................qqppppppppqqqqqqqqqrrst.................ljijjjklmmmmm...
(PID.TID 0000.0001)     32 o.....................................qqppppqqqqrqrrrqrrrssss................gllkllmmnnnnmo...
(PID.TID 0000.0001)     31 ......................................pqqqqqqrrrsrrsrsssstttt..............lmmnmmnnnnnnnmm....
(PID.TID 0000.0001)     30 .....................................qrssssssssstttttttttuutt............knnopppppppooonnn....
(PID.TID 0000.0001)     29 ...................................tuuvvvvvvvvuuuuuuuuuuuuuuts...........npqrrrrqqqppooono....
(PID.TID 0000.0001)     28 .................................uvwxyyyxxxxxwwwwvvvvvvvvvuuutt.........qrrrrrrrqqqqppoooo....
(PID.TID 0000.0001)     27 ................ss..............xxyyyyyyyyyyyxxxwwwwwwvvvvvuuuts...ssrr.rsssrrrqqqqppooo......
(PID.TID 0000.0001)     26 ................sss...........zyyyzzzzzyyyyyyyxxxwwwwwwwvvvuuutttt.ssstttttsssrrqqqpppoo......
(PID.TID 0000.0001)     25 ................sstt...uuu...zyyyzzzzzzyzzzyyyxxxxwwwwwwwvvvuuuuuuu...ttttttsssrqqqqppoo......
(PID.TID 0000.0001)     24 ..............ttttttu.vvuu...zyy.+zyyyyyyyyyxxxwwwwwwwvvvvuuuuuuuuuuuu.ttstsssrrqqqqpppo......
(PID.TID 0000.0001)     23 ..............ttttuuu.vuvu...zzy..yxxwwwwxxxxwwwwwwwwwvvvvuuuuuuuuuuuuu....srrrrqqqqpppp......
(PID.TID 0000.0001)     22 qqq...........ttttttuvvuuu...zz.yyyxxwwwwwxxxxwwwwwwwwwwwwvvvvvuuuuuuuuu......srrrrqqqqqqqqqq.
(PID.TID 0000.0001)     21 qqqqq........uuuutttuuuuvvv.....yyyyxxxxxxxxxxxxxxxxxwwwwwwwvvvvvuuuuuuu........rrrrrrrrrrqqqq
(PID.TID 0000.0001)     20 qqqqq.......vuuuuuutuuuuvvv......x.yyzzyyyyyxxxxxxxxxwwwwwvvvvvuuuuutttt.........rrrrrrrrqqqqq
(PID.TID 0000.0001)     19 ppppq.......vuuuttttuuuuuuuuu...wxx.....yyyyxxxxxxwwwwwwvvvvuuuuuttttttt...........srqqqqppppp
(PID.TID 0000.0001)     18 ppppp.......vvvuuttuuuuuuuuuuuvvwxx...yyyyxxxxxxxxxxxwwwvvvvvuuuuttttttts..........srqqqpppppp
(PID.TID 0000.0001)     17 ppoop.......w.xvvuvvvvvvvuuvuuvvv.....yyyxxxxxxxxxxxxxxwwwwwvvvvuutttttts.........tssrqqppppoo
(PID.TID 0000.0001)     16 qpppo......xw.xwwwwvwvvvvuuuuuvv.......yxxxxxxxxxxxxxxxxxwwwwwwvvuuuuuttss........ssssrrqqqppp
(PID.TID 0000.0001)     15 rqqppo....xxv.wwwwwvwvuvvuutttu.........xxwxxxxxxxxxxxxxxxxxxwwwwvvuuuutsss......sstsssssrrqqp
(PID.TID 0000.0001)     14 rrrqpo....wwvuvvvvvvvvttuuttsss.........wwwwwwwwwwwwwwwwxxxxxxxwwvvvvuuttss.....rsstssttssrrrq
(PID.TID 0000.0001)     13 ssrqqo....vwwvvvuuuuutttuutssrr.........vwwwvvvvvvvvvvvvwwwwwxxwwwvvvuuttss....qrsssssttttssrq
(PID.TID 0000.0001)     12 ssrrqqpnrsvwvvvvvuuttttuuttsssrrrrrr....uuuuuttuuuttuuuuuuuvvvvvvwvuuuutsr.....qrrsssssstsssrr
(PID.TID 0000.0001)     11 rrqqppqrsttvvuuuutttttsstsssrrrrrrrrr..sttttt.sttttsttuuuuuuuuuuvvvuttttsr....oqqqqqqqrrrrrrqq
(PID.TID 0000.0001)     10 poooooooopqqqppqqqqppqqqqqqqqppqqqqrrr.rssttu.rrrsssttttuuutttttuuutssssss..qnoponnnnnoopppooo
(PID.TID 0000.0001)      9 lllllllkklmllkkkkllkklmnnnnnnnnnoppqrrqqrrrs.srqrrsssstttuuutsssttssrrrrrq.oonnnmkkjjjklllllll
(PID.TID 0000.0001)      8 ggghhhgggghhhhhhhhjhfhiijjjjjkkklmmnopoppqrstqpppqqqrrssssssrrrrrsrqqqqqru.onmlkjhgggggghggggh
(PID.TID 0000.0001)      7 ddcccccdeeeeeeeeefghfeeeeffffghhhiijjjijkmnoonnnnnnnnnnoopoooooopppooooppqqonnljhgeeddddddddcc
(PID.TID 0000.0001)      6 baa-aabbccccccccddeeedccddddeeefffeffeefghikkkkkjkjjjiiijjkklllllllllllllllkjihfedcccbcccbbaa-
(PID.TID 0000.0001)      5 aa--aaabbbbbbbbbccccccccbbbcccccccccdddddeefffgggfffeeddeefghhhhhiihhhhhhggedcbbbaaaaaaaaaaa--
(PID.TID 0000.0001)      4 aaaaaaaabbbbbcccccccccccccccccccccccbbbccccccccddcccccccdddeeeeeefffeeeeeeee..-aaaaaaaaaaaaaaa
(PID.TID 0000.0001)      3 aabbbbbbbbbb............................bbbbbbbccccbbcccccccccccdddddddddee..baaaaaaaaaaaaaabb
(PID.TID 0000.0001)      2 ............................................bbbbbcccccddddddccccdd..eddd.....aaaaaaaaaaaa.....
(PID.TID 0000.0001)      1 ..............................................................................................
(PID.TID 0000.0001)      0 kkkjkkk.mllllllllllll..................................................................klkkkkj
(PID.TID 0000.0001)     -1 kkjjjklllllllllm...ll.....................................................iiii........llkkkkjj
(PID.TID 0000.0001) // =======================================================
(PID.TID 0000.0001) // END OF FIELD                                          =
(PID.TID 0000.0001) // =======================================================
(PID.TID 0000.0001) 
(PID.TID 0000.0001)  MDS_WRITE_FIELD: it,rec,kS,kL,kH=      70     1  15   1  15 file=U.0000000070
(PID.TID 0000.0001)  MDS_WRITE_FIELD: it,rec,kS,kL,kH=      70     1  15   1  15 file=V.0000000070
(PID.TID 0000.0001)  MDS_WRITE_FIELD: it,rec,kS,kL,kH=      70     1  15   1  15 file=T.0000000070
(PID.TID 0000.0001)  MDS_WRITE_FIELD: it,rec,kS,kL,kH=      70     1  15   1  15 file=S.0000000070
(PID.TID 0000.0001)  MDS_WRITE_FIELD: it,rec,kS,kL,kH=      70     1   1   1   1 file=Eta.0000000070
(PID.TID 0000.0001)  MDS_WRITE_FIELD: it,rec,kS,kL,kH=      70     1  15   1  15 file=W.0000000070
(PID.TID 0000.0001)  MDS_WRITE_FIELD: it,rec,kS,kL,kH=      70     1  15   1  15 file=PH.0000000070
(PID.TID 0000.0001)  MDS_WRITE_FIELD: it,rec,kS,kL,kH=      70     1   1   1   1 file=PHL.0000000070
(PID.TID 0000.0001)  MDS_WRITE_FIELD: it,rec,kS,kL,kH=      70     1   1   1   1 file=ETAtave.0000000070
(PID.TID 0000.0001)  MDS_WRITE_FIELD: it,rec,kS,kL,kH=      70     1  15   1  15 file=Ttave.0000000070
(PID.TID 0000.0001)  MDS_WRITE_FIELD: it,rec,kS,kL,kH=      70     1  15   1  15 file=Stave.0000000070
(PID.TID 0000.0001)  MDS_WRITE_FIELD: it,rec,kS,kL,kH=      70     1  15   1  15 file=uVeltave.0000000070
(PID.TID 0000.0001)  MDS_WRITE_FIELD: it,rec,kS,kL,kH=      70     1  15   1  15 file=vVeltave.0000000070
(PID.TID 0000.0001)  MDS_WRITE_FIELD: it,rec,kS,kL,kH=      70     1  15   1  15 file=wVeltave.0000000070
(PID.TID 0000.0001)  MDS_WRITE_FIELD: it,rec,kS,kL,kH=      70     1   1   1   1 file=Eta2tave.0000000070
(PID.TID 0000.0001)  MDS_WRITE_FIELD: it,rec,kS,kL,kH=      70     1  15   1  15 file=UTtave.0000000070
(PID.TID 0000.0001)  MDS_WRITE_FIELD: it,rec,kS,kL,kH=      70     1  15   1  15 file=VTtave.0000000070
(PID.TID 0000.0001)  MDS_WRITE_FIELD: it,rec,kS,kL,kH=      70     1  15   1  15 file=WTtave.0000000070
(PID.TID 0000.0001)  MDS_WRITE_FIELD: it,rec,kS,kL,kH=      70     1  15   1  15 file=UStave.0000000070
(PID.TID 0000.0001)  MDS_WRITE_FIELD: it,rec,kS,kL,kH=      70     1  15   1  15 file=VStave.0000000070
(PID.TID 0000.0001)  MDS_WRITE_FIELD: it,rec,kS,kL,kH=      70     1  15   1  15 file=WStave.0000000070
(PID.TID 0000.0001)  MDS_WRITE_FIELD: it,rec,kS,kL,kH=      70     1  15   1  15 file=TTtave.0000000070
(PID.TID 0000.0001)  MDS_WRITE_FIELD: it,rec,kS,kL,kH=      70     1  15   1  15 file=UUtave.0000000070
(PID.TID 0000.0001)  MDS_WRITE_FIELD: it,rec,kS,kL,kH=      70     1  15   1  15 file=VVtave.0000000070
(PID.TID 0000.0001)  MDS_WRITE_FIELD: it,rec,kS,kL,kH=      70     1  15   1  15 file=UVtave.0000000070
(PID.TID 0000.0001)  MDS_WRITE_FIELD: it,rec,kS,kL,kH=      70     1  15   1  15 file=Tdiftave.0000000070
(PID.TID 0000.0001)  MDS_WRITE_FIELD: it,rec,kS,kL,kH=      70     1  15   1  15 file=PhHytave.0000000070
(PID.TID 0000.0001)  MDS_WRITE_FIELD: it,rec,kS,kL,kH=      70     1   1   1   1 file=PHLtave.0000000070
(PID.TID 0000.0001)  MDS_WRITE_FIELD: it,rec,kS,kL,kH=      70     1   1   1   1 file=uFluxtave.0000000070
(PID.TID 0000.0001)  MDS_WRITE_FIELD: it,rec,kS,kL,kH=      70     1   1   1   1 file=vFluxtave.0000000070
(PID.TID 0000.0001)  MDS_WRITE_FIELD: it,rec,kS,kL,kH=      70     1   1   1   1 file=tFluxtave.0000000070
(PID.TID 0000.0001)  MDS_WRITE_FIELD: it,rec,kS,kL,kH=      70     1   1   1   1 file=sFluxtave.0000000070
(PID.TID 0000.0001)  MDS_WRITE_FIELD: it,rec,kS,kL,kH=      70     1   1   1   1 file=PHL2tave.0000000070
(PID.TID 0000.0001)  MDS_WRITE_FIELD: it,rec,kS,kL,kH=      70     1  15   1  15 file=Convtave.0000000070
(PID.TID 0000.0001) // Time-average data written, t-step        70
(PID.TID 0000.0001) 
(PID.TID 0000.0001)  MDS_WRITE_FIELD: it,rec,kS,kL,kH=      70     1  15   1  15 file=GM_Kwx-T.0000000070
(PID.TID 0000.0001)  MDS_WRITE_FIELD: it,rec,kS,kL,kH=      70     1  15   1  15 file=GM_Kwy-T.0000000070
(PID.TID 0000.0001)  MDS_WRITE_FIELD: it,rec,kS,kL,kH=      70     1  15   1  15 file=GM_Kwz-T.0000000070
(PID.TID 0000.0001)  MDS_WRITE_FIELD: it,rec,kS,kL,kH=      70     1   1   1   1 file=ETAN_forecast.0000000070
(PID.TID 0000.0001)  MDS_WRITE_FIELD: it,rec,kS,kL,kH=      70     1  15   1  15 file=THETA_forecast.0000000070
(PID.TID 0000.0001)  MDS_WRITE_FIELD: it,rec,kS,kL,kH=      70     1  15   1  15 file=SALT_forecast.0000000070
(PID.TID 0000.0001)  MDS_WRITE_FIELD: it,rec,kS,kL,kH=      70     1  15   1  15 file=UVEL_forecast.0000000070
(PID.TID 0000.0001)  MDS_WRITE_FIELD: it,rec,kS,kL,kH=      70     1  15   1  15 file=VVEL_forecast.0000000070
(PID.TID 0000.0001)  MDS_WRITE_FIELD: it,rec,kS,kL,kH=      70     1   1   1   1 file=ETAN_001_forecast.0000000070
(PID.TID 0000.0001)  MDS_WRITE_FIELD: it,rec,kS,kL,kH=      70     1  15   1  15 file=THETA_001_forecast.0000000070
(PID.TID 0000.0001)  MDS_WRITE_FIELD: it,rec,kS,kL,kH=      70     1  15   1  15 file=SALT_001_forecast.0000000070
(PID.TID 0000.0001)  MDS_WRITE_FIELD: it,rec,kS,kL,kH=      70     1  15   1  15 file=UVEL_001_forecast.0000000070
(PID.TID 0000.0001)  MDS_WRITE_FIELD: it,rec,kS,kL,kH=      70     1  15   1  15 file=VVEL_001_forecast.0000000070
(PID.TID 0000.0001)  MDS_WRITE_FIELD: it,rec,kS,kL,kH=      70     1   1   1   1 file=ETAN_002_forecast.0000000070
(PID.TID 0000.0001)  MDS_WRITE_FIELD: it,rec,kS,kL,kH=      70     1  15   1  15 file=THETA_002_forecast.0000000070
(PID.TID 0000.0001)  MDS_WRITE_FIELD: it,rec,kS,kL,kH=      70     1  15   1  15 file=SALT_002_forecast.0000000070
(PID.TID 0000.0001)  MDS_WRITE_FIELD: it,rec,kS,kL,kH=      70     1  15   1  15 file=UVEL_002_forecast.0000000070
(PID.TID 0000.0001)  MDS_WRITE_FIELD: it,rec,kS,kL,kH=      70     1  15   1  15 file=VVEL_002_forecast.0000000070
(PID.TID 0000.0001)  MDS_WRITE_FIELD: it,rec,kS,kL,kH=      70     1   1   1   1 file=ETAN_003_forecast.0000000070
(PID.TID 0000.0001)  MDS_WRITE_FIELD: it,rec,kS,kL,kH=      70     1  15   1  15 file=THETA_003_forecast.0000000070
(PID.TID 0000.0001)  MDS_WRITE_FIELD: it,rec,kS,kL,kH=      70     1  15   1  15 file=SALT_003_forecast.0000000070
(PID.TID 0000.0001)  MDS_WRITE_FIELD: it,rec,kS,kL,kH=      70     1  15   1  15 file=UVEL_003_forecast.0000000070
(PID.TID 0000.0001)  MDS_WRITE_FIELD: it,rec,kS,kL,kH=      70     1  15   1  15 file=VVEL_003_forecast.0000000070
(PID.TID 0000.0001)  MDS_WRITE_FIELD: it,rec,kS,kL,kH=      70     1   1   1   1 file=ETAN_004_forecast.0000000070
(PID.TID 0000.0001)  MDS_WRITE_FIELD: it,rec,kS,kL,kH=      70     1  15   1  15 file=THETA_004_forecast.0000000070
(PID.TID 0000.0001)  MDS_WRITE_FIELD: it,rec,kS,kL,kH=      70     1  15   1  15 file=SALT_004_forecast.0000000070
(PID.TID 0000.0001)  MDS_WRITE_FIELD: it,rec,kS,kL,kH=      70     1  15   1  15 file=UVEL_004_forecast.0000000070
(PID.TID 0000.0001)  MDS_WRITE_FIELD: it,rec,kS,kL,kH=      70     1  15   1  15 file=VVEL_004_forecast.0000000070
(PID.TID 0000.0001)  MDS_WRITE_FIELD: it,rec,kS,kL,kH=      70     1   1   1   1 file=ETAN_analysis.0000000070
(PID.TID 0000.0001)  MDS_WRITE_FIELD: it,rec,kS,kL,kH=      70     1  15   1  15 file=THETA_analysis.0000000070
(PID.TID 0000.0001)  MDS_WRITE_FIELD: it,rec,kS,kL,kH=      70     1  15   1  15 file=SALT_analysis.0000000070
(PID.TID 0000.0001)  MDS_WRITE_FIELD: it,rec,kS,kL,kH=      70     1  15   1  15 file=UVEL_analysis.0000000070
(PID.TID 0000.0001)  MDS_WRITE_FIELD: it,rec,kS,kL,kH=      70     1  15   1  15 file=VVEL_analysis.0000000070
(PID.TID 0000.0001)  MDS_WRITE_FIELD: it,rec,kS,kL,kH=      70     1   1   1   1 file=ETAN_001_analysis.0000000070
(PID.TID 0000.0001)  MDS_WRITE_FIELD: it,rec,kS,kL,kH=      70     1  15   1  15 file=THETA_001_analysis.0000000070
(PID.TID 0000.0001)  MDS_WRITE_FIELD: it,rec,kS,kL,kH=      70     1  15   1  15 file=SALT_001_analysis.0000000070
(PID.TID 0000.0001)  MDS_WRITE_FIELD: it,rec,kS,kL,kH=      70     1  15   1  15 file=UVEL_001_analysis.0000000070
(PID.TID 0000.0001)  MDS_WRITE_FIELD: it,rec,kS,kL,kH=      70     1  15   1  15 file=VVEL_001_analysis.0000000070
(PID.TID 0000.0001)  MDS_WRITE_FIELD: it,rec,kS,kL,kH=      70     1   1   1   1 file=ETAN_002_analysis.0000000070
(PID.TID 0000.0001)  MDS_WRITE_FIELD: it,rec,kS,kL,kH=      70     1  15   1  15 file=THETA_002_analysis.0000000070
(PID.TID 0000.0001)  MDS_WRITE_FIELD: it,rec,kS,kL,kH=      70     1  15   1  15 file=SALT_002_analysis.0000000070
(PID.TID 0000.0001)  MDS_WRITE_FIELD: it,rec,kS,kL,kH=      70     1  15   1  15 file=UVEL_002_analysis.0000000070
(PID.TID 0000.0001)  MDS_WRITE_FIELD: it,rec,kS,kL,kH=      70     1  15   1  15 file=VVEL_002_analysis.0000000070
(PID.TID 0000.0001)  MDS_WRITE_FIELD: it,rec,kS,kL,kH=      70     1   1   1   1 file=ETAN_003_analysis.0000000070
(PID.TID 0000.0001)  MDS_WRITE_FIELD: it,rec,kS,kL,kH=      70     1  15   1  15 file=THETA_003_analysis.0000000070
(PID.TID 0000.0001)  MDS_WRITE_FIELD: it,rec,kS,kL,kH=      70     1  15   1  15 file=SALT_003_analysis.0000000070
(PID.TID 0000.0001)  MDS_WRITE_FIELD: it,rec,kS,kL,kH=      70     1  15   1  15 file=UVEL_003_analysis.0000000070
(PID.TID 0000.0001)  MDS_WRITE_FIELD: it,rec,kS,kL,kH=      70     1  15   1  15 file=VVEL_003_analysis.0000000070
(PID.TID 0000.0001)  MDS_WRITE_FIELD: it,rec,kS,kL,kH=      70     1   1   1   1 file=ETAN_004_analysis.0000000070
(PID.TID 0000.0001)  MDS_WRITE_FIELD: it,rec,kS,kL,kH=      70     1  15   1  15 file=THETA_004_analysis.0000000070
(PID.TID 0000.0001)  MDS_WRITE_FIELD: it,rec,kS,kL,kH=      70     1  15   1  15 file=SALT_004_analysis.0000000070
(PID.TID 0000.0001)  MDS_WRITE_FIELD: it,rec,kS,kL,kH=      70     1  15   1  15 file=UVEL_004_analysis.0000000070
(PID.TID 0000.0001)  MDS_WRITE_FIELD: it,rec,kS,kL,kH=      70     1  15   1  15 file=VVEL_004_analysis.0000000070
 EXTERNAL_FIELDS_LOAD,        70 : iP,iLd,i0,i1=    2    3    2    3 ; Wght=  0.1666666667  0.8333333333
 EXTERNAL_FIELDS_LOAD: (fu0,1),fu,fv= -1.4435E-02 -2.7199E-02 -2.5072E-02 -3.4210E-03
 EXTERNAL_FIELDS_LOAD: SST,SSS,Q,E-P= -2.4190E-01  3.4553E+01  2.1958E+02  8.9635E-06
DEBUG_STATS_RL:          Uvel (THERMODYNAMICS)  min= -1.21907867315407E-01
DEBUG_STATS_RL:          Uvel (THERMODYNAMICS)  max=  1.42105114911606E-01
DEBUG_STATS_RL:          Uvel (THERMODYNAMICS) mean=  5.69507160947520E-03
DEBUG_STATS_RL:          Uvel (THERMODYNAMICS) S.D.=  2.15038298988298E-02
DEBUG_STATS_RL:          Vvel (THERMODYNAMICS)  min= -8.59393968547085E-02
DEBUG_STATS_RL:          Vvel (THERMODYNAMICS)  max=  1.41482281337403E-01
DEBUG_STATS_RL:          Vvel (THERMODYNAMICS) mean=  6.37137694017229E-04
DEBUG_STATS_RL:          Vvel (THERMODYNAMICS) S.D.=  1.34302797867559E-02
DEBUG_STATS_RL:          Wvel (THERMODYNAMICS)  min= -7.51691207888804E-05
DEBUG_STATS_RL:          Wvel (THERMODYNAMICS)  max=  1.43393173511092E-04
DEBUG_STATS_RL:          Wvel (THERMODYNAMICS) mean= -9.20223267334538E-08
DEBUG_STATS_RL:          Wvel (THERMODYNAMICS) S.D.=  9.01626795267177E-06
DEBUG_STATS_RL:         Theta (THERMODYNAMICS)  min= -1.94072951373013E+00
DEBUG_STATS_RL:         Theta (THERMODYNAMICS)  max=  3.00308806187874E+01
DEBUG_STATS_RL:         Theta (THERMODYNAMICS) mean=  3.21131011955206E+00
DEBUG_STATS_RL:         Theta (THERMODYNAMICS) S.D.=  5.86914923061558E+00
DEBUG_STATS_RL:          Salt (THERMODYNAMICS)  min= -6.86339798922060E-04
DEBUG_STATS_RL:          Salt (THERMODYNAMICS)  max=  3.74527765035017E+01
DEBUG_STATS_RL:          Salt (THERMODYNAMICS) mean=  1.88440307381683E+01
DEBUG_STATS_RL:          Salt (THERMODYNAMICS) S.D.=  1.73002543826118E+01
DEBUG_STATS_RL:         GtNm1 (THERMODYNAMICS)  min= -2.89113980884763E-06
DEBUG_STATS_RL:         GtNm1 (THERMODYNAMICS)  max=  2.65375476844075E-06
DEBUG_STATS_RL:         GtNm1 (THERMODYNAMICS) mean=  2.08700772637729E-09
DEBUG_STATS_RL:         GtNm1 (THERMODYNAMICS) S.D.=  1.37975687519082E-07
DEBUG_STATS_RL:         GsNm1 (THERMODYNAMICS)  min= -3.24924753451120E-07
DEBUG_STATS_RL:         GsNm1 (THERMODYNAMICS)  max=  4.32236800576091E-07
DEBUG_STATS_RL:         GsNm1 (THERMODYNAMICS) mean= -7.52176595985683E-11
DEBUG_STATS_RL:         GsNm1 (THERMODYNAMICS) S.D.=  1.37416014368916E-08
DEBUG_STATS_RL:                EtaN (DYNAMICS)  min= -1.87838415512587E+00
DEBUG_STATS_RL:                EtaN (DYNAMICS)  max=  8.13292515476537E-01
DEBUG_STATS_RL:                EtaN (DYNAMICS) mean= -1.78933682887082E-01
DEBUG_STATS_RL:                EtaN (DYNAMICS) S.D.=  7.02068639750915E-01
DEBUG_STATS_RL:                Uvel (DYNAMICS)  min= -1.21907867315407E-01
DEBUG_STATS_RL:                Uvel (DYNAMICS)  max=  1.42105114911606E-01
DEBUG_STATS_RL:                Uvel (DYNAMICS) mean=  5.69507160947520E-03
DEBUG_STATS_RL:                Uvel (DYNAMICS) S.D.=  2.15038298988298E-02
DEBUG_STATS_RL:                Vvel (DYNAMICS)  min= -8.59393968547085E-02
DEBUG_STATS_RL:                Vvel (DYNAMICS)  max=  1.41482281337403E-01
DEBUG_STATS_RL:                Vvel (DYNAMICS) mean=  6.37137694017229E-04
DEBUG_STATS_RL:                Vvel (DYNAMICS) S.D.=  1.34302797867559E-02
DEBUG_STATS_RL:                Wvel (DYNAMICS)  min= -7.51691207888804E-05
DEBUG_STATS_RL:                Wvel (DYNAMICS)  max=  1.43393173511092E-04
DEBUG_STATS_RL:                Wvel (DYNAMICS) mean= -9.20223267334538E-08
DEBUG_STATS_RL:                Wvel (DYNAMICS) S.D.=  9.01626795267177E-06
DEBUG_STATS_RL:               Theta (DYNAMICS)  min= -1.94072951373013E+00
DEBUG_STATS_RL:               Theta (DYNAMICS)  max=  3.00308806187874E+01
DEBUG_STATS_RL:               Theta (DYNAMICS) mean=  3.21131011955206E+00
DEBUG_STATS_RL:               Theta (DYNAMICS) S.D.=  5.86914923061558E+00
DEBUG_STATS_RL:                Salt (DYNAMICS)  min= -6.86339798922060E-04
DEBUG_STATS_RL:                Salt (DYNAMICS)  max=  3.74527765035017E+01
DEBUG_STATS_RL:                Salt (DYNAMICS) mean=  1.88440307381683E+01
DEBUG_STATS_RL:                Salt (DYNAMICS) S.D.=  1.73002543826118E+01
DEBUG_STATS_RL:                  Gu (DYNAMICS)  min= -1.21630101996508E-01
DEBUG_STATS_RL:                  Gu (DYNAMICS)  max=  1.42016293817472E-01
DEBUG_STATS_RL:                  Gu (DYNAMICS) mean=  5.70077768931976E-03
DEBUG_STATS_RL:                  Gu (DYNAMICS) S.D.=  2.20767701881603E-02
DEBUG_STATS_RL:                  Gv (DYNAMICS)  min= -9.17897229495790E-02
DEBUG_STATS_RL:                  Gv (DYNAMICS)  max=  1.41919252812551E-01
DEBUG_STATS_RL:                  Gv (DYNAMICS) mean=  3.30198743606107E-03
DEBUG_STATS_RL:                  Gv (DYNAMICS) S.D.=  1.45219556110333E-02
DEBUG_STATS_RL:               GuNm1 (DYNAMICS)  min= -9.75617764471860E-06
DEBUG_STATS_RL:               GuNm1 (DYNAMICS)  max=  9.28156493085903E-06
DEBUG_STATS_RL:               GuNm1 (DYNAMICS) mean=  4.35649198708192E-09
DEBUG_STATS_RL:               GuNm1 (DYNAMICS) S.D.=  1.20057816102585E-06
DEBUG_STATS_RL:               GvNm1 (DYNAMICS)  min= -9.93902449839685E-06
DEBUG_STATS_RL:               GvNm1 (DYNAMICS)  max=  1.55967232069039E-05
DEBUG_STATS_RL:               GvNm1 (DYNAMICS) mean=  7.38856761273861E-07
DEBUG_STATS_RL:               GvNm1 (DYNAMICS) S.D.=  2.61907782771289E-06
DEBUG_STATS_RL:               GtNm1 (DYNAMICS)  min= -2.89113980884763E-06
DEBUG_STATS_RL:               GtNm1 (DYNAMICS)  max=  2.65375476844075E-06
DEBUG_STATS_RL:               GtNm1 (DYNAMICS) mean=  2.08700772637729E-09
DEBUG_STATS_RL:               GtNm1 (DYNAMICS) S.D.=  1.37975687519082E-07
DEBUG_STATS_RL:               GsNm1 (DYNAMICS)  min= -3.24924753451120E-07
DEBUG_STATS_RL:               GsNm1 (DYNAMICS)  max=  4.32236800576091E-07
DEBUG_STATS_RL:               GsNm1 (DYNAMICS) mean= -7.52176595985683E-11
DEBUG_STATS_RL:               GsNm1 (DYNAMICS) S.D.=  1.37416014368916E-08
DEBUG_STATS_RL:    cg2d_b (SOLVE_FOR_PRESSURE)  min= -2.01269224307906E+04
DEBUG_STATS_RL:    cg2d_b (SOLVE_FOR_PRESSURE)  max=  2.26415909674047E+04
DEBUG_STATS_RL:    cg2d_b (SOLVE_FOR_PRESSURE) mean=  4.87789501335371E+00
DEBUG_STATS_RL:    cg2d_b (SOLVE_FOR_PRESSURE) S.D.=  3.89914820986931E+03
 cg2d: Sum(rhs),rhsMax =   4.98742644550419E-01  1.48716031591695E+00
(PID.TID 0000.0001)  cg2d: iter=     1 ; resid.=  1.00058337308263E+00
(PID.TID 0000.0001)  cg2d: iter=     2 ; resid.=  9.07671553983653E-01
(PID.TID 0000.0001)  cg2d: iter=     3 ; resid.=  8.42875911690759E-01
(PID.TID 0000.0001)  cg2d: iter=     4 ; resid.=  7.69589689782948E-01
(PID.TID 0000.0001)  cg2d: iter=     5 ; resid.=  7.60913720276421E-01
(PID.TID 0000.0001)  cg2d: iter=     6 ; resid.=  6.83187115480403E-01
(PID.TID 0000.0001)  cg2d: iter=     7 ; resid.=  5.38433232449096E-01
(PID.TID 0000.0001)  cg2d: iter=     8 ; resid.=  3.94189582186838E-01
(PID.TID 0000.0001)  cg2d: iter=     9 ; resid.=  2.99112829141712E-01
(PID.TID 0000.0001)  cg2d: iter=    10 ; resid.=  2.40016769431209E-01
(PID.TID 0000.0001)  cg2d: iter=    11 ; resid.=  2.08753420560410E-01
(PID.TID 0000.0001)  cg2d: iter=    12 ; resid.=  1.78365570267271E-01
(PID.TID 0000.0001)  cg2d: iter=    13 ; resid.=  1.58047910839708E-01
(PID.TID 0000.0001)  cg2d: iter=    14 ; resid.=  1.33048893247739E-01
(PID.TID 0000.0001)  cg2d: iter=    15 ; resid.=  1.11607062425784E-01
(PID.TID 0000.0001)  cg2d: iter=    16 ; resid.=  9.53857954743696E-02
(PID.TID 0000.0001)  cg2d: iter=    17 ; resid.=  7.81817965190384E-02
(PID.TID 0000.0001)  cg2d: iter=    18 ; resid.=  6.54665156595097E-02
(PID.TID 0000.0001)  cg2d: iter=    19 ; resid.=  4.93154564505912E-02
(PID.TID 0000.0001)  cg2d: iter=    20 ; resid.=  3.91546593668563E-02
(PID.TID 0000.0001)  cg2d: iter=    21 ; resid.=  3.46874616458299E-02
(PID.TID 0000.0001)  cg2d: iter=    22 ; resid.=  2.88026784696932E-02
(PID.TID 0000.0001)  cg2d: iter=    23 ; resid.=  2.37294880307429E-02
(PID.TID 0000.0001)  cg2d: iter=    24 ; resid.=  2.01232968034994E-02
(PID.TID 0000.0001)  cg2d: iter=    25 ; resid.=  1.64051085899500E-02
(PID.TID 0000.0001)  cg2d: iter=    26 ; resid.=  1.42086317199849E-02
(PID.TID 0000.0001)  cg2d: iter=    27 ; resid.=  1.15693220948373E-02
(PID.TID 0000.0001)  cg2d: iter=    28 ; resid.=  9.29089306108464E-03
(PID.TID 0000.0001)  cg2d: iter=    29 ; resid.=  7.29232901756720E-03
(PID.TID 0000.0001)  cg2d: iter=    30 ; resid.=  5.98085528238701E-03
(PID.TID 0000.0001)  cg2d: iter=    31 ; resid.=  4.77197035706160E-03
(PID.TID 0000.0001)  cg2d: iter=    32 ; resid.=  3.48848629659451E-03
(PID.TID 0000.0001)  cg2d: iter=    33 ; resid.=  2.62509245502543E-03
(PID.TID 0000.0001)  cg2d: iter=    34 ; resid.=  2.22221202863626E-03
(PID.TID 0000.0001)  cg2d: iter=    35 ; resid.=  1.81706162714334E-03
(PID.TID 0000.0001)  cg2d: iter=    36 ; resid.=  1.51155364783065E-03
(PID.TID 0000.0001)  cg2d: iter=    37 ; resid.=  1.28125787421431E-03
(PID.TID 0000.0001)  cg2d: iter=    38 ; resid.=  1.14915203632218E-03
(PID.TID 0000.0001)  cg2d: iter=    39 ; resid.=  1.00758687641085E-03
(PID.TID 0000.0001)  cg2d: iter=    40 ; resid.=  8.47709645483750E-04
(PID.TID 0000.0001)  cg2d: iter=    41 ; resid.=  6.98158440264249E-04
(PID.TID 0000.0001)  cg2d: iter=    42 ; resid.=  5.92364876632079E-04
(PID.TID 0000.0001)  cg2d: iter=    43 ; resid.=  4.58531176562286E-04
(PID.TID 0000.0001)  cg2d: iter=    44 ; resid.=  3.82500122476520E-04
(PID.TID 0000.0001)  cg2d: iter=    45 ; resid.=  3.28515998310201E-04
(PID.TID 0000.0001)  cg2d: iter=    46 ; resid.=  2.70316972431875E-04
(PID.TID 0000.0001)  cg2d: iter=    47 ; resid.=  2.22768570123185E-04
(PID.TID 0000.0001)  cg2d: iter=    48 ; resid.=  1.89767457986998E-04
(PID.TID 0000.0001)  cg2d: iter=    49 ; resid.=  1.56865591872112E-04
(PID.TID 0000.0001)  cg2d: iter=    50 ; resid.=  1.34901275449370E-04
(PID.TID 0000.0001)  cg2d: iter=    51 ; resid.=  1.17375632741436E-04
(PID.TID 0000.0001)  cg2d: iter=    52 ; resid.=  1.06605419811284E-04
(PID.TID 0000.0001)  cg2d: iter=    53 ; resid.=  9.64875629014907E-05
(PID.TID 0000.0001)  cg2d: iter=    54 ; resid.=  7.71503240712989E-05
(PID.TID 0000.0001)  cg2d: iter=    55 ; resid.=  6.36679234417174E-05
(PID.TID 0000.0001)  cg2d: iter=    56 ; resid.=  5.52053127624849E-05
(PID.TID 0000.0001)  cg2d: iter=    57 ; resid.=  4.50673710296745E-05
(PID.TID 0000.0001)  cg2d: iter=    58 ; resid.=  3.45589174644719E-05
(PID.TID 0000.0001)  cg2d: iter=    59 ; resid.=  2.89216337016690E-05
(PID.TID 0000.0001)  cg2d: iter=    60 ; resid.=  2.47063935233531E-05
(PID.TID 0000.0001)  cg2d: iter=    61 ; resid.=  2.13527837346125E-05
(PID.TID 0000.0001)  cg2d: iter=    62 ; resid.=  1.80191688612837E-05
(PID.TID 0000.0001)  cg2d: iter=    63 ; resid.=  1.53006027498994E-05
(PID.TID 0000.0001)  cg2d: iter=    64 ; resid.=  1.12059139351314E-05
(PID.TID 0000.0001)  cg2d: iter=    65 ; resid.=  8.64937294742036E-06
(PID.TID 0000.0001)  cg2d: iter=    66 ; resid.=  6.72319975431381E-06
(PID.TID 0000.0001)  cg2d: iter=    67 ; resid.=  5.53795656311129E-06
(PID.TID 0000.0001)  cg2d: iter=    68 ; resid.=  4.88021330137113E-06
(PID.TID 0000.0001)  cg2d: iter=    69 ; resid.=  4.28068690513119E-06
(PID.TID 0000.0001)  cg2d: iter=    70 ; resid.=  3.77566722516846E-06
(PID.TID 0000.0001)  cg2d: iter=    71 ; resid.=  3.24777728303216E-06
(PID.TID 0000.0001)  cg2d: iter=    72 ; resid.=  2.86948509103934E-06
(PID.TID 0000.0001)  cg2d: iter=    73 ; resid.=  2.51829064996270E-06
(PID.TID 0000.0001)  cg2d: iter=    74 ; resid.=  2.14028026475634E-06
(PID.TID 0000.0001)  cg2d: iter=    75 ; resid.=  1.62427725495601E-06
(PID.TID 0000.0001)  cg2d: iter=    76 ; resid.=  1.31377905235397E-06
(PID.TID 0000.0001)  cg2d: iter=    77 ; resid.=  1.10717376346251E-06
(PID.TID 0000.0001)  cg2d: iter=    78 ; resid.=  8.55521957481255E-07
(PID.TID 0000.0001)  cg2d: iter=    79 ; resid.=  6.31113351202208E-07
(PID.TID 0000.0001)  cg2d: iter=    80 ; resid.=  4.82598842931373E-07
(PID.TID 0000.0001)  cg2d: iter=    81 ; resid.=  3.80417777945907E-07
(PID.TID 0000.0001)  cg2d: iter=    82 ; resid.=  2.78306812525221E-07
(PID.TID 0000.0001)  cg2d: iter=    83 ; resid.=  2.20357433424321E-07
(PID.TID 0000.0001)  cg2d: iter=    84 ; resid.=  1.72057674305762E-07
(PID.TID 0000.0001)  cg2d: iter=    85 ; resid.=  1.34453991543390E-07
(PID.TID 0000.0001)  cg2d: iter=    86 ; resid.=  1.07422098905497E-07
(PID.TID 0000.0001)  cg2d: iter=    87 ; resid.=  8.50104563670893E-08
(PID.TID 0000.0001)  cg2d: iter=    88 ; resid.=  6.78779068555999E-08
(PID.TID 0000.0001)  cg2d: iter=    89 ; resid.=  5.29628749181901E-08
(PID.TID 0000.0001)  cg2d: iter=    90 ; resid.=  4.12124438739138E-08
(PID.TID 0000.0001)  cg2d: iter=    91 ; resid.=  2.96443771301099E-08
(PID.TID 0000.0001)  cg2d: iter=    92 ; resid.=  2.41431144009844E-08
(PID.TID 0000.0001)  cg2d: iter=    93 ; resid.=  2.03863534729252E-08
(PID.TID 0000.0001)  cg2d: iter=    94 ; resid.=  1.64153276473275E-08
(PID.TID 0000.0001)  cg2d: iter=    95 ; resid.=  1.32454834186824E-08
(PID.TID 0000.0001)  cg2d: iter=    96 ; resid.=  1.00855885992970E-08
(PID.TID 0000.0001)  cg2d: iter=    97 ; resid.=  8.43422906968417E-09
(PID.TID 0000.0001)  cg2d: iter=    98 ; resid.=  7.02695251052629E-09
(PID.TID 0000.0001)  cg2d: iter=    99 ; resid.=  6.49752049656617E-09
(PID.TID 0000.0001)  cg2d: iter=   100 ; resid.=  5.88446221410008E-09
(PID.TID 0000.0001)  cg2d: iter=   101 ; resid.=  4.56086008180243E-09
(PID.TID 0000.0001)  cg2d: iter=   102 ; resid.=  3.54422374890037E-09
(PID.TID 0000.0001)  cg2d: iter=   103 ; resid.=  2.69221896081198E-09
(PID.TID 0000.0001)  cg2d: iter=   104 ; resid.=  2.06638125272040E-09
(PID.TID 0000.0001)  cg2d: iter=   105 ; resid.=  1.59142718739065E-09
(PID.TID 0000.0001)  cg2d: iter=   106 ; resid.=  1.28230199280438E-09
(PID.TID 0000.0001)  cg2d: iter=   107 ; resid.=  9.43882916058724E-10
(PID.TID 0000.0001)  cg2d: iter=   108 ; resid.=  7.07407165016662E-10
(PID.TID 0000.0001)  cg2d: iter=   109 ; resid.=  5.38493650304778E-10
(PID.TID 0000.0001)  cg2d: iter=   110 ; resid.=  4.44480403689535E-10
(PID.TID 0000.0001)  cg2d: iter=   111 ; resid.=  3.67820293993233E-10
(PID.TID 0000.0001)  cg2d: iter=   112 ; resid.=  2.92944612621047E-10
(PID.TID 0000.0001)  cg2d: iter=   113 ; resid.=  2.20441667191692E-10
(PID.TID 0000.0001)  cg2d: iter=   114 ; resid.=  1.66913164360446E-10
(PID.TID 0000.0001)  cg2d: iter=   115 ; resid.=  1.26730943275427E-10
(PID.TID 0000.0001)  cg2d: iter=   116 ; resid.=  9.64012349043167E-11
(PID.TID 0000.0001)  cg2d: iter=   117 ; resid.=  7.60252827170856E-11
(PID.TID 0000.0001)  cg2d: iter=   118 ; resid.=  6.17754426237425E-11
(PID.TID 0000.0001)  cg2d: iter=   119 ; resid.=  4.47788811580537E-11
(PID.TID 0000.0001)  cg2d: iter=   120 ; resid.=  3.40853622846400E-11
(PID.TID 0000.0001)  cg2d: iter=   121 ; resid.=  2.44981248617003E-11
(PID.TID 0000.0001)  cg2d: iter=   122 ; resid.=  1.93420345366774E-11
(PID.TID 0000.0001)  cg2d: iter=   123 ; resid.=  1.37926956226399E-11
(PID.TID 0000.0001)  cg2d: iter=   124 ; resid.=  1.04154115186789E-11
(PID.TID 0000.0001)  cg2d: iter=   125 ; resid.=  8.17739677247847E-12
(PID.TID 0000.0001)  cg2d: iter=   126 ; resid.=  5.71422870769248E-12
(PID.TID 0000.0001)  cg2d: iter=   127 ; resid.=  4.30328668803841E-12
(PID.TID 0000.0001)  cg2d: iter=   128 ; resid.=  3.08691791107917E-12
(PID.TID 0000.0001)  cg2d: iter=   129 ; resid.=  2.29858801849244E-12
(PID.TID 0000.0001)  cg2d: iter=   130 ; resid.=  1.59636158728221E-12
(PID.TID 0000.0001)  cg2d: iter=   131 ; resid.=  1.20592583212039E-12
(PID.TID 0000.0001)  cg2d: iter=   132 ; resid.=  1.01217180675256E-12
(PID.TID 0000.0001)  cg2d: iter=   133 ; resid.=  8.69867047059239E-13
(PID.TID 0000.0001)  cg2d: iter=   134 ; resid.=  7.32042165899988E-13
(PID.TID 0000.0001)  cg2d: iter=   135 ; resid.=  5.22322746590413E-13
(PID.TID 0000.0001)  cg2d: iter=   136 ; resid.=  3.35176766398023E-13
(PID.TID 0000.0001)  cg2d: iter=   137 ; resid.=  2.29800372049312E-13
(PID.TID 0000.0001)  cg2d: iter=   138 ; resid.=  1.59263498710625E-13
(PID.TID 0000.0001)  cg2d: iter=   139 ; resid.=  1.22524853190805E-13
(PID.TID 0000.0001)  cg2d: iter=   140 ; resid.=  9.26502172994648E-14
DEBUG_STATS_RL:    cg2d_x (SOLVE_FOR_PRESSURE)  min= -1.84653590643499E+01
DEBUG_STATS_RL:    cg2d_x (SOLVE_FOR_PRESSURE)  max=  9.26372040169698E+00
DEBUG_STATS_RL:    cg2d_x (SOLVE_FOR_PRESSURE) mean= -1.81587073728435E+00
DEBUG_STATS_RL:    cg2d_x (SOLVE_FOR_PRESSURE) S.D.=  7.15360929667253E+00
(PID.TID 0000.0001)      cg2d_init_res =   1.25285919209448E+00
(PID.TID 0000.0001)      cg2d_iters(min,last) =      -1     140
(PID.TID 0000.0001)      cg2d_last_res =   9.26502172994648E-14
(PID.TID 0000.0001) // =======================================================
(PID.TID 0000.0001) // Begin MONITOR dynamic field statistics
(PID.TID 0000.0001) // =======================================================
(PID.TID 0000.0001) %MON time_tsnumber                =                    71
(PID.TID 0000.0001) %MON time_secondsf                =   6.1344000000000E+06
(PID.TID 0000.0001) %MON dynstat_eta_max              =   9.4431400628914E-01
(PID.TID 0000.0001) %MON dynstat_eta_min              =  -1.8822995988123E+00
(PID.TID 0000.0001) %MON dynstat_eta_mean             =  -5.0894786074210E-03
(PID.TID 0000.0001) %MON dynstat_eta_sd               =   6.3258720463786E-01
(PID.TID 0000.0001) %MON dynstat_eta_del2             =   2.4374159851697E-03
(PID.TID 0000.0001) %MON dynstat_uvel_max             =   1.4373484562482E-01
(PID.TID 0000.0001) %MON dynstat_uvel_min             =  -1.2127467455909E-01
(PID.TID 0000.0001) %MON dynstat_uvel_mean            =   2.0148312429556E-03
(PID.TID 0000.0001) %MON dynstat_uvel_sd              =   1.3305237683724E-02
(PID.TID 0000.0001) %MON dynstat_uvel_del2            =   8.2326017978884E-05
(PID.TID 0000.0001) %MON dynstat_vvel_max             =   1.4107606937281E-01
(PID.TID 0000.0001) %MON dynstat_vvel_min             =  -8.4246401393035E-02
(PID.TID 0000.0001) %MON dynstat_vvel_mean            =   1.2926976991149E-04
(PID.TID 0000.0001) %MON dynstat_vvel_sd              =   8.3596612483258E-03
(PID.TID 0000.0001) %MON dynstat_vvel_del2            =   7.2967005775399E-05
(PID.TID 0000.0001) %MON dynstat_wvel_max             =   1.2131922928115E-04
(PID.TID 0000.0001) %MON dynstat_wvel_min             =  -1.0082499558551E-04
(PID.TID 0000.0001) %MON dynstat_wvel_mean            =   1.8866226498278E-10
(PID.TID 0000.0001) %MON dynstat_wvel_sd              =   1.0436218719221E-05
(PID.TID 0000.0001) %MON dynstat_wvel_del2            =   1.0574590218513E-07
(PID.TID 0000.0001) %MON dynstat_theta_max            =   3.0030880618787E+01
(PID.TID 0000.0001) %MON dynstat_theta_min            =  -1.9407295137301E+00
(PID.TID 0000.0001) %MON dynstat_theta_mean           =   3.6214963576971E+00
(PID.TID 0000.0001) %MON dynstat_theta_sd             =   4.4214331908682E+00
(PID.TID 0000.0001) %MON dynstat_theta_del2           =   4.6977697637325E-03
(PID.TID 0000.0001) %MON dynstat_salt_max             =   3.7452776503502E+01
(PID.TID 0000.0001) %MON dynstat_salt_min             =   2.9863529559002E+01
(PID.TID 0000.0001) %MON dynstat_salt_mean            =   3.4717291389023E+01
(PID.TID 0000.0001) %MON dynstat_salt_sd              =   2.9623705890722E-01
(PID.TID 0000.0001) %MON dynstat_salt_del2            =   9.6041731464530E-04
(PID.TID 0000.0001) %MON dynstat_sst_max              =   3.0030880618787E+01
(PID.TID 0000.0001) %MON dynstat_sst_min              =  -1.9407295137301E+00
(PID.TID 0000.0001) %MON dynstat_sst_mean             =   1.8815561443935E+01
(PID.TID 0000.0001) %MON dynstat_sst_sd               =   9.2210968456303E+00
(PID.TID 0000.0001) %MON dynstat_sst_del2             =   2.3951575304906E-02
(PID.TID 0000.0001) %MON dynstat_sss_max              =   3.7396915485746E+01
(PID.TID 0000.0001) %MON dynstat_sss_min              =   2.9863529559002E+01
(PID.TID 0000.0001) %MON dynstat_sss_mean             =   3.4838529867972E+01
(PID.TID 0000.0001) %MON dynstat_sss_sd               =   9.8014743272784E-01
(PID.TID 0000.0001) %MON dynstat_sss_del2             =   7.5906173776827E-03
(PID.TID 0000.0001) %MON forcing_qnet_max             =   2.8849844868978E+02
(PID.TID 0000.0001) %MON forcing_qnet_min             =  -1.6535198720296E+02
(PID.TID 0000.0001) %MON forcing_qnet_mean            =  -8.3817634882777E+00
(PID.TID 0000.0001) %MON forcing_qnet_sd              =   4.9864795267644E+01
(PID.TID 0000.0001) %MON forcing_qnet_del2            =   8.5719679671987E-01
(PID.TID 0000.0001) %MON forcing_qsw_max              =   0.0000000000000E+00
(PID.TID 0000.0001) %MON forcing_qsw_min              =   0.0000000000000E+00
(PID.TID 0000.0001) %MON forcing_qsw_mean             =   0.0000000000000E+00
(PID.TID 0000.0001) %MON forcing_qsw_sd               =   0.0000000000000E+00
(PID.TID 0000.0001) %MON forcing_qsw_del2             =   0.0000000000000E+00
(PID.TID 0000.0001) %MON forcing_empmr_max            =   6.9137603494103E-05
(PID.TID 0000.0001) %MON forcing_empmr_min            =  -8.1268519617576E-05
(PID.TID 0000.0001) %MON forcing_empmr_mean           =   6.1616070805047E-07
(PID.TID 0000.0001) %MON forcing_empmr_sd             =   2.6421504912725E-05
(PID.TID 0000.0001) %MON forcing_empmr_del2           =   3.6086334081367E-07
(PID.TID 0000.0001) %MON forcing_fu_max               =   3.4784431755543E-01
(PID.TID 0000.0001) %MON forcing_fu_min               =  -3.5669582585494E-01
(PID.TID 0000.0001) %MON forcing_fu_mean              =   1.9985731353096E-02
(PID.TID 0000.0001) %MON forcing_fu_sd                =   9.9411775460539E-02
(PID.TID 0000.0001) %MON forcing_fu_del2              =   7.8843066227507E-04
(PID.TID 0000.0001) %MON forcing_fv_max               =   1.6417456045747E-01
(PID.TID 0000.0001) %MON forcing_fv_min               =  -1.8584267546733E-01
(PID.TID 0000.0001) %MON forcing_fv_mean              =  -7.4774336901972E-03
(PID.TID 0000.0001) %MON forcing_fv_sd                =   4.1978074219208E-02
(PID.TID 0000.0001) %MON forcing_fv_del2              =   4.8213719373275E-04
(PID.TID 0000.0001) %MON trAdv_CFL_u_max              =   4.6980342159153E-02
(PID.TID 0000.0001) %MON trAdv_CFL_v_max              =   2.7375725092334E-02
(PID.TID 0000.0001) %MON trAdv_CFL_w_max              =   3.1767103054765E-02
(PID.TID 0000.0001) %MON advcfl_uvel_max              =   4.7509486102643E-02
(PID.TID 0000.0001) %MON advcfl_vvel_max              =   2.7408817691007E-02
(PID.TID 0000.0001) %MON advcfl_wvel_max              =   2.9020198486608E-02
(PID.TID 0000.0001) %MON advcfl_W_hf_max              =   3.4824238183929E-02
(PID.TID 0000.0001) %MON pe_b_mean                    =   5.1209450715262E-04
(PID.TID 0000.0001) %MON ke_max                       =   1.1210696081440E-02
(PID.TID 0000.0001) %MON ke_mean                      =   1.1365288994888E-04
(PID.TID 0000.0001) %MON ke_vol                       =   1.3226782436723E+18
(PID.TID 0000.0001) %MON vort_r_min                   =  -3.0690189326988E-07
(PID.TID 0000.0001) %MON vort_r_max                   =   4.2307642895057E-07
(PID.TID 0000.0001) %MON vort_a_mean                  =  -2.5274807460031E-05
(PID.TID 0000.0001) %MON vort_a_sd                    =   7.3604583138487E-05
(PID.TID 0000.0001) %MON vort_p_mean                  =  -3.1845655878321E-05
(PID.TID 0000.0001) %MON vort_p_sd                    =   1.3162466885931E-04
(PID.TID 0000.0001) %MON surfExpan_theta_mean         =  -2.6116535845723E-07
(PID.TID 0000.0001) %MON surfExpan_salt_mean          =   9.1035348783624E-08
(PID.TID 0000.0001) // =======================================================
(PID.TID 0000.0001) // End MONITOR dynamic field statistics
(PID.TID 0000.0001) // =======================================================
 EXTERNAL_FIELDS_LOAD,        71 : iP,iLd,i0,i1=    2    3    2    3 ; Wght=  0.1333333333  0.8666666667
 EXTERNAL_FIELDS_LOAD: (fu0,1),fu,fv= -1.4435E-02 -2.7199E-02 -2.5497E-02 -2.8524E-03
 EXTERNAL_FIELDS_LOAD: SST,SSS,Q,E-P= -2.3030E-01  3.4558E+01  2.1874E+02  8.9870E-06
DEBUG_STATS_RL:          Uvel (THERMODYNAMICS)  min= -1.21274674559086E-01
DEBUG_STATS_RL:          Uvel (THERMODYNAMICS)  max=  1.43734845624823E-01
DEBUG_STATS_RL:          Uvel (THERMODYNAMICS) mean=  5.78423574498445E-03
DEBUG_STATS_RL:          Uvel (THERMODYNAMICS) S.D.=  2.17033049493685E-02
DEBUG_STATS_RL:          Vvel (THERMODYNAMICS)  min= -8.42464013930347E-02
DEBUG_STATS_RL:          Vvel (THERMODYNAMICS)  max=  1.41076069372814E-01
DEBUG_STATS_RL:          Vvel (THERMODYNAMICS) mean=  6.84683293427911E-04
DEBUG_STATS_RL:          Vvel (THERMODYNAMICS) S.D.=  1.33666016624219E-02
DEBUG_STATS_RL:          Wvel (THERMODYNAMICS)  min= -1.00824995585507E-04
DEBUG_STATS_RL:          Wvel (THERMODYNAMICS)  max=  1.21319229281154E-04
DEBUG_STATS_RL:          Wvel (THERMODYNAMICS) mean= -8.07782657126351E-08
DEBUG_STATS_RL:          Wvel (THERMODYNAMICS) S.D.=  9.26682184740401E-06
DEBUG_STATS_RL:         Theta (THERMODYNAMICS)  min= -1.94053707290571E+00
DEBUG_STATS_RL:         Theta (THERMODYNAMICS)  max=  3.00388663525218E+01
DEBUG_STATS_RL:         Theta (THERMODYNAMICS) mean=  3.21136154523181E+00
DEBUG_STATS_RL:         Theta (THERMODYNAMICS) S.D.=  5.86952217230963E+00
DEBUG_STATS_RL:          Salt (THERMODYNAMICS)  min= -6.86339798922060E-04
DEBUG_STATS_RL:          Salt (THERMODYNAMICS)  max=  3.74517678804542E+01
DEBUG_STATS_RL:          Salt (THERMODYNAMICS) mean=  1.88440338966302E+01
DEBUG_STATS_RL:          Salt (THERMODYNAMICS) S.D.=  1.73002576271780E+01
DEBUG_STATS_RL:         GtNm1 (THERMODYNAMICS)  min= -2.89165666769323E-06
DEBUG_STATS_RL:         GtNm1 (THERMODYNAMICS)  max=  1.96473978029293E-06
DEBUG_STATS_RL:         GtNm1 (THERMODYNAMICS) mean=  2.17355089825779E-09
DEBUG_STATS_RL:         GtNm1 (THERMODYNAMICS) S.D.=  1.37776797231532E-07
DEBUG_STATS_RL:         GsNm1 (THERMODYNAMICS)  min= -2.71469436645674E-07
DEBUG_STATS_RL:         GsNm1 (THERMODYNAMICS)  max=  2.12244756794789E-07
DEBUG_STATS_RL:         GsNm1 (THERMODYNAMICS) mean= -2.36845242251137E-11
DEBUG_STATS_RL:         GsNm1 (THERMODYNAMICS) S.D.=  1.33100418335361E-08
DEBUG_STATS_RL:                EtaN (DYNAMICS)  min= -1.88229959881227E+00
DEBUG_STATS_RL:                EtaN (DYNAMICS)  max=  9.44314006289137E-01
DEBUG_STATS_RL:                EtaN (DYNAMICS) mean= -1.85104050691575E-01
DEBUG_STATS_RL:                EtaN (DYNAMICS) S.D.=  7.29216034319322E-01
DEBUG_STATS_RL:                Uvel (DYNAMICS)  min= -1.21274674559086E-01
DEBUG_STATS_RL:                Uvel (DYNAMICS)  max=  1.43734845624823E-01
DEBUG_STATS_RL:                Uvel (DYNAMICS) mean=  5.78423574498445E-03
DEBUG_STATS_RL:                Uvel (DYNAMICS) S.D.=  2.17033049493685E-02
DEBUG_STATS_RL:                Vvel (DYNAMICS)  min= -8.42464013930347E-02
DEBUG_STATS_RL:                Vvel (DYNAMICS)  max=  1.41076069372814E-01
DEBUG_STATS_RL:                Vvel (DYNAMICS) mean=  6.84683293427911E-04
DEBUG_STATS_RL:                Vvel (DYNAMICS) S.D.=  1.33666016624219E-02
DEBUG_STATS_RL:                Wvel (DYNAMICS)  min= -1.00824995585507E-04
DEBUG_STATS_RL:                Wvel (DYNAMICS)  max=  1.21319229281154E-04
DEBUG_STATS_RL:                Wvel (DYNAMICS) mean= -8.07782657126351E-08
DEBUG_STATS_RL:                Wvel (DYNAMICS) S.D.=  9.26682184740401E-06
DEBUG_STATS_RL:               Theta (DYNAMICS)  min= -1.94053707290571E+00
DEBUG_STATS_RL:               Theta (DYNAMICS)  max=  3.00388663525218E+01
DEBUG_STATS_RL:               Theta (DYNAMICS) mean=  3.21136154523181E+00
DEBUG_STATS_RL:               Theta (DYNAMICS) S.D.=  5.86952217230963E+00
DEBUG_STATS_RL:                Salt (DYNAMICS)  min= -6.86339798922060E-04
DEBUG_STATS_RL:                Salt (DYNAMICS)  max=  3.74517678804542E+01
DEBUG_STATS_RL:                Salt (DYNAMICS) mean=  1.88440338966302E+01
DEBUG_STATS_RL:                Salt (DYNAMICS) S.D.=  1.73002576271780E+01
DEBUG_STATS_RL:                  Gu (DYNAMICS)  min= -1.20982023053202E-01
DEBUG_STATS_RL:                  Gu (DYNAMICS)  max=  1.43282880639067E-01
DEBUG_STATS_RL:                  Gu (DYNAMICS) mean=  5.77342248890124E-03
DEBUG_STATS_RL:                  Gu (DYNAMICS) S.D.=  2.22597358441563E-02
DEBUG_STATS_RL:                  Gv (DYNAMICS)  min= -9.06374847956684E-02
DEBUG_STATS_RL:                  Gv (DYNAMICS)  max=  1.41444899915749E-01
DEBUG_STATS_RL:                  Gv (DYNAMICS) mean=  3.34148903098743E-03
DEBUG_STATS_RL:                  Gv (DYNAMICS) S.D.=  1.45227898744876E-02
DEBUG_STATS_RL:               GuNm1 (DYNAMICS)  min= -9.81776257008476E-06
DEBUG_STATS_RL:               GuNm1 (DYNAMICS)  max=  9.27111693806562E-06
DEBUG_STATS_RL:               GuNm1 (DYNAMICS) mean=  4.67008928503196E-09
DEBUG_STATS_RL:               GuNm1 (DYNAMICS) S.D.=  1.20212780307206E-06
DEBUG_STATS_RL:               GvNm1 (DYNAMICS)  min= -9.91984389041932E-06
DEBUG_STATS_RL:               GvNm1 (DYNAMICS)  max=  1.55830487446364E-05
DEBUG_STATS_RL:               GvNm1 (DYNAMICS) mean=  7.39286456314839E-07
DEBUG_STATS_RL:               GvNm1 (DYNAMICS) S.D.=  2.61767503629904E-06
DEBUG_STATS_RL:               GtNm1 (DYNAMICS)  min= -2.89165666769323E-06
DEBUG_STATS_RL:               GtNm1 (DYNAMICS)  max=  1.96473978029293E-06
DEBUG_STATS_RL:               GtNm1 (DYNAMICS) mean=  2.17355089825779E-09
DEBUG_STATS_RL:               GtNm1 (DYNAMICS) S.D.=  1.37776797231532E-07
DEBUG_STATS_RL:               GsNm1 (DYNAMICS)  min= -2.71469436645674E-07
DEBUG_STATS_RL:               GsNm1 (DYNAMICS)  max=  2.12244756794789E-07
DEBUG_STATS_RL:               GsNm1 (DYNAMICS) mean= -2.36845242251137E-11
DEBUG_STATS_RL:               GsNm1 (DYNAMICS) S.D.=  1.33100418335361E-08
DEBUG_STATS_RL:    cg2d_b (SOLVE_FOR_PRESSURE)  min= -2.10921886729548E+04
DEBUG_STATS_RL:    cg2d_b (SOLVE_FOR_PRESSURE)  max=  2.30402758387575E+04
DEBUG_STATS_RL:    cg2d_b (SOLVE_FOR_PRESSURE) mean=  4.93360912031491E+00
DEBUG_STATS_RL:    cg2d_b (SOLVE_FOR_PRESSURE) S.D.=  3.89308297219786E+03
 cg2d: Sum(rhs),rhsMax =   4.95710433046081E-01  1.51334700571653E+00
(PID.TID 0000.0001)  cg2d: iter=     1 ; resid.=  1.33824015596439E-01
(PID.TID 0000.0001)  cg2d: iter=     2 ; resid.=  1.05269054166069E-01
(PID.TID 0000.0001)  cg2d: iter=     3 ; resid.=  1.04850682128239E-01
(PID.TID 0000.0001)  cg2d: iter=     4 ; resid.=  1.14616592704155E-01
(PID.TID 0000.0001)  cg2d: iter=     5 ; resid.=  9.66101420375074E-02
(PID.TID 0000.0001)  cg2d: iter=     6 ; resid.=  6.53908011714101E-02
(PID.TID 0000.0001)  cg2d: iter=     7 ; resid.=  5.56589867172184E-02
(PID.TID 0000.0001)  cg2d: iter=     8 ; resid.=  4.95102834163047E-02
(PID.TID 0000.0001)  cg2d: iter=     9 ; resid.=  4.79305252854201E-02
(PID.TID 0000.0001)  cg2d: iter=    10 ; resid.=  3.84398911171998E-02
(PID.TID 0000.0001)  cg2d: iter=    11 ; resid.=  2.88317768743540E-02
(PID.TID 0000.0001)  cg2d: iter=    12 ; resid.=  2.09632253316107E-02
(PID.TID 0000.0001)  cg2d: iter=    13 ; resid.=  1.53260368663429E-02
(PID.TID 0000.0001)  cg2d: iter=    14 ; resid.=  1.36031228509861E-02
(PID.TID 0000.0001)  cg2d: iter=    15 ; resid.=  1.29492384861226E-02
(PID.TID 0000.0001)  cg2d: iter=    16 ; resid.=  1.06221917905551E-02
(PID.TID 0000.0001)  cg2d: iter=    17 ; resid.=  8.81982643203840E-03
(PID.TID 0000.0001)  cg2d: iter=    18 ; resid.=  7.90857726749894E-03
(PID.TID 0000.0001)  cg2d: iter=    19 ; resid.=  6.38616890594809E-03
(PID.TID 0000.0001)  cg2d: iter=    20 ; resid.=  5.51782948904815E-03
(PID.TID 0000.0001)  cg2d: iter=    21 ; resid.=  4.52341521132554E-03
(PID.TID 0000.0001)  cg2d: iter=    22 ; resid.=  3.79136833955304E-03
(PID.TID 0000.0001)  cg2d: iter=    23 ; resid.=  3.39210122234843E-03
(PID.TID 0000.0001)  cg2d: iter=    24 ; resid.=  3.07668876843812E-03
(PID.TID 0000.0001)  cg2d: iter=    25 ; resid.=  2.69111597251104E-03
(PID.TID 0000.0001)  cg2d: iter=    26 ; resid.=  1.99207962893773E-03
(PID.TID 0000.0001)  cg2d: iter=    27 ; resid.=  1.57657446863095E-03
(PID.TID 0000.0001)  cg2d: iter=    28 ; resid.=  1.38466424361016E-03
(PID.TID 0000.0001)  cg2d: iter=    29 ; resid.=  1.17506901556950E-03
(PID.TID 0000.0001)  cg2d: iter=    30 ; resid.=  9.83758158082119E-04
(PID.TID 0000.0001)  cg2d: iter=    31 ; resid.=  8.24589288844691E-04
(PID.TID 0000.0001)  cg2d: iter=    32 ; resid.=  7.18210506248720E-04
(PID.TID 0000.0001)  cg2d: iter=    33 ; resid.=  6.01397308685079E-04
(PID.TID 0000.0001)  cg2d: iter=    34 ; resid.=  4.72699358821480E-04
(PID.TID 0000.0001)  cg2d: iter=    35 ; resid.=  3.71791782706842E-04
(PID.TID 0000.0001)  cg2d: iter=    36 ; resid.=  3.14038791325255E-04
(PID.TID 0000.0001)  cg2d: iter=    37 ; resid.=  2.92913687820786E-04
(PID.TID 0000.0001)  cg2d: iter=    38 ; resid.=  2.56454294303947E-04
(PID.TID 0000.0001)  cg2d: iter=    39 ; resid.=  2.20443148748426E-04
(PID.TID 0000.0001)  cg2d: iter=    40 ; resid.=  1.91583862679377E-04
(PID.TID 0000.0001)  cg2d: iter=    41 ; resid.=  1.45826199273300E-04
(PID.TID 0000.0001)  cg2d: iter=    42 ; resid.=  1.19798582997596E-04
(PID.TID 0000.0001)  cg2d: iter=    43 ; resid.=  1.01020595950556E-04
(PID.TID 0000.0001)  cg2d: iter=    44 ; resid.=  8.82500069607425E-05
(PID.TID 0000.0001)  cg2d: iter=    45 ; resid.=  7.46108538873722E-05
(PID.TID 0000.0001)  cg2d: iter=    46 ; resid.=  5.41037719093901E-05
(PID.TID 0000.0001)  cg2d: iter=    47 ; resid.=  4.09164434163162E-05
(PID.TID 0000.0001)  cg2d: iter=    48 ; resid.=  3.41042244881052E-05
(PID.TID 0000.0001)  cg2d: iter=    49 ; resid.=  2.72047991799573E-05
(PID.TID 0000.0001)  cg2d: iter=    50 ; resid.=  2.03439276817958E-05
(PID.TID 0000.0001)  cg2d: iter=    51 ; resid.=  1.67559187293886E-05
(PID.TID 0000.0001)  cg2d: iter=    52 ; resid.=  1.55121251554351E-05
(PID.TID 0000.0001)  cg2d: iter=    53 ; resid.=  1.61077082053775E-05
(PID.TID 0000.0001)  cg2d: iter=    54 ; resid.=  1.37234432365643E-05
(PID.TID 0000.0001)  cg2d: iter=    55 ; resid.=  1.06822236991858E-05
(PID.TID 0000.0001)  cg2d: iter=    56 ; resid.=  8.12850127927522E-06
(PID.TID 0000.0001)  cg2d: iter=    57 ; resid.=  6.56366085818558E-06
(PID.TID 0000.0001)  cg2d: iter=    58 ; resid.=  4.94582927165649E-06
(PID.TID 0000.0001)  cg2d: iter=    59 ; resid.=  3.40480829345214E-06
(PID.TID 0000.0001)  cg2d: iter=    60 ; resid.=  2.48584825282940E-06
(PID.TID 0000.0001)  cg2d: iter=    61 ; resid.=  1.95194966011663E-06
(PID.TID 0000.0001)  cg2d: iter=    62 ; resid.=  1.52496175589096E-06
(PID.TID 0000.0001)  cg2d: iter=    63 ; resid.=  1.21035421667025E-06
(PID.TID 0000.0001)  cg2d: iter=    64 ; resid.=  1.00714290515797E-06
(PID.TID 0000.0001)  cg2d: iter=    65 ; resid.=  8.47586899641466E-07
(PID.TID 0000.0001)  cg2d: iter=    66 ; resid.=  6.82266921187723E-07
(PID.TID 0000.0001)  cg2d: iter=    67 ; resid.=  5.13739206662705E-07
(PID.TID 0000.0001)  cg2d: iter=    68 ; resid.=  3.84153236398412E-07
(PID.TID 0000.0001)  cg2d: iter=    69 ; resid.=  3.23533167834752E-07
(PID.TID 0000.0001)  cg2d: iter=    70 ; resid.=  2.87013197687839E-07
(PID.TID 0000.0001)  cg2d: iter=    71 ; resid.=  2.46006440356994E-07
(PID.TID 0000.0001)  cg2d: iter=    72 ; resid.=  2.16797381042528E-07
(PID.TID 0000.0001)  cg2d: iter=    73 ; resid.=  2.03451254701774E-07
(PID.TID 0000.0001)  cg2d: iter=    74 ; resid.=  1.78811756812337E-07
(PID.TID 0000.0001)  cg2d: iter=    75 ; resid.=  1.39646169756051E-07
(PID.TID 0000.0001)  cg2d: iter=    76 ; resid.=  1.06361135926885E-07
(PID.TID 0000.0001)  cg2d: iter=    77 ; resid.=  9.49660101448428E-08
(PID.TID 0000.0001)  cg2d: iter=    78 ; resid.=  8.68871946639238E-08
(PID.TID 0000.0001)  cg2d: iter=    79 ; resid.=  7.39182435439763E-08
(PID.TID 0000.0001)  cg2d: iter=    80 ; resid.=  5.75382075237497E-08
(PID.TID 0000.0001)  cg2d: iter=    81 ; resid.=  4.35843570948595E-08
(PID.TID 0000.0001)  cg2d: iter=    82 ; resid.=  3.28134962658108E-08
(PID.TID 0000.0001)  cg2d: iter=    83 ; resid.=  2.63883995407039E-08
(PID.TID 0000.0001)  cg2d: iter=    84 ; resid.=  2.26724583283248E-08
(PID.TID 0000.0001)  cg2d: iter=    85 ; resid.=  1.76613202395406E-08
(PID.TID 0000.0001)  cg2d: iter=    86 ; resid.=  1.32236058798592E-08
(PID.TID 0000.0001)  cg2d: iter=    87 ; resid.=  1.00215988113038E-08
(PID.TID 0000.0001)  cg2d: iter=    88 ; resid.=  8.29158052487570E-09
(PID.TID 0000.0001)  cg2d: iter=    89 ; resid.=  6.51154452953691E-09
(PID.TID 0000.0001)  cg2d: iter=    90 ; resid.=  5.33670159559399E-09
(PID.TID 0000.0001)  cg2d: iter=    91 ; resid.=  4.57235116299142E-09
(PID.TID 0000.0001)  cg2d: iter=    92 ; resid.=  4.11346376524983E-09
(PID.TID 0000.0001)  cg2d: iter=    93 ; resid.=  3.63314416868578E-09
(PID.TID 0000.0001)  cg2d: iter=    94 ; resid.=  3.04107833437550E-09
(PID.TID 0000.0001)  cg2d: iter=    95 ; resid.=  2.44394096505336E-09
(PID.TID 0000.0001)  cg2d: iter=    96 ; resid.=  1.91729333489496E-09
(PID.TID 0000.0001)  cg2d: iter=    97 ; resid.=  1.43338127266342E-09
(PID.TID 0000.0001)  cg2d: iter=    98 ; resid.=  1.09439832127492E-09
(PID.TID 0000.0001)  cg2d: iter=    99 ; resid.=  8.26997019038510E-10
(PID.TID 0000.0001)  cg2d: iter=   100 ; resid.=  6.75458052908185E-10
(PID.TID 0000.0001)  cg2d: iter=   101 ; resid.=  5.42372856050243E-10
(PID.TID 0000.0001)  cg2d: iter=   102 ; resid.=  4.09993552937139E-10
(PID.TID 0000.0001)  cg2d: iter=   103 ; resid.=  3.12356422442234E-10
(PID.TID 0000.0001)  cg2d: iter=   104 ; resid.=  2.72559178449834E-10
(PID.TID 0000.0001)  cg2d: iter=   105 ; resid.=  2.38339589117232E-10
(PID.TID 0000.0001)  cg2d: iter=   106 ; resid.=  1.91865454459753E-10
(PID.TID 0000.0001)  cg2d: iter=   107 ; resid.=  1.40323619270729E-10
(PID.TID 0000.0001)  cg2d: iter=   108 ; resid.=  1.05868184578981E-10
(PID.TID 0000.0001)  cg2d: iter=   109 ; resid.=  7.78821874241755E-11
(PID.TID 0000.0001)  cg2d: iter=   110 ; resid.=  5.65544805933337E-11
(PID.TID 0000.0001)  cg2d: iter=   111 ; resid.=  4.75934594808858E-11
(PID.TID 0000.0001)  cg2d: iter=   112 ; resid.=  3.54806177250916E-11
(PID.TID 0000.0001)  cg2d: iter=   113 ; resid.=  2.56898153644074E-11
(PID.TID 0000.0001)  cg2d: iter=   114 ; resid.=  1.76708828835854E-11
(PID.TID 0000.0001)  cg2d: iter=   115 ; resid.=  1.21591910154724E-11
(PID.TID 0000.0001)  cg2d: iter=   116 ; resid.=  8.58886265475979E-12
(PID.TID 0000.0001)  cg2d: iter=   117 ; resid.=  6.35952543602782E-12
(PID.TID 0000.0001)  cg2d: iter=   118 ; resid.=  4.60477732262162E-12
(PID.TID 0000.0001)  cg2d: iter=   119 ; resid.=  3.41632922445253E-12
(PID.TID 0000.0001)  cg2d: iter=   120 ; resid.=  2.61623616693958E-12
(PID.TID 0000.0001)  cg2d: iter=   121 ; resid.=  2.17623157775428E-12
(PID.TID 0000.0001)  cg2d: iter=   122 ; resid.=  1.79816619569941E-12
(PID.TID 0000.0001)  cg2d: iter=   123 ; resid.=  1.36445091334312E-12
(PID.TID 0000.0001)  cg2d: iter=   124 ; resid.=  1.05383339605931E-12
(PID.TID 0000.0001)  cg2d: iter=   125 ; resid.=  7.89843591811233E-13
(PID.TID 0000.0001)  cg2d: iter=   126 ; resid.=  6.16594583930870E-13
(PID.TID 0000.0001)  cg2d: iter=   127 ; resid.=  4.73609141251487E-13
(PID.TID 0000.0001)  cg2d: iter=   128 ; resid.=  3.44027473707652E-13
(PID.TID 0000.0001)  cg2d: iter=   129 ; resid.=  2.57233131371580E-13
(PID.TID 0000.0001)  cg2d: iter=   130 ; resid.=  1.83586688128813E-13
(PID.TID 0000.0001)  cg2d: iter=   131 ; resid.=  1.30608297795739E-13
(PID.TID 0000.0001)  cg2d: iter=   132 ; resid.=  9.97132019839808E-14
DEBUG_STATS_RL:    cg2d_x (SOLVE_FOR_PRESSURE)  min= -1.87271730261366E+01
DEBUG_STATS_RL:    cg2d_x (SOLVE_FOR_PRESSURE)  max=  9.16038198815079E+00
DEBUG_STATS_RL:    cg2d_x (SOLVE_FOR_PRESSURE) mean= -1.79647465898433E+00
DEBUG_STATS_RL:    cg2d_x (SOLVE_FOR_PRESSURE) S.D.=  7.12847772118894E+00
(PID.TID 0000.0001)      cg2d_init_res =   3.52631291765406E-01
(PID.TID 0000.0001)      cg2d_iters(min,last) =      -1     132
(PID.TID 0000.0001)      cg2d_last_res =   9.97132019839808E-14
(PID.TID 0000.0001) // =======================================================
(PID.TID 0000.0001) // Begin MONITOR dynamic field statistics
(PID.TID 0000.0001) // =======================================================
(PID.TID 0000.0001) %MON time_tsnumber                =                    72
(PID.TID 0000.0001) %MON time_secondsf                =   6.2208000000000E+06
(PID.TID 0000.0001) %MON dynstat_eta_max              =   9.3378001917949E-01
(PID.TID 0000.0001) %MON dynstat_eta_min              =  -1.9089880760587E+00
(PID.TID 0000.0001) %MON dynstat_eta_mean             =  -5.1476093697136E-03
(PID.TID 0000.0001) %MON dynstat_eta_sd               =   6.2916526395401E-01
(PID.TID 0000.0001) %MON dynstat_eta_del2             =   2.4395115234952E-03
(PID.TID 0000.0001) %MON dynstat_uvel_max             =   1.4450306219944E-01
(PID.TID 0000.0001) %MON dynstat_uvel_min             =  -1.2059085580406E-01
(PID.TID 0000.0001) %MON dynstat_uvel_mean            =   2.0650312893068E-03
(PID.TID 0000.0001) %MON dynstat_uvel_sd              =   1.3415859547359E-02
(PID.TID 0000.0001) %MON dynstat_uvel_del2            =   8.2330053907947E-05
(PID.TID 0000.0001) %MON dynstat_vvel_max             =   1.4034163009521E-01
(PID.TID 0000.0001) %MON dynstat_vvel_min             =  -8.3004650485761E-02
(PID.TID 0000.0001) %MON dynstat_vvel_mean            =   9.8916552416180E-05
(PID.TID 0000.0001) %MON dynstat_vvel_sd              =   8.3156658197050E-03
(PID.TID 0000.0001) %MON dynstat_vvel_del2            =   7.3295478237451E-05
(PID.TID 0000.0001) %MON dynstat_wvel_max             =   1.2880625404207E-04
(PID.TID 0000.0001) %MON dynstat_wvel_min             =  -9.7898543647797E-05
(PID.TID 0000.0001) %MON dynstat_wvel_mean            =  -7.0748349368473E-11
(PID.TID 0000.0001) %MON dynstat_wvel_sd              =   1.0388508952305E-05
(PID.TID 0000.0001) %MON dynstat_wvel_del2            =   1.0465455310876E-07
(PID.TID 0000.0001) %MON dynstat_theta_max            =   3.0038866352522E+01
(PID.TID 0000.0001) %MON dynstat_theta_min            =  -1.9405370729057E+00
(PID.TID 0000.0001) %MON dynstat_theta_mean           =   3.6215285394297E+00
(PID.TID 0000.0001) %MON dynstat_theta_sd             =   4.4215942603875E+00
(PID.TID 0000.0001) %MON dynstat_theta_del2           =   4.6908271843159E-03
(PID.TID 0000.0001) %MON dynstat_salt_max             =   3.7451767880454E+01
(PID.TID 0000.0001) %MON dynstat_salt_min             =   2.9866279679179E+01
(PID.TID 0000.0001) %MON dynstat_salt_mean            =   3.4717290630704E+01
(PID.TID 0000.0001) %MON dynstat_salt_sd              =   2.9623592003425E-01
(PID.TID 0000.0001) %MON dynstat_salt_del2            =   9.6016852647802E-04
(PID.TID 0000.0001) %MON dynstat_sst_max              =   3.0038866352522E+01
(PID.TID 0000.0001) %MON dynstat_sst_min              =  -1.9405370729057E+00
(PID.TID 0000.0001) %MON dynstat_sst_mean             =   1.8816644207928E+01
(PID.TID 0000.0001) %MON dynstat_sst_sd               =   9.2276476756469E+00
(PID.TID 0000.0001) %MON dynstat_sst_del2             =   2.3907871229468E-02
(PID.TID 0000.0001) %MON dynstat_sss_max              =   3.7397734084603E+01
(PID.TID 0000.0001) %MON dynstat_sss_min              =   2.9866279679179E+01
(PID.TID 0000.0001) %MON dynstat_sss_mean             =   3.4838541514172E+01
(PID.TID 0000.0001) %MON dynstat_sss_sd               =   9.8035593559676E-01
(PID.TID 0000.0001) %MON dynstat_sss_del2             =   7.5915208926438E-03
(PID.TID 0000.0001) %MON forcing_qnet_max             =   2.8570029703776E+02
(PID.TID 0000.0001) %MON forcing_qnet_min             =  -1.6505270792643E+02
(PID.TID 0000.0001) %MON forcing_qnet_mean            =  -8.1584239886512E+00
(PID.TID 0000.0001) %MON forcing_qnet_sd              =   4.9087615346713E+01
(PID.TID 0000.0001) %MON forcing_qnet_del2            =   8.5584718826358E-01
(PID.TID 0000.0001) %MON forcing_qsw_max              =   0.0000000000000E+00
(PID.TID 0000.0001) %MON forcing_qsw_min              =   0.0000000000000E+00
(PID.TID 0000.0001) %MON forcing_qsw_mean             =   0.0000000000000E+00
(PID.TID 0000.0001) %MON forcing_qsw_sd               =   0.0000000000000E+00
(PID.TID 0000.0001) %MON forcing_qsw_del2             =   0.0000000000000E+00
(PID.TID 0000.0001) %MON forcing_empmr_max            =   6.9131847150553E-05
(PID.TID 0000.0001) %MON forcing_empmr_min            =  -8.1667699210660E-05
(PID.TID 0000.0001) %MON forcing_empmr_mean           =   6.0307077717612E-07
(PID.TID 0000.0001) %MON forcing_empmr_sd             =   2.6389948211674E-05
(PID.TID 0000.0001) %MON forcing_empmr_del2           =   3.6187086686805E-07
(PID.TID 0000.0001) %MON forcing_fu_max               =   3.4978573322296E-01
(PID.TID 0000.0001) %MON forcing_fu_min               =  -3.6306794484456E-01
(PID.TID 0000.0001) %MON forcing_fu_mean              =   2.0079930942554E-02
(PID.TID 0000.0001) %MON forcing_fu_sd                =   9.9921924992738E-02
(PID.TID 0000.0001) %MON forcing_fu_del2              =   7.9937861961633E-04
(PID.TID 0000.0001) %MON forcing_fv_max               =   1.6799971759319E-01
(PID.TID 0000.0001) %MON forcing_fv_min               =  -1.8734046618144E-01
(PID.TID 0000.0001) %MON forcing_fv_mean              =  -7.4878620401667E-03
(PID.TID 0000.0001) %MON forcing_fv_sd                =   4.2084455794319E-02
(PID.TID 0000.0001) %MON forcing_fv_del2              =   4.8631922143069E-04
(PID.TID 0000.0001) %MON trAdv_CFL_u_max              =   4.7519135619064E-02
(PID.TID 0000.0001) %MON trAdv_CFL_v_max              =   2.7297126224923E-02
(PID.TID 0000.0001) %MON trAdv_CFL_w_max              =   2.6876875409979E-02
(PID.TID 0000.0001) %MON advcfl_uvel_max              =   4.7763409043297E-02
(PID.TID 0000.0001) %MON advcfl_vvel_max              =   2.7266127918358E-02
(PID.TID 0000.0001) %MON advcfl_wvel_max              =   3.0490028354067E-02
(PID.TID 0000.0001) %MON advcfl_W_hf_max              =   3.5697770768129E-02
(PID.TID 0000.0001) %MON pe_b_mean                    =   5.0657032515039E-04
(PID.TID 0000.0001) %MON ke_max                       =   1.1248395047959E-02
(PID.TID 0000.0001) %MON ke_mean                      =   1.1475639326940E-04
(PID.TID 0000.0001) %MON ke_vol                       =   1.3226782436723E+18
(PID.TID 0000.0001) %MON vort_r_min                   =  -3.0293162398829E-07
(PID.TID 0000.0001) %MON vort_r_max                   =   4.2052075904781E-07
(PID.TID 0000.0001) %MON vort_a_mean                  =  -2.5274807179139E-05
(PID.TID 0000.0001) %MON vort_a_sd                    =   7.3604594878973E-05
(PID.TID 0000.0001) %MON vort_p_mean                  =  -3.1845655524404E-05
(PID.TID 0000.0001) %MON vort_p_sd                    =   1.3162466876476E-04
(PID.TID 0000.0001) %MON surfExpan_theta_mean         =  -2.4816483292363E-07
(PID.TID 0000.0001) %MON surfExpan_salt_mean          =   5.7777162723676E-08
(PID.TID 0000.0001) // =======================================================
(PID.TID 0000.0001) // End MONITOR dynamic field statistics
(PID.TID 0000.0001) // =======================================================
 EXTERNAL_FIELDS_LOAD,        72 : iP,iLd,i0,i1=    2    3    2    3 ; Wght=  0.1000000000  0.9000000000
 EXTERNAL_FIELDS_LOAD: (fu0,1),fu,fv= -1.4435E-02 -2.7199E-02 -2.5922E-02 -2.2838E-03
 EXTERNAL_FIELDS_LOAD: SST,SSS,Q,E-P= -2.1870E-01  3.4563E+01  2.1790E+02  9.0104E-06
DEBUG_STATS_RL:          Uvel (THERMODYNAMICS)  min= -1.20590855804056E-01
DEBUG_STATS_RL:          Uvel (THERMODYNAMICS)  max=  1.44503062199440E-01
DEBUG_STATS_RL:          Uvel (THERMODYNAMICS) mean=  5.86371481207235E-03
DEBUG_STATS_RL:          Uvel (THERMODYNAMICS) S.D.=  2.18778392861977E-02
DEBUG_STATS_RL:          Vvel (THERMODYNAMICS)  min= -8.30046504857607E-02
DEBUG_STATS_RL:          Vvel (THERMODYNAMICS)  max=  1.40341630095209E-01
DEBUG_STATS_RL:          Vvel (THERMODYNAMICS) mean=  7.02770890993883E-04
DEBUG_STATS_RL:          Vvel (THERMODYNAMICS) S.D.=  1.33236223774619E-02
DEBUG_STATS_RL:          Wvel (THERMODYNAMICS)  min= -9.78985436477974E-05
DEBUG_STATS_RL:          Wvel (THERMODYNAMICS)  max=  1.28806254042066E-04
DEBUG_STATS_RL:          Wvel (THERMODYNAMICS) mean= -6.81274786201856E-08
DEBUG_STATS_RL:          Wvel (THERMODYNAMICS) S.D.=  9.21463820496540E-06
DEBUG_STATS_RL:         Theta (THERMODYNAMICS)  min= -1.94369971216478E+00
DEBUG_STATS_RL:         Theta (THERMODYNAMICS)  max=  3.00456275699324E+01
DEBUG_STATS_RL:         Theta (THERMODYNAMICS) mean=  3.21139016083735E+00
DEBUG_STATS_RL:         Theta (THERMODYNAMICS) S.D.=  5.86990829788634E+00
DEBUG_STATS_RL:          Salt (THERMODYNAMICS)  min= -6.86339798922060E-04
DEBUG_STATS_RL:          Salt (THERMODYNAMICS)  max=  3.74507684992839E+01
DEBUG_STATS_RL:          Salt (THERMODYNAMICS) mean=  1.88440393804834E+01
DEBUG_STATS_RL:          Salt (THERMODYNAMICS) S.D.=  1.73002630519327E+01
DEBUG_STATS_RL:         GtNm1 (THERMODYNAMICS)  min= -2.84314241126117E-06
DEBUG_STATS_RL:         GtNm1 (THERMODYNAMICS)  max=  1.55667017036369E-06
DEBUG_STATS_RL:         GtNm1 (THERMODYNAMICS) mean=  1.88718175592143E-09
DEBUG_STATS_RL:         GtNm1 (THERMODYNAMICS) S.D.=  1.36975948965851E-07
DEBUG_STATS_RL:         GsNm1 (THERMODYNAMICS)  min= -2.84285236018919E-07
DEBUG_STATS_RL:         GsNm1 (THERMODYNAMICS)  max=  2.22883390247496E-07
DEBUG_STATS_RL:         GsNm1 (THERMODYNAMICS) mean=  2.47553300773417E-11
DEBUG_STATS_RL:         GsNm1 (THERMODYNAMICS) S.D.=  1.31961863215301E-08
DEBUG_STATS_RL:                EtaN (DYNAMICS)  min= -1.90898807605867E+00
DEBUG_STATS_RL:                EtaN (DYNAMICS)  max=  9.33780019179494E-01
DEBUG_STATS_RL:                EtaN (DYNAMICS) mean= -1.83126876552940E-01
DEBUG_STATS_RL:                EtaN (DYNAMICS) S.D.=  7.26654201956065E-01
DEBUG_STATS_RL:                Uvel (DYNAMICS)  min= -1.20590855804056E-01
DEBUG_STATS_RL:                Uvel (DYNAMICS)  max=  1.44503062199440E-01
DEBUG_STATS_RL:                Uvel (DYNAMICS) mean=  5.86371481207235E-03
DEBUG_STATS_RL:                Uvel (DYNAMICS) S.D.=  2.18778392861977E-02
DEBUG_STATS_RL:                Vvel (DYNAMICS)  min= -8.30046504857607E-02
DEBUG_STATS_RL:                Vvel (DYNAMICS)  max=  1.40341630095209E-01
DEBUG_STATS_RL:                Vvel (DYNAMICS) mean=  7.02770890993883E-04
DEBUG_STATS_RL:                Vvel (DYNAMICS) S.D.=  1.33236223774619E-02
DEBUG_STATS_RL:                Wvel (DYNAMICS)  min= -9.78985436477974E-05
DEBUG_STATS_RL:                Wvel (DYNAMICS)  max=  1.28806254042066E-04
DEBUG_STATS_RL:                Wvel (DYNAMICS) mean= -6.81274786201856E-08
DEBUG_STATS_RL:                Wvel (DYNAMICS) S.D.=  9.21463820496540E-06
DEBUG_STATS_RL:               Theta (DYNAMICS)  min= -1.94369971216478E+00
DEBUG_STATS_RL:               Theta (DYNAMICS)  max=  3.00456275699324E+01
DEBUG_STATS_RL:               Theta (DYNAMICS) mean=  3.21139016083735E+00
DEBUG_STATS_RL:               Theta (DYNAMICS) S.D.=  5.86990829788634E+00
DEBUG_STATS_RL:                Salt (DYNAMICS)  min= -6.86339798922060E-04
DEBUG_STATS_RL:                Salt (DYNAMICS)  max=  3.74507684992839E+01
DEBUG_STATS_RL:                Salt (DYNAMICS) mean=  1.88440393804834E+01
DEBUG_STATS_RL:                Salt (DYNAMICS) S.D.=  1.73002630519327E+01
DEBUG_STATS_RL:                  Gu (DYNAMICS)  min= -1.20285225481734E-01
DEBUG_STATS_RL:                  Gu (DYNAMICS)  max=  1.43591229071928E-01
DEBUG_STATS_RL:                  Gu (DYNAMICS) mean=  5.84009319649555E-03
DEBUG_STATS_RL:                  Gu (DYNAMICS) S.D.=  2.24203404289469E-02
DEBUG_STATS_RL:                  Gv (DYNAMICS)  min= -8.86572278297716E-02
DEBUG_STATS_RL:                  Gv (DYNAMICS)  max=  1.40645433778133E-01
DEBUG_STATS_RL:                  Gv (DYNAMICS) mean=  3.36793964155666E-03
DEBUG_STATS_RL:                  Gv (DYNAMICS) S.D.=  1.45414690460511E-02
DEBUG_STATS_RL:               GuNm1 (DYNAMICS)  min= -9.86184758665643E-06
DEBUG_STATS_RL:               GuNm1 (DYNAMICS)  max=  9.27750463642843E-06
DEBUG_STATS_RL:               GuNm1 (DYNAMICS) mean=  5.14385156910002E-09
DEBUG_STATS_RL:               GuNm1 (DYNAMICS) S.D.=  1.20395603580333E-06
DEBUG_STATS_RL:               GvNm1 (DYNAMICS)  min= -9.89155719073589E-06
DEBUG_STATS_RL:               GvNm1 (DYNAMICS)  max=  1.55700322151534E-05
DEBUG_STATS_RL:               GvNm1 (DYNAMICS) mean=  7.39907683278906E-07
DEBUG_STATS_RL:               GvNm1 (DYNAMICS) S.D.=  2.61589380748696E-06
DEBUG_STATS_RL:               GtNm1 (DYNAMICS)  min= -2.84314241126117E-06
DEBUG_STATS_RL:               GtNm1 (DYNAMICS)  max=  1.55667017036369E-06
DEBUG_STATS_RL:               GtNm1 (DYNAMICS) mean=  1.88718175592143E-09
DEBUG_STATS_RL:               GtNm1 (DYNAMICS) S.D.=  1.36975948965851E-07
DEBUG_STATS_RL:               GsNm1 (DYNAMICS)  min= -2.84285236018919E-07
DEBUG_STATS_RL:               GsNm1 (DYNAMICS)  max=  2.22883390247496E-07
DEBUG_STATS_RL:               GsNm1 (DYNAMICS) mean=  2.47553300773417E-11
DEBUG_STATS_RL:               GsNm1 (DYNAMICS) S.D.=  1.31961863215301E-08
DEBUG_STATS_RL:    cg2d_b (SOLVE_FOR_PRESSURE)  min= -2.13164411391321E+04
DEBUG_STATS_RL:    cg2d_b (SOLVE_FOR_PRESSURE)  max=  2.34179382897359E+04
DEBUG_STATS_RL:    cg2d_b (SOLVE_FOR_PRESSURE) mean=  4.98081221373788E+00
DEBUG_STATS_RL:    cg2d_b (SOLVE_FOR_PRESSURE) S.D.=  3.89273265488545E+03
 cg2d: Sum(rhs),rhsMax =   4.92382383630039E-01  1.53815288665995E+00
(PID.TID 0000.0001)  cg2d: iter=     1 ; resid.=  9.46130589111193E-02
(PID.TID 0000.0001)  cg2d: iter=     2 ; resid.=  7.32452670342827E-02
(PID.TID 0000.0001)  cg2d: iter=     3 ; resid.=  7.00859538147407E-02
(PID.TID 0000.0001)  cg2d: iter=     4 ; resid.=  7.02411023739846E-02
(PID.TID 0000.0001)  cg2d: iter=     5 ; resid.=  6.05893183600833E-02
(PID.TID 0000.0001)  cg2d: iter=     6 ; resid.=  4.35112294084702E-02
(PID.TID 0000.0001)  cg2d: iter=     7 ; resid.=  3.80844137074260E-02
(PID.TID 0000.0001)  cg2d: iter=     8 ; resid.=  3.52873524603602E-02
(PID.TID 0000.0001)  cg2d: iter=     9 ; resid.=  3.11466417266994E-02
(PID.TID 0000.0001)  cg2d: iter=    10 ; resid.=  2.50110380850903E-02
(PID.TID 0000.0001)  cg2d: iter=    11 ; resid.=  1.98878727012957E-02
(PID.TID 0000.0001)  cg2d: iter=    12 ; resid.=  1.53649147916452E-02
(PID.TID 0000.0001)  cg2d: iter=    13 ; resid.=  1.09245561466788E-02
(PID.TID 0000.0001)  cg2d: iter=    14 ; resid.=  9.31207769078142E-03
(PID.TID 0000.0001)  cg2d: iter=    15 ; resid.=  8.34303795154867E-03
(PID.TID 0000.0001)  cg2d: iter=    16 ; resid.=  6.80661617168770E-03
(PID.TID 0000.0001)  cg2d: iter=    17 ; resid.=  5.62828170696572E-03
(PID.TID 0000.0001)  cg2d: iter=    18 ; resid.=  5.37598833154510E-03
(PID.TID 0000.0001)  cg2d: iter=    19 ; resid.=  4.32010354300696E-03
(PID.TID 0000.0001)  cg2d: iter=    20 ; resid.=  3.72868724657561E-03
(PID.TID 0000.0001)  cg2d: iter=    21 ; resid.=  3.28538223322951E-03
(PID.TID 0000.0001)  cg2d: iter=    22 ; resid.=  2.69529747538777E-03
(PID.TID 0000.0001)  cg2d: iter=    23 ; resid.=  2.30061270185851E-03
(PID.TID 0000.0001)  cg2d: iter=    24 ; resid.=  1.94103292236609E-03
(PID.TID 0000.0001)  cg2d: iter=    25 ; resid.=  1.71665932467142E-03
(PID.TID 0000.0001)  cg2d: iter=    26 ; resid.=  1.39668152090191E-03
(PID.TID 0000.0001)  cg2d: iter=    27 ; resid.=  1.10794420924468E-03
(PID.TID 0000.0001)  cg2d: iter=    28 ; resid.=  9.60661253431128E-04
(PID.TID 0000.0001)  cg2d: iter=    29 ; resid.=  7.86548513953645E-04
(PID.TID 0000.0001)  cg2d: iter=    30 ; resid.=  6.55403528616929E-04
(PID.TID 0000.0001)  cg2d: iter=    31 ; resid.=  5.30920935655718E-04
(PID.TID 0000.0001)  cg2d: iter=    32 ; resid.=  4.21748861961054E-04
(PID.TID 0000.0001)  cg2d: iter=    33 ; resid.=  3.59723709381819E-04
(PID.TID 0000.0001)  cg2d: iter=    34 ; resid.=  3.26812081613631E-04
(PID.TID 0000.0001)  cg2d: iter=    35 ; resid.=  2.76383526573607E-04
(PID.TID 0000.0001)  cg2d: iter=    36 ; resid.=  2.33996740381648E-04
(PID.TID 0000.0001)  cg2d: iter=    37 ; resid.=  1.99544570362821E-04
(PID.TID 0000.0001)  cg2d: iter=    38 ; resid.=  1.63704050602405E-04
(PID.TID 0000.0001)  cg2d: iter=    39 ; resid.=  1.41237143716910E-04
(PID.TID 0000.0001)  cg2d: iter=    40 ; resid.=  1.18107643018927E-04
(PID.TID 0000.0001)  cg2d: iter=    41 ; resid.=  9.67658332209279E-05
(PID.TID 0000.0001)  cg2d: iter=    42 ; resid.=  8.33162918302716E-05
(PID.TID 0000.0001)  cg2d: iter=    43 ; resid.=  6.94581517205935E-05
(PID.TID 0000.0001)  cg2d: iter=    44 ; resid.=  5.73111280157806E-05
(PID.TID 0000.0001)  cg2d: iter=    45 ; resid.=  4.67500418688974E-05
(PID.TID 0000.0001)  cg2d: iter=    46 ; resid.=  3.63905874349280E-05
(PID.TID 0000.0001)  cg2d: iter=    47 ; resid.=  2.84078924034481E-05
(PID.TID 0000.0001)  cg2d: iter=    48 ; resid.=  2.41898729615645E-05
(PID.TID 0000.0001)  cg2d: iter=    49 ; resid.=  1.93429567982129E-05
(PID.TID 0000.0001)  cg2d: iter=    50 ; resid.=  1.51367422234259E-05
(PID.TID 0000.0001)  cg2d: iter=    51 ; resid.=  1.26612330475916E-05
(PID.TID 0000.0001)  cg2d: iter=    52 ; resid.=  9.96989249326950E-06
(PID.TID 0000.0001)  cg2d: iter=    53 ; resid.=  9.27532496239642E-06
(PID.TID 0000.0001)  cg2d: iter=    54 ; resid.=  8.18534442734687E-06
(PID.TID 0000.0001)  cg2d: iter=    55 ; resid.=  7.24472797382354E-06
(PID.TID 0000.0001)  cg2d: iter=    56 ; resid.=  6.14288972814266E-06
(PID.TID 0000.0001)  cg2d: iter=    57 ; resid.=  5.08885704096966E-06
(PID.TID 0000.0001)  cg2d: iter=    58 ; resid.=  3.85821480273888E-06
(PID.TID 0000.0001)  cg2d: iter=    59 ; resid.=  2.72776205082845E-06
(PID.TID 0000.0001)  cg2d: iter=    60 ; resid.=  2.13096375927136E-06
(PID.TID 0000.0001)  cg2d: iter=    61 ; resid.=  1.71800552123973E-06
(PID.TID 0000.0001)  cg2d: iter=    62 ; resid.=  1.27225335767246E-06
(PID.TID 0000.0001)  cg2d: iter=    63 ; resid.=  9.35191822388420E-07
(PID.TID 0000.0001)  cg2d: iter=    64 ; resid.=  7.67353117593784E-07
(PID.TID 0000.0001)  cg2d: iter=    65 ; resid.=  6.43979185538976E-07
(PID.TID 0000.0001)  cg2d: iter=    66 ; resid.=  5.26810994907512E-07
(PID.TID 0000.0001)  cg2d: iter=    67 ; resid.=  4.07617127485035E-07
(PID.TID 0000.0001)  cg2d: iter=    68 ; resid.=  3.23089904569560E-07
(PID.TID 0000.0001)  cg2d: iter=    69 ; resid.=  2.95052958259184E-07
(PID.TID 0000.0001)  cg2d: iter=    70 ; resid.=  2.90701337547815E-07
(PID.TID 0000.0001)  cg2d: iter=    71 ; resid.=  2.68743035826645E-07
(PID.TID 0000.0001)  cg2d: iter=    72 ; resid.=  2.30626930029451E-07
(PID.TID 0000.0001)  cg2d: iter=    73 ; resid.=  1.87808017303342E-07
(PID.TID 0000.0001)  cg2d: iter=    74 ; resid.=  1.58355511521300E-07
(PID.TID 0000.0001)  cg2d: iter=    75 ; resid.=  1.17143967836569E-07
(PID.TID 0000.0001)  cg2d: iter=    76 ; resid.=  9.26271003792370E-08
(PID.TID 0000.0001)  cg2d: iter=    77 ; resid.=  7.82516221434789E-08
(PID.TID 0000.0001)  cg2d: iter=    78 ; resid.=  6.53913466421052E-08
(PID.TID 0000.0001)  cg2d: iter=    79 ; resid.=  5.35495035922992E-08
(PID.TID 0000.0001)  cg2d: iter=    80 ; resid.=  4.13852577345855E-08
(PID.TID 0000.0001)  cg2d: iter=    81 ; resid.=  3.18591507853751E-08
(PID.TID 0000.0001)  cg2d: iter=    82 ; resid.=  2.45484546931364E-08
(PID.TID 0000.0001)  cg2d: iter=    83 ; resid.=  1.91005033443542E-08
(PID.TID 0000.0001)  cg2d: iter=    84 ; resid.=  1.53085033778947E-08
(PID.TID 0000.0001)  cg2d: iter=    85 ; resid.=  1.09298254424081E-08
(PID.TID 0000.0001)  cg2d: iter=    86 ; resid.=  8.22473121683710E-09
(PID.TID 0000.0001)  cg2d: iter=    87 ; resid.=  6.58685614328013E-09
(PID.TID 0000.0001)  cg2d: iter=    88 ; resid.=  5.35324504735791E-09
(PID.TID 0000.0001)  cg2d: iter=    89 ; resid.=  4.26181569938360E-09
(PID.TID 0000.0001)  cg2d: iter=    90 ; resid.=  3.52150783111804E-09
(PID.TID 0000.0001)  cg2d: iter=    91 ; resid.=  3.07796406047633E-09
(PID.TID 0000.0001)  cg2d: iter=    92 ; resid.=  2.71359914871339E-09
(PID.TID 0000.0001)  cg2d: iter=    93 ; resid.=  2.26108462079083E-09
(PID.TID 0000.0001)  cg2d: iter=    94 ; resid.=  1.93255659221890E-09
(PID.TID 0000.0001)  cg2d: iter=    95 ; resid.=  1.62634543951877E-09
(PID.TID 0000.0001)  cg2d: iter=    96 ; resid.=  1.37386922595988E-09
(PID.TID 0000.0001)  cg2d: iter=    97 ; resid.=  1.02836144679318E-09
(PID.TID 0000.0001)  cg2d: iter=    98 ; resid.=  7.53719459509607E-10
(PID.TID 0000.0001)  cg2d: iter=    99 ; resid.=  5.35332264738907E-10
(PID.TID 0000.0001)  cg2d: iter=   100 ; resid.=  4.32916852678855E-10
(PID.TID 0000.0001)  cg2d: iter=   101 ; resid.=  3.37322701183897E-10
(PID.TID 0000.0001)  cg2d: iter=   102 ; resid.=  2.44683745208680E-10
(PID.TID 0000.0001)  cg2d: iter=   103 ; resid.=  1.73413136058824E-10
(PID.TID 0000.0001)  cg2d: iter=   104 ; resid.=  1.41670516355466E-10
(PID.TID 0000.0001)  cg2d: iter=   105 ; resid.=  1.19337884688473E-10
(PID.TID 0000.0001)  cg2d: iter=   106 ; resid.=  9.17904943994115E-11
(PID.TID 0000.0001)  cg2d: iter=   107 ; resid.=  6.52949474304347E-11
(PID.TID 0000.0001)  cg2d: iter=   108 ; resid.=  5.05719214061971E-11
(PID.TID 0000.0001)  cg2d: iter=   109 ; resid.=  3.95578925316936E-11
(PID.TID 0000.0001)  cg2d: iter=   110 ; resid.=  3.08773478623262E-11
(PID.TID 0000.0001)  cg2d: iter=   111 ; resid.=  2.72001128908886E-11
(PID.TID 0000.0001)  cg2d: iter=   112 ; resid.=  1.99823911151612E-11
(PID.TID 0000.0001)  cg2d: iter=   113 ; resid.=  1.44948588531932E-11
(PID.TID 0000.0001)  cg2d: iter=   114 ; resid.=  1.06300932343880E-11
(PID.TID 0000.0001)  cg2d: iter=   115 ; resid.=  7.80320509806760E-12
(PID.TID 0000.0001)  cg2d: iter=   116 ; resid.=  5.75425237469535E-12
(PID.TID 0000.0001)  cg2d: iter=   117 ; resid.=  4.32079465536570E-12
(PID.TID 0000.0001)  cg2d: iter=   118 ; resid.=  3.05408151110149E-12
(PID.TID 0000.0001)  cg2d: iter=   119 ; resid.=  2.31135616315624E-12
(PID.TID 0000.0001)  cg2d: iter=   120 ; resid.=  1.79397498582472E-12
(PID.TID 0000.0001)  cg2d: iter=   121 ; resid.=  1.42209137053914E-12
(PID.TID 0000.0001)  cg2d: iter=   122 ; resid.=  1.16841047476666E-12
(PID.TID 0000.0001)  cg2d: iter=   123 ; resid.=  9.40969956944953E-13
(PID.TID 0000.0001)  cg2d: iter=   124 ; resid.=  7.55336048195156E-13
(PID.TID 0000.0001)  cg2d: iter=   125 ; resid.=  5.80541129972886E-13
(PID.TID 0000.0001)  cg2d: iter=   126 ; resid.=  4.38907409926023E-13
(PID.TID 0000.0001)  cg2d: iter=   127 ; resid.=  3.27294597112455E-13
(PID.TID 0000.0001)  cg2d: iter=   128 ; resid.=  2.42645041991951E-13
(PID.TID 0000.0001)  cg2d: iter=   129 ; resid.=  1.80239974356307E-13
(PID.TID 0000.0001)  cg2d: iter=   130 ; resid.=  1.22724290762650E-13
(PID.TID 0000.0001)  cg2d: iter=   131 ; resid.=  9.10773732032060E-14
DEBUG_STATS_RL:    cg2d_x (SOLVE_FOR_PRESSURE)  min= -1.88575963023456E+01
DEBUG_STATS_RL:    cg2d_x (SOLVE_FOR_PRESSURE)  max=  9.08427773902820E+00
DEBUG_STATS_RL:    cg2d_x (SOLVE_FOR_PRESSURE) mean= -1.78568198944693E+00
DEBUG_STATS_RL:    cg2d_x (SOLVE_FOR_PRESSURE) S.D.=  7.11315663672958E+00
(PID.TID 0000.0001)      cg2d_init_res =   2.79090098019651E-01
(PID.TID 0000.0001)      cg2d_iters(min,last) =      -1     131
(PID.TID 0000.0001)      cg2d_last_res =   9.10773732032060E-14
(PID.TID 0000.0001) // =======================================================
(PID.TID 0000.0001) // Begin MONITOR dynamic field statistics
(PID.TID 0000.0001) // =======================================================
(PID.TID 0000.0001) %MON time_tsnumber                =                    73
(PID.TID 0000.0001) %MON time_secondsf                =   6.3072000000000E+06
(PID.TID 0000.0001) %MON dynstat_eta_max              =   9.2602219561966E-01
(PID.TID 0000.0001) %MON dynstat_eta_min              =  -1.9222830073746E+00
(PID.TID 0000.0001) %MON dynstat_eta_mean             =  -5.1968599447092E-03
(PID.TID 0000.0001) %MON dynstat_eta_sd               =   6.2680268689257E-01
(PID.TID 0000.0001) %MON dynstat_eta_del2             =   2.4440001788727E-03
(PID.TID 0000.0001) %MON dynstat_uvel_max             =   1.4441637983087E-01
(PID.TID 0000.0001) %MON dynstat_uvel_min             =  -1.2014046928701E-01
(PID.TID 0000.0001) %MON dynstat_uvel_mean            =   2.1264839565196E-03
(PID.TID 0000.0001) %MON dynstat_uvel_sd              =   1.3519062660057E-02
(PID.TID 0000.0001) %MON dynstat_uvel_del2            =   8.2261646221939E-05
(PID.TID 0000.0001) %MON dynstat_vvel_max             =   1.3925858499662E-01
(PID.TID 0000.0001) %MON dynstat_vvel_min             =  -8.0940138142034E-02
(PID.TID 0000.0001) %MON dynstat_vvel_mean            =   6.3769480867131E-05
(PID.TID 0000.0001) %MON dynstat_vvel_sd              =   8.2732016048642E-03
(PID.TID 0000.0001) %MON dynstat_vvel_del2            =   7.3896054070955E-05
(PID.TID 0000.0001) %MON dynstat_wvel_max             =   1.3720498295426E-04
(PID.TID 0000.0001) %MON dynstat_wvel_min             =  -9.3172538060751E-05
(PID.TID 0000.0001) %MON dynstat_wvel_mean            =   4.4268261164719E-23
(PID.TID 0000.0001) %MON dynstat_wvel_sd              =   1.0348389525084E-05
(PID.TID 0000.0001) %MON dynstat_wvel_del2            =   1.0390072840996E-07
(PID.TID 0000.0001) %MON dynstat_theta_max            =   3.0045627569932E+01
(PID.TID 0000.0001) %MON dynstat_theta_min            =  -1.9436997121648E+00
(PID.TID 0000.0001) %MON dynstat_theta_mean           =   3.6215599650963E+00
(PID.TID 0000.0001) %MON dynstat_theta_sd             =   4.4217621555785E+00
(PID.TID 0000.0001) %MON dynstat_theta_del2           =   4.6842755126546E-03
(PID.TID 0000.0001) %MON dynstat_salt_max             =   3.7450768499284E+01
(PID.TID 0000.0001) %MON dynstat_salt_min             =   2.9869099260522E+01
(PID.TID 0000.0001) %MON dynstat_salt_mean            =   3.4717290952317E+01
(PID.TID 0000.0001) %MON dynstat_salt_sd              =   2.9623599511156E-01
(PID.TID 0000.0001) %MON dynstat_salt_del2            =   9.6004024640293E-04
(PID.TID 0000.0001) %MON dynstat_sst_max              =   3.0045627569932E+01
(PID.TID 0000.0001) %MON dynstat_sst_min              =  -1.9436997121648E+00
(PID.TID 0000.0001) %MON dynstat_sst_mean             =   1.8817472032235E+01
(PID.TID 0000.0001) %MON dynstat_sst_sd               =   9.2346361488347E+00
(PID.TID 0000.0001) %MON dynstat_sst_del2             =   2.3872574880956E-02
(PID.TID 0000.0001) %MON dynstat_sss_max              =   3.7398640370105E+01
(PID.TID 0000.0001) %MON dynstat_sss_min              =   2.9869099260522E+01
(PID.TID 0000.0001) %MON dynstat_sss_mean             =   3.4838586604790E+01
(PID.TID 0000.0001) %MON dynstat_sss_sd               =   9.8057048755382E-01
(PID.TID 0000.0001) %MON dynstat_sss_del2             =   7.5935736233766E-03
(PID.TID 0000.0001) %MON forcing_qnet_max             =   2.8290214538574E+02
(PID.TID 0000.0001) %MON forcing_qnet_min             =  -1.6475342864990E+02
(PID.TID 0000.0001) %MON forcing_qnet_mean            =  -7.9350844890245E+00
(PID.TID 0000.0001) %MON forcing_qnet_sd              =   4.8359280419463E+01
(PID.TID 0000.0001) %MON forcing_qnet_del2            =   8.5469072359426E-01
(PID.TID 0000.0001) %MON forcing_qsw_max              =   0.0000000000000E+00
(PID.TID 0000.0001) %MON forcing_qsw_min              =   0.0000000000000E+00
(PID.TID 0000.0001) %MON forcing_qsw_mean             =   0.0000000000000E+00
(PID.TID 0000.0001) %MON forcing_qsw_sd               =   0.0000000000000E+00
(PID.TID 0000.0001) %MON forcing_qsw_del2             =   0.0000000000000E+00
(PID.TID 0000.0001) %MON forcing_empmr_max            =   6.9126090807003E-05
(PID.TID 0000.0001) %MON forcing_empmr_min            =  -8.2066878803744E-05
(PID.TID 0000.0001) %MON forcing_empmr_mean           =   5.8998084630176E-07
(PID.TID 0000.0001) %MON forcing_empmr_sd             =   2.6360875711591E-05
(PID.TID 0000.0001) %MON forcing_empmr_del2           =   3.6293820427634E-07
(PID.TID 0000.0001) %MON forcing_fu_max               =   3.5172714889050E-01
(PID.TID 0000.0001) %MON forcing_fu_min               =  -3.6944006383419E-01
(PID.TID 0000.0001) %MON forcing_fu_mean              =   2.0174130532013E-02
(PID.TID 0000.0001) %MON forcing_fu_sd                =   1.0044956754346E-01
(PID.TID 0000.0001) %MON forcing_fu_del2              =   8.1088351437561E-04
(PID.TID 0000.0001) %MON forcing_fv_max               =   1.7182487472892E-01
(PID.TID 0000.0001) %MON forcing_fv_min               =  -1.8883825689554E-01
(PID.TID 0000.0001) %MON forcing_fv_mean              =  -7.4982903901361E-03
(PID.TID 0000.0001) %MON forcing_fv_sd                =   4.2208471990419E-02
(PID.TID 0000.0001) %MON forcing_fv_del2              =   4.9097367067402E-04
(PID.TID 0000.0001) %MON trAdv_CFL_u_max              =   4.7773110133284E-02
(PID.TID 0000.0001) %MON trAdv_CFL_v_max              =   2.7155017915877E-02
(PID.TID 0000.0001) %MON trAdv_CFL_w_max              =   2.8535539357012E-02
(PID.TID 0000.0001) %MON advcfl_uvel_max              =   4.7734757432986E-02
(PID.TID 0000.0001) %MON advcfl_vvel_max              =   2.7055709625656E-02
(PID.TID 0000.0001) %MON advcfl_wvel_max              =   3.2478111033556E-02
(PID.TID 0000.0001) %MON advcfl_W_hf_max              =   3.6332629800193E-02
(PID.TID 0000.0001) %MON pe_b_mean                    =   5.0277393211062E-04
(PID.TID 0000.0001) %MON ke_max                       =   1.1476687863300E-02
(PID.TID 0000.0001) %MON ke_mean                      =   1.1581748825068E-04
(PID.TID 0000.0001) %MON ke_vol                       =   1.3226782436723E+18
(PID.TID 0000.0001) %MON vort_r_min                   =  -3.0842875112469E-07
(PID.TID 0000.0001) %MON vort_r_max                   =   4.1690669575414E-07
(PID.TID 0000.0001) %MON vort_a_mean                  =  -2.5274806924500E-05
(PID.TID 0000.0001) %MON vort_a_sd                    =   7.3604608826830E-05
(PID.TID 0000.0001) %MON vort_p_mean                  =  -3.1845655203565E-05
(PID.TID 0000.0001) %MON vort_p_sd                    =   1.3162468133647E-04
(PID.TID 0000.0001) %MON surfExpan_theta_mean         =  -1.3635442558184E-07
(PID.TID 0000.0001) %MON surfExpan_salt_mean          =   4.9691839547311E-08
(PID.TID 0000.0001) // =======================================================
(PID.TID 0000.0001) // End MONITOR dynamic field statistics
(PID.TID 0000.0001) // =======================================================
 EXTERNAL_FIELDS_LOAD,        73 : iP,iLd,i0,i1=    2    3    2    3 ; Wght=  0.0666666667  0.9333333333
 EXTERNAL_FIELDS_LOAD: (fu0,1),fu,fv= -1.4435E-02 -2.7199E-02 -2.6348E-02 -1.7152E-03
 EXTERNAL_FIELDS_LOAD: SST,SSS,Q,E-P= -2.0710E-01  3.4569E+01  2.1707E+02  9.0339E-06
DEBUG_STATS_RL:          Uvel (THERMODYNAMICS)  min= -1.20140469287011E-01
DEBUG_STATS_RL:          Uvel (THERMODYNAMICS)  max=  1.44416379830869E-01
DEBUG_STATS_RL:          Uvel (THERMODYNAMICS) mean=  5.93896846065565E-03
DEBUG_STATS_RL:          Uvel (THERMODYNAMICS) S.D.=  2.20300265577657E-02
DEBUG_STATS_RL:          Vvel (THERMODYNAMICS)  min= -8.09401381420344E-02
DEBUG_STATS_RL:          Vvel (THERMODYNAMICS)  max=  1.39258584996617E-01
DEBUG_STATS_RL:          Vvel (THERMODYNAMICS) mean=  7.21182586753084E-04
DEBUG_STATS_RL:          Vvel (THERMODYNAMICS) S.D.=  1.32899915381728E-02
DEBUG_STATS_RL:          Wvel (THERMODYNAMICS)  min= -9.31725380607514E-05
DEBUG_STATS_RL:          Wvel (THERMODYNAMICS)  max=  1.37204982954259E-04
DEBUG_STATS_RL:          Wvel (THERMODYNAMICS) mean= -5.58690266424430E-08
DEBUG_STATS_RL:          Wvel (THERMODYNAMICS) S.D.=  9.17937875088805E-06
DEBUG_STATS_RL:         Theta (THERMODYNAMICS)  min= -1.94645387251545E+00
DEBUG_STATS_RL:         Theta (THERMODYNAMICS)  max=  3.00512330150864E+01
DEBUG_STATS_RL:         Theta (THERMODYNAMICS) mean=  3.21139798913255E+00
DEBUG_STATS_RL:         Theta (THERMODYNAMICS) S.D.=  5.87028620373641E+00
DEBUG_STATS_RL:          Salt (THERMODYNAMICS)  min= -6.86339798922060E-04
DEBUG_STATS_RL:          Salt (THERMODYNAMICS)  max=  3.74497677500748E+01
DEBUG_STATS_RL:          Salt (THERMODYNAMICS) mean=  1.88440458111884E+01
DEBUG_STATS_RL:          Salt (THERMODYNAMICS) S.D.=  1.73002693785196E+01
DEBUG_STATS_RL:         GtNm1 (THERMODYNAMICS)  min= -2.83045315066755E-06
DEBUG_STATS_RL:         GtNm1 (THERMODYNAMICS)  max=  1.57093481439386E-06
DEBUG_STATS_RL:         GtNm1 (THERMODYNAMICS) mean=  1.50229764181290E-09
DEBUG_STATS_RL:         GtNm1 (THERMODYNAMICS) S.D.=  1.36729639065891E-07
DEBUG_STATS_RL:         GsNm1 (THERMODYNAMICS)  min= -2.89952380936225E-07
DEBUG_STATS_RL:         GsNm1 (THERMODYNAMICS)  max=  2.05952282320745E-07
DEBUG_STATS_RL:         GsNm1 (THERMODYNAMICS) mean=  5.51910883492776E-11
DEBUG_STATS_RL:         GsNm1 (THERMODYNAMICS) S.D.=  1.29171587861332E-08
DEBUG_STATS_RL:                EtaN (DYNAMICS)  min= -1.92228300737461E+00
DEBUG_STATS_RL:                EtaN (DYNAMICS)  max=  9.26022195619656E-01
DEBUG_STATS_RL:                EtaN (DYNAMICS) mean= -1.82026706365641E-01
DEBUG_STATS_RL:                EtaN (DYNAMICS) S.D.=  7.25092419646236E-01
DEBUG_STATS_RL:                Uvel (DYNAMICS)  min= -1.20140469287011E-01
DEBUG_STATS_RL:                Uvel (DYNAMICS)  max=  1.44416379830869E-01
DEBUG_STATS_RL:                Uvel (DYNAMICS) mean=  5.93896846065565E-03
DEBUG_STATS_RL:                Uvel (DYNAMICS) S.D.=  2.20300265577657E-02
DEBUG_STATS_RL:                Vvel (DYNAMICS)  min= -8.09401381420344E-02
DEBUG_STATS_RL:                Vvel (DYNAMICS)  max=  1.39258584996617E-01
DEBUG_STATS_RL:                Vvel (DYNAMICS) mean=  7.21182586753084E-04
DEBUG_STATS_RL:                Vvel (DYNAMICS) S.D.=  1.32899915381728E-02
DEBUG_STATS_RL:                Wvel (DYNAMICS)  min= -9.31725380607514E-05
DEBUG_STATS_RL:                Wvel (DYNAMICS)  max=  1.37204982954259E-04
DEBUG_STATS_RL:                Wvel (DYNAMICS) mean= -5.58690266424430E-08
DEBUG_STATS_RL:                Wvel (DYNAMICS) S.D.=  9.17937875088805E-06
DEBUG_STATS_RL:               Theta (DYNAMICS)  min= -1.94645387251545E+00
DEBUG_STATS_RL:               Theta (DYNAMICS)  max=  3.00512330150864E+01
DEBUG_STATS_RL:               Theta (DYNAMICS) mean=  3.21139798913255E+00
DEBUG_STATS_RL:               Theta (DYNAMICS) S.D.=  5.87028620373641E+00
DEBUG_STATS_RL:                Salt (DYNAMICS)  min= -6.86339798922060E-04
DEBUG_STATS_RL:                Salt (DYNAMICS)  max=  3.74497677500748E+01
DEBUG_STATS_RL:                Salt (DYNAMICS) mean=  1.88440458111884E+01
DEBUG_STATS_RL:                Salt (DYNAMICS) S.D.=  1.73002693785196E+01
DEBUG_STATS_RL:                  Gu (DYNAMICS)  min= -1.19544669805401E-01
DEBUG_STATS_RL:                  Gu (DYNAMICS)  max=  1.42949892222791E-01
DEBUG_STATS_RL:                  Gu (DYNAMICS) mean=  5.90158344203360E-03
DEBUG_STATS_RL:                  Gu (DYNAMICS) S.D.=  2.25587031532931E-02
DEBUG_STATS_RL:                  Gv (DYNAMICS)  min= -8.58988116984402E-02
DEBUG_STATS_RL:                  Gv (DYNAMICS)  max=  1.39504539683435E-01
DEBUG_STATS_RL:                  Gv (DYNAMICS) mean=  3.39263863004360E-03
DEBUG_STATS_RL:                  Gv (DYNAMICS) S.D.=  1.45718540659394E-02
DEBUG_STATS_RL:               GuNm1 (DYNAMICS)  min= -9.91397612583637E-06
DEBUG_STATS_RL:               GuNm1 (DYNAMICS)  max=  9.27917993537347E-06
DEBUG_STATS_RL:               GuNm1 (DYNAMICS) mean=  5.55846140547678E-09
DEBUG_STATS_RL:               GuNm1 (DYNAMICS) S.D.=  1.20602202557114E-06
DEBUG_STATS_RL:               GvNm1 (DYNAMICS)  min= -9.86503449868587E-06
DEBUG_STATS_RL:               GvNm1 (DYNAMICS)  max=  1.55571514942699E-05
DEBUG_STATS_RL:               GvNm1 (DYNAMICS) mean=  7.40527443228921E-07
DEBUG_STATS_RL:               GvNm1 (DYNAMICS) S.D.=  2.61456730083924E-06
DEBUG_STATS_RL:               GtNm1 (DYNAMICS)  min= -2.83045315066755E-06
DEBUG_STATS_RL:               GtNm1 (DYNAMICS)  max=  1.57093481439386E-06
DEBUG_STATS_RL:               GtNm1 (DYNAMICS) mean=  1.50229764181290E-09
DEBUG_STATS_RL:               GtNm1 (DYNAMICS) S.D.=  1.36729639065891E-07
DEBUG_STATS_RL:               GsNm1 (DYNAMICS)  min= -2.89952380936225E-07
DEBUG_STATS_RL:               GsNm1 (DYNAMICS)  max=  2.05952282320745E-07
DEBUG_STATS_RL:               GsNm1 (DYNAMICS) mean=  5.51910883492776E-11
DEBUG_STATS_RL:               GsNm1 (DYNAMICS) S.D.=  1.29171587861332E-08
DEBUG_STATS_RL:    cg2d_b (SOLVE_FOR_PRESSURE)  min= -2.17379305932213E+04
DEBUG_STATS_RL:    cg2d_b (SOLVE_FOR_PRESSURE)  max=  2.38013295636311E+04
DEBUG_STATS_RL:    cg2d_b (SOLVE_FOR_PRESSURE) mean=  5.02696801005837E+00
DEBUG_STATS_RL:    cg2d_b (SOLVE_FOR_PRESSURE) S.D.=  3.89247139993505E+03
 cg2d: Sum(rhs),rhsMax =   4.88940372518863E-01  1.56333505203104E+00
(PID.TID 0000.0001)  cg2d: iter=     1 ; resid.=  7.87831118180229E-02
(PID.TID 0000.0001)  cg2d: iter=     2 ; resid.=  4.78390922847037E-02
(PID.TID 0000.0001)  cg2d: iter=     3 ; resid.=  4.18065644767789E-02
(PID.TID 0000.0001)  cg2d: iter=     4 ; resid.=  3.98575244258004E-02
(PID.TID 0000.0001)  cg2d: iter=     5 ; resid.=  3.64165015237308E-02
(PID.TID 0000.0001)  cg2d: iter=     6 ; resid.=  2.81699442121295E-02
(PID.TID 0000.0001)  cg2d: iter=     7 ; resid.=  2.28458105784806E-02
(PID.TID 0000.0001)  cg2d: iter=     8 ; resid.=  1.88963554377445E-02
(PID.TID 0000.0001)  cg2d: iter=     9 ; resid.=  1.67576822228668E-02
(PID.TID 0000.0001)  cg2d: iter=    10 ; resid.=  1.42869727348281E-02
(PID.TID 0000.0001)  cg2d: iter=    11 ; resid.=  1.21957892994158E-02
(PID.TID 0000.0001)  cg2d: iter=    12 ; resid.=  1.03403949416185E-02
(PID.TID 0000.0001)  cg2d: iter=    13 ; resid.=  7.56780620724483E-03
(PID.TID 0000.0001)  cg2d: iter=    14 ; resid.=  6.36330859497610E-03
(PID.TID 0000.0001)  cg2d: iter=    15 ; resid.=  5.47795997901026E-03
(PID.TID 0000.0001)  cg2d: iter=    16 ; resid.=  4.41909061510671E-03
(PID.TID 0000.0001)  cg2d: iter=    17 ; resid.=  3.38746768398234E-03
(PID.TID 0000.0001)  cg2d: iter=    18 ; resid.=  3.04583678811826E-03
(PID.TID 0000.0001)  cg2d: iter=    19 ; resid.=  2.58950512560114E-03
(PID.TID 0000.0001)  cg2d: iter=    20 ; resid.=  2.27846407539343E-03
(PID.TID 0000.0001)  cg2d: iter=    21 ; resid.=  2.11479554043984E-03
(PID.TID 0000.0001)  cg2d: iter=    22 ; resid.=  1.80098293848307E-03
(PID.TID 0000.0001)  cg2d: iter=    23 ; resid.=  1.58213755525133E-03
(PID.TID 0000.0001)  cg2d: iter=    24 ; resid.=  1.34507439973422E-03
(PID.TID 0000.0001)  cg2d: iter=    25 ; resid.=  1.15579546842372E-03
(PID.TID 0000.0001)  cg2d: iter=    26 ; resid.=  9.29259845474863E-04
(PID.TID 0000.0001)  cg2d: iter=    27 ; resid.=  7.03529609976897E-04
(PID.TID 0000.0001)  cg2d: iter=    28 ; resid.=  5.64418728538018E-04
(PID.TID 0000.0001)  cg2d: iter=    29 ; resid.=  4.42705535125184E-04
(PID.TID 0000.0001)  cg2d: iter=    30 ; resid.=  3.65184521642037E-04
(PID.TID 0000.0001)  cg2d: iter=    31 ; resid.=  3.06142390140712E-04
(PID.TID 0000.0001)  cg2d: iter=    32 ; resid.=  2.38273648896235E-04
(PID.TID 0000.0001)  cg2d: iter=    33 ; resid.=  1.94049250556280E-04
(PID.TID 0000.0001)  cg2d: iter=    34 ; resid.=  1.71870077130330E-04
(PID.TID 0000.0001)  cg2d: iter=    35 ; resid.=  1.52000227227624E-04
(PID.TID 0000.0001)  cg2d: iter=    36 ; resid.=  1.35260459244139E-04
(PID.TID 0000.0001)  cg2d: iter=    37 ; resid.=  1.20828614276100E-04
(PID.TID 0000.0001)  cg2d: iter=    38 ; resid.=  1.03008196377235E-04
(PID.TID 0000.0001)  cg2d: iter=    39 ; resid.=  8.55758034749456E-05
(PID.TID 0000.0001)  cg2d: iter=    40 ; resid.=  6.88867163099923E-05
(PID.TID 0000.0001)  cg2d: iter=    41 ; resid.=  5.21820290012973E-05
(PID.TID 0000.0001)  cg2d: iter=    42 ; resid.=  4.59658070175722E-05
(PID.TID 0000.0001)  cg2d: iter=    43 ; resid.=  4.14134485122748E-05
(PID.TID 0000.0001)  cg2d: iter=    44 ; resid.=  3.55144962849936E-05
(PID.TID 0000.0001)  cg2d: iter=    45 ; resid.=  2.91769983097118E-05
(PID.TID 0000.0001)  cg2d: iter=    46 ; resid.=  2.27778726378696E-05
(PID.TID 0000.0001)  cg2d: iter=    47 ; resid.=  1.77364201512138E-05
(PID.TID 0000.0001)  cg2d: iter=    48 ; resid.=  1.45331270500688E-05
(PID.TID 0000.0001)  cg2d: iter=    49 ; resid.=  1.22243927888639E-05
(PID.TID 0000.0001)  cg2d: iter=    50 ; resid.=  1.00800516060534E-05
(PID.TID 0000.0001)  cg2d: iter=    51 ; resid.=  8.70798642257303E-06
(PID.TID 0000.0001)  cg2d: iter=    52 ; resid.=  6.84532432452033E-06
(PID.TID 0000.0001)  cg2d: iter=    53 ; resid.=  5.84906187497427E-06
(PID.TID 0000.0001)  cg2d: iter=    54 ; resid.=  4.90886728005043E-06
(PID.TID 0000.0001)  cg2d: iter=    55 ; resid.=  4.17007778089907E-06
(PID.TID 0000.0001)  cg2d: iter=    56 ; resid.=  3.41949677597461E-06
(PID.TID 0000.0001)  cg2d: iter=    57 ; resid.=  2.98451104748717E-06
(PID.TID 0000.0001)  cg2d: iter=    58 ; resid.=  2.49128000454308E-06
(PID.TID 0000.0001)  cg2d: iter=    59 ; resid.=  1.93563313281708E-06
(PID.TID 0000.0001)  cg2d: iter=    60 ; resid.=  1.62065123897157E-06
(PID.TID 0000.0001)  cg2d: iter=    61 ; resid.=  1.37062591503113E-06
(PID.TID 0000.0001)  cg2d: iter=    62 ; resid.=  1.06951202166646E-06
(PID.TID 0000.0001)  cg2d: iter=    63 ; resid.=  7.54552574455198E-07
(PID.TID 0000.0001)  cg2d: iter=    64 ; resid.=  5.85499566681115E-07
(PID.TID 0000.0001)  cg2d: iter=    65 ; resid.=  4.93868978312192E-07
(PID.TID 0000.0001)  cg2d: iter=    66 ; resid.=  4.29186395792580E-07
(PID.TID 0000.0001)  cg2d: iter=    67 ; resid.=  3.59151347051478E-07
(PID.TID 0000.0001)  cg2d: iter=    68 ; resid.=  2.81981822452137E-07
(PID.TID 0000.0001)  cg2d: iter=    69 ; resid.=  2.31948568173873E-07
(PID.TID 0000.0001)  cg2d: iter=    70 ; resid.=  2.09198561751446E-07
(PID.TID 0000.0001)  cg2d: iter=    71 ; resid.=  1.86485724421205E-07
(PID.TID 0000.0001)  cg2d: iter=    72 ; resid.=  1.49566149461031E-07
(PID.TID 0000.0001)  cg2d: iter=    73 ; resid.=  1.18527688395236E-07
(PID.TID 0000.0001)  cg2d: iter=    74 ; resid.=  1.03759430745598E-07
(PID.TID 0000.0001)  cg2d: iter=    75 ; resid.=  8.26682344437508E-08
(PID.TID 0000.0001)  cg2d: iter=    76 ; resid.=  7.06816213426879E-08
(PID.TID 0000.0001)  cg2d: iter=    77 ; resid.=  6.20281776662609E-08
(PID.TID 0000.0001)  cg2d: iter=    78 ; resid.=  5.23296387273818E-08
(PID.TID 0000.0001)  cg2d: iter=    79 ; resid.=  4.32830670414721E-08
(PID.TID 0000.0001)  cg2d: iter=    80 ; resid.=  3.50504433412799E-08
(PID.TID 0000.0001)  cg2d: iter=    81 ; resid.=  2.81304355999050E-08
(PID.TID 0000.0001)  cg2d: iter=    82 ; resid.=  2.17924634342125E-08
(PID.TID 0000.0001)  cg2d: iter=    83 ; resid.=  1.66716877543501E-08
(PID.TID 0000.0001)  cg2d: iter=    84 ; resid.=  1.32125359548375E-08
(PID.TID 0000.0001)  cg2d: iter=    85 ; resid.=  9.78427982444683E-09
(PID.TID 0000.0001)  cg2d: iter=    86 ; resid.=  7.50144947216652E-09
(PID.TID 0000.0001)  cg2d: iter=    87 ; resid.=  5.77892657232481E-09
(PID.TID 0000.0001)  cg2d: iter=    88 ; resid.=  4.33701571976582E-09
(PID.TID 0000.0001)  cg2d: iter=    89 ; resid.=  3.30203014513552E-09
(PID.TID 0000.0001)  cg2d: iter=    90 ; resid.=  2.71142980297083E-09
(PID.TID 0000.0001)  cg2d: iter=    91 ; resid.=  2.18980779677908E-09
(PID.TID 0000.0001)  cg2d: iter=    92 ; resid.=  1.71987909675360E-09
(PID.TID 0000.0001)  cg2d: iter=    93 ; resid.=  1.28980856319736E-09
(PID.TID 0000.0001)  cg2d: iter=    94 ; resid.=  9.73913760770169E-10
(PID.TID 0000.0001)  cg2d: iter=    95 ; resid.=  7.50776403441880E-10
(PID.TID 0000.0001)  cg2d: iter=    96 ; resid.=  6.31005773513563E-10
(PID.TID 0000.0001)  cg2d: iter=    97 ; resid.=  5.19800563758614E-10
(PID.TID 0000.0001)  cg2d: iter=    98 ; resid.=  4.29969671574875E-10
(PID.TID 0000.0001)  cg2d: iter=    99 ; resid.=  3.39526521867987E-10
(PID.TID 0000.0001)  cg2d: iter=   100 ; resid.=  2.94450566831079E-10
(PID.TID 0000.0001)  cg2d: iter=   101 ; resid.=  2.42839703993279E-10
(PID.TID 0000.0001)  cg2d: iter=   102 ; resid.=  1.89489270358764E-10
(PID.TID 0000.0001)  cg2d: iter=   103 ; resid.=  1.37756604500451E-10
(PID.TID 0000.0001)  cg2d: iter=   104 ; resid.=  1.12030219730042E-10
(PID.TID 0000.0001)  cg2d: iter=   105 ; resid.=  1.01261572464507E-10
(PID.TID 0000.0001)  cg2d: iter=   106 ; resid.=  9.11845823683999E-11
(PID.TID 0000.0001)  cg2d: iter=   107 ; resid.=  7.62608762543115E-11
(PID.TID 0000.0001)  cg2d: iter=   108 ; resid.=  6.18011785106944E-11
(PID.TID 0000.0001)  cg2d: iter=   109 ; resid.=  4.69710302338187E-11
(PID.TID 0000.0001)  cg2d: iter=   110 ; resid.=  3.52481999638455E-11
(PID.TID 0000.0001)  cg2d: iter=   111 ; resid.=  2.91250844005206E-11
(PID.TID 0000.0001)  cg2d: iter=   112 ; resid.=  2.03462893061475E-11
(PID.TID 0000.0001)  cg2d: iter=   113 ; resid.=  1.41747545788637E-11
(PID.TID 0000.0001)  cg2d: iter=   114 ; resid.=  1.02162239023912E-11
(PID.TID 0000.0001)  cg2d: iter=   115 ; resid.=  7.20292249906748E-12
(PID.TID 0000.0001)  cg2d: iter=   116 ; resid.=  5.05678303749477E-12
(PID.TID 0000.0001)  cg2d: iter=   117 ; resid.=  3.96001653218267E-12
(PID.TID 0000.0001)  cg2d: iter=   118 ; resid.=  2.86912742544034E-12
(PID.TID 0000.0001)  cg2d: iter=   119 ; resid.=  2.19381938968474E-12
(PID.TID 0000.0001)  cg2d: iter=   120 ; resid.=  1.67134759202345E-12
(PID.TID 0000.0001)  cg2d: iter=   121 ; resid.=  1.28271812728702E-12
(PID.TID 0000.0001)  cg2d: iter=   122 ; resid.=  1.05137084259423E-12
(PID.TID 0000.0001)  cg2d: iter=   123 ; resid.=  8.47973982872240E-13
(PID.TID 0000.0001)  cg2d: iter=   124 ; resid.=  7.03363781928572E-13
(PID.TID 0000.0001)  cg2d: iter=   125 ; resid.=  5.32570374563623E-13
(PID.TID 0000.0001)  cg2d: iter=   126 ; resid.=  3.89910869878235E-13
(PID.TID 0000.0001)  cg2d: iter=   127 ; resid.=  2.88155278476587E-13
(PID.TID 0000.0001)  cg2d: iter=   128 ; resid.=  2.21826303074743E-13
(PID.TID 0000.0001)  cg2d: iter=   129 ; resid.=  1.64752808501753E-13
(PID.TID 0000.0001)  cg2d: iter=   130 ; resid.=  1.11157787882356E-13
(PID.TID 0000.0001)  cg2d: iter=   131 ; resid.=  8.18815837068630E-14
DEBUG_STATS_RL:    cg2d_x (SOLVE_FOR_PRESSURE)  min= -1.88798389719699E+01
DEBUG_STATS_RL:    cg2d_x (SOLVE_FOR_PRESSURE)  max=  9.07129023237931E+00
DEBUG_STATS_RL:    cg2d_x (SOLVE_FOR_PRESSURE) mean= -1.78451893198610E+00
DEBUG_STATS_RL:    cg2d_x (SOLVE_FOR_PRESSURE) S.D.=  7.10805869035958E+00
(PID.TID 0000.0001)      cg2d_init_res =   2.60347747960477E-01
(PID.TID 0000.0001)      cg2d_iters(min,last) =      -1     131
(PID.TID 0000.0001)      cg2d_last_res =   8.18815837068630E-14
(PID.TID 0000.0001) // =======================================================
(PID.TID 0000.0001) // Begin MONITOR dynamic field statistics
(PID.TID 0000.0001) // =======================================================
(PID.TID 0000.0001) %MON time_tsnumber                =                    74
(PID.TID 0000.0001) %MON time_secondsf                =   6.3936000000000E+06
(PID.TID 0000.0001) %MON dynstat_eta_max              =   9.2469829076239E-01
(PID.TID 0000.0001) %MON dynstat_eta_min              =  -1.9245503539214E+00
(PID.TID 0000.0001) %MON dynstat_eta_mean             =  -5.2450177950407E-03
(PID.TID 0000.0001) %MON dynstat_eta_sd               =   6.2569615890843E-01
(PID.TID 0000.0001) %MON dynstat_eta_del2             =   2.4471119685317E-03
(PID.TID 0000.0001) %MON dynstat_uvel_max             =   1.4347023292815E-01
(PID.TID 0000.0001) %MON dynstat_uvel_min             =  -1.2139548559844E-01
(PID.TID 0000.0001) %MON dynstat_uvel_mean            =   2.1982107808508E-03
(PID.TID 0000.0001) %MON dynstat_uvel_sd              =   1.3614507553614E-02
(PID.TID 0000.0001) %MON dynstat_uvel_del2            =   8.2203442808942E-05
(PID.TID 0000.0001) %MON dynstat_vvel_max             =   1.3783150204570E-01
(PID.TID 0000.0001) %MON dynstat_vvel_min             =  -7.8103995618340E-02
(PID.TID 0000.0001) %MON dynstat_vvel_mean            =   2.9998852000489E-05
(PID.TID 0000.0001) %MON dynstat_vvel_sd              =   8.2336629486956E-03
(PID.TID 0000.0001) %MON dynstat_vvel_del2            =   7.4343158845728E-05
(PID.TID 0000.0001) %MON dynstat_wvel_max             =   1.4526127650456E-04
(PID.TID 0000.0001) %MON dynstat_wvel_min             =  -8.7289529706185E-05
(PID.TID 0000.0001) %MON dynstat_wvel_mean            =   8.0416851628759E-23
(PID.TID 0000.0001) %MON dynstat_wvel_sd              =   1.0322629371820E-05
(PID.TID 0000.0001) %MON dynstat_wvel_del2            =   1.0358112357975E-07
(PID.TID 0000.0001) %MON dynstat_theta_max            =   3.0051233015086E+01
(PID.TID 0000.0001) %MON dynstat_theta_min            =  -1.9464538725155E+00
(PID.TID 0000.0001) %MON dynstat_theta_mean           =   3.6215868877567E+00
(PID.TID 0000.0001) %MON dynstat_theta_sd             =   4.4219219352724E+00
(PID.TID 0000.0001) %MON dynstat_theta_del2           =   4.6782426776196E-03
(PID.TID 0000.0001) %MON dynstat_salt_max             =   3.7449767750075E+01
(PID.TID 0000.0001) %MON dynstat_salt_min             =   2.9871757947399E+01
(PID.TID 0000.0001) %MON dynstat_salt_mean            =   3.4717291362026E+01
(PID.TID 0000.0001) %MON dynstat_salt_sd              =   2.9623631223779E-01
(PID.TID 0000.0001) %MON dynstat_salt_del2            =   9.6000695818704E-04
(PID.TID 0000.0001) %MON dynstat_sst_max              =   3.0051233015086E+01
(PID.TID 0000.0001) %MON dynstat_sst_min              =  -1.9464538725155E+00
(PID.TID 0000.0001) %MON dynstat_sst_mean             =   1.8817998691276E+01
(PID.TID 0000.0001) %MON dynstat_sst_sd               =   9.2419388580482E+00
(PID.TID 0000.0001) %MON dynstat_sst_del2             =   2.3844794395139E-02
(PID.TID 0000.0001) %MON dynstat_sss_max              =   3.7399627148890E+01
(PID.TID 0000.0001) %MON dynstat_sss_min              =   2.9871757947399E+01
(PID.TID 0000.0001) %MON dynstat_sss_mean             =   3.4838637274092E+01
(PID.TID 0000.0001) %MON dynstat_sss_sd               =   9.8079468132977E-01
(PID.TID 0000.0001) %MON dynstat_sss_del2             =   7.5964190459154E-03
(PID.TID 0000.0001) %MON forcing_qnet_max             =   2.8010399373372E+02
(PID.TID 0000.0001) %MON forcing_qnet_min             =  -1.6445414937337E+02
(PID.TID 0000.0001) %MON forcing_qnet_mean            =  -7.7117449893978E+00
(PID.TID 0000.0001) %MON forcing_qnet_sd              =   4.7682028835488E+01
(PID.TID 0000.0001) %MON forcing_qnet_del2            =   8.5372818761303E-01
(PID.TID 0000.0001) %MON forcing_qsw_max              =   0.0000000000000E+00
(PID.TID 0000.0001) %MON forcing_qsw_min              =   0.0000000000000E+00
(PID.TID 0000.0001) %MON forcing_qsw_mean             =   0.0000000000000E+00
(PID.TID 0000.0001) %MON forcing_qsw_sd               =   0.0000000000000E+00
(PID.TID 0000.0001) %MON forcing_qsw_del2             =   0.0000000000000E+00
(PID.TID 0000.0001) %MON forcing_empmr_max            =   6.9120334463454E-05
(PID.TID 0000.0001) %MON forcing_empmr_min            =  -8.2466058396828E-05
(PID.TID 0000.0001) %MON forcing_empmr_mean           =   5.7689091542740E-07
(PID.TID 0000.0001) %MON forcing_empmr_sd             =   2.6334295639993E-05
(PID.TID 0000.0001) %MON forcing_empmr_del2           =   3.6406482698784E-07
(PID.TID 0000.0001) %MON forcing_fu_max               =   3.5366856455803E-01
(PID.TID 0000.0001) %MON forcing_fu_min               =  -3.7581218282382E-01
(PID.TID 0000.0001) %MON forcing_fu_mean              =   2.0268330121471E-02
(PID.TID 0000.0001) %MON forcing_fu_sd                =   1.0099442893771E-01
(PID.TID 0000.0001) %MON forcing_fu_del2              =   8.2292198802484E-04
(PID.TID 0000.0001) %MON forcing_fv_max               =   1.7565003186464E-01
(PID.TID 0000.0001) %MON forcing_fv_min               =  -1.9033604760965E-01
(PID.TID 0000.0001) %MON forcing_fv_mean              =  -7.5087187401056E-03
(PID.TID 0000.0001) %MON forcing_fv_sd                =   4.2349967885931E-02
(PID.TID 0000.0001) %MON forcing_fv_del2              =   4.9608724441070E-04
(PID.TID 0000.0001) %MON trAdv_CFL_u_max              =   4.7744452703625E-02
(PID.TID 0000.0001) %MON trAdv_CFL_v_max              =   2.6945457081818E-02
(PID.TID 0000.0001) %MON trAdv_CFL_w_max              =   3.0396180839097E-02
(PID.TID 0000.0001) %MON advcfl_uvel_max              =   4.7422022181279E-02
(PID.TID 0000.0001) %MON advcfl_vvel_max              =   2.6778450295953E-02
(PID.TID 0000.0001) %MON advcfl_wvel_max              =   3.4385135041079E-02
(PID.TID 0000.0001) %MON advcfl_W_hf_max              =   3.6913453794100E-02
(PID.TID 0000.0001) %MON pe_b_mean                    =   5.0100111746216E-04
(PID.TID 0000.0001) %MON ke_max                       =   1.1639659122172E-02
(PID.TID 0000.0001) %MON ke_mean                      =   1.1684055377013E-04
(PID.TID 0000.0001) %MON ke_vol                       =   1.3226782436723E+18
(PID.TID 0000.0001) %MON vort_r_min                   =  -3.1338628364881E-07
(PID.TID 0000.0001) %MON vort_r_max                   =   4.2644851060269E-07
(PID.TID 0000.0001) %MON vort_a_mean                  =  -2.5274806690773E-05
(PID.TID 0000.0001) %MON vort_a_sd                    =   7.3604624747823E-05
(PID.TID 0000.0001) %MON vort_p_mean                  =  -3.1845654909075E-05
(PID.TID 0000.0001) %MON vort_p_sd                    =   1.3162471719623E-04
(PID.TID 0000.0001) %MON surfExpan_theta_mean         =   1.9291370383734E-08
(PID.TID 0000.0001) %MON surfExpan_salt_mean          =   4.0296599795223E-08
(PID.TID 0000.0001) // =======================================================
(PID.TID 0000.0001) // End MONITOR dynamic field statistics
(PID.TID 0000.0001) // =======================================================
 EXTERNAL_FIELDS_LOAD,        74 : iP,iLd,i0,i1=    2    3    2    3 ; Wght=  0.0333333333  0.9666666667
 EXTERNAL_FIELDS_LOAD: (fu0,1),fu,fv= -1.4435E-02 -2.7199E-02 -2.6773E-02 -1.1467E-03
 EXTERNAL_FIELDS_LOAD: SST,SSS,Q,E-P= -1.9550E-01  3.4574E+01  2.1623E+02  9.0573E-06
DEBUG_STATS_RL:          Uvel (THERMODYNAMICS)  min= -1.21395485598443E-01
DEBUG_STATS_RL:          Uvel (THERMODYNAMICS)  max=  1.43470232928154E-01
DEBUG_STATS_RL:          Uvel (THERMODYNAMICS) mean=  6.01108369446587E-03
DEBUG_STATS_RL:          Uvel (THERMODYNAMICS) S.D.=  2.21597641651483E-02
DEBUG_STATS_RL:          Vvel (THERMODYNAMICS)  min= -7.81039956183399E-02
DEBUG_STATS_RL:          Vvel (THERMODYNAMICS)  max=  1.37831502045702E-01
DEBUG_STATS_RL:          Vvel (THERMODYNAMICS) mean=  7.44329820098394E-04
DEBUG_STATS_RL:          Vvel (THERMODYNAMICS) S.D.=  1.32631429779288E-02
DEBUG_STATS_RL:          Wvel (THERMODYNAMICS)  min= -8.72895297061850E-05
DEBUG_STATS_RL:          Wvel (THERMODYNAMICS)  max=  1.45261276504558E-04
DEBUG_STATS_RL:          Wvel (THERMODYNAMICS) mean= -4.50496836290730E-08
DEBUG_STATS_RL:          Wvel (THERMODYNAMICS) S.D.=  9.16573253983289E-06
DEBUG_STATS_RL:         Theta (THERMODYNAMICS)  min= -1.94903234668252E+00
DEBUG_STATS_RL:         Theta (THERMODYNAMICS)  max=  3.00561846588978E+01
DEBUG_STATS_RL:         Theta (THERMODYNAMICS) mean=  3.21138495348382E+00
DEBUG_STATS_RL:         Theta (THERMODYNAMICS) S.D.=  5.87065357811760E+00
DEBUG_STATS_RL:          Salt (THERMODYNAMICS)  min= -6.86339798922060E-04
DEBUG_STATS_RL:          Salt (THERMODYNAMICS)  max=  3.74488008922570E+01
DEBUG_STATS_RL:          Salt (THERMODYNAMICS) mean=  1.88440530286935E+01
DEBUG_STATS_RL:          Salt (THERMODYNAMICS) S.D.=  1.73002764768522E+01
DEBUG_STATS_RL:         GtNm1 (THERMODYNAMICS)  min= -2.78944491324053E-06
DEBUG_STATS_RL:         GtNm1 (THERMODYNAMICS)  max=  1.77404905094498E-06
DEBUG_STATS_RL:         GtNm1 (THERMODYNAMICS) mean=  1.07198800266533E-09
DEBUG_STATS_RL:         GtNm1 (THERMODYNAMICS) S.D.=  1.36616954806593E-07
DEBUG_STATS_RL:         GsNm1 (THERMODYNAMICS)  min= -2.96887492390473E-07
DEBUG_STATS_RL:         GsNm1 (THERMODYNAMICS)  max=  2.15910486339617E-07
DEBUG_STATS_RL:         GsNm1 (THERMODYNAMICS) mean=  7.59923268128859E-11
DEBUG_STATS_RL:         GsNm1 (THERMODYNAMICS) S.D.=  1.28992168793194E-08
DEBUG_STATS_RL:                EtaN (DYNAMICS)  min= -1.92455035392141E+00
DEBUG_STATS_RL:                EtaN (DYNAMICS)  max=  9.24698290762392E-01
DEBUG_STATS_RL:                EtaN (DYNAMICS) mean= -1.81908148010816E-01
DEBUG_STATS_RL:                EtaN (DYNAMICS) S.D.=  7.24572751310865E-01
DEBUG_STATS_RL:                Uvel (DYNAMICS)  min= -1.21395485598443E-01
DEBUG_STATS_RL:                Uvel (DYNAMICS)  max=  1.43470232928154E-01
DEBUG_STATS_RL:                Uvel (DYNAMICS) mean=  6.01108369446587E-03
DEBUG_STATS_RL:                Uvel (DYNAMICS) S.D.=  2.21597641651483E-02
DEBUG_STATS_RL:                Vvel (DYNAMICS)  min= -7.81039956183399E-02
DEBUG_STATS_RL:                Vvel (DYNAMICS)  max=  1.37831502045702E-01
DEBUG_STATS_RL:                Vvel (DYNAMICS) mean=  7.44329820098394E-04
DEBUG_STATS_RL:                Vvel (DYNAMICS) S.D.=  1.32631429779288E-02
DEBUG_STATS_RL:                Wvel (DYNAMICS)  min= -8.72895297061850E-05
DEBUG_STATS_RL:                Wvel (DYNAMICS)  max=  1.45261276504558E-04
DEBUG_STATS_RL:                Wvel (DYNAMICS) mean= -4.50496836290730E-08
DEBUG_STATS_RL:                Wvel (DYNAMICS) S.D.=  9.16573253983289E-06
DEBUG_STATS_RL:               Theta (DYNAMICS)  min= -1.94903234668252E+00
DEBUG_STATS_RL:               Theta (DYNAMICS)  max=  3.00561846588978E+01
DEBUG_STATS_RL:               Theta (DYNAMICS) mean=  3.21138495348382E+00
DEBUG_STATS_RL:               Theta (DYNAMICS) S.D.=  5.87065357811760E+00
DEBUG_STATS_RL:                Salt (DYNAMICS)  min= -6.86339798922060E-04
DEBUG_STATS_RL:                Salt (DYNAMICS)  max=  3.74488008922570E+01
DEBUG_STATS_RL:                Salt (DYNAMICS) mean=  1.88440530286935E+01
DEBUG_STATS_RL:                Salt (DYNAMICS) S.D.=  1.73002764768522E+01
DEBUG_STATS_RL:                  Gu (DYNAMICS)  min= -1.20700454335416E-01
DEBUG_STATS_RL:                  Gu (DYNAMICS)  max=  1.41416913010595E-01
DEBUG_STATS_RL:                  Gu (DYNAMICS) mean=  5.96011553052942E-03
DEBUG_STATS_RL:                  Gu (DYNAMICS) S.D.=  2.26755406469391E-02
DEBUG_STATS_RL:                  Gv (DYNAMICS)  min= -8.24235780058339E-02
DEBUG_STATS_RL:                  Gv (DYNAMICS)  max=  1.38025984636669E-01
DEBUG_STATS_RL:                  Gv (DYNAMICS) mean=  3.41958985408823E-03
DEBUG_STATS_RL:                  Gv (DYNAMICS) S.D.=  1.46111863448478E-02
DEBUG_STATS_RL:               GuNm1 (DYNAMICS)  min= -9.96426592564962E-06
DEBUG_STATS_RL:               GuNm1 (DYNAMICS)  max=  9.28060909888233E-06
DEBUG_STATS_RL:               GuNm1 (DYNAMICS) mean=  5.98733736827515E-09
DEBUG_STATS_RL:               GuNm1 (DYNAMICS) S.D.=  1.20817872688181E-06
DEBUG_STATS_RL:               GvNm1 (DYNAMICS)  min= -9.83712672871799E-06
DEBUG_STATS_RL:               GvNm1 (DYNAMICS)  max=  1.55436000856814E-05
DEBUG_STATS_RL:               GvNm1 (DYNAMICS) mean=  7.41071105221000E-07
DEBUG_STATS_RL:               GvNm1 (DYNAMICS) S.D.=  2.61308977472732E-06
DEBUG_STATS_RL:               GtNm1 (DYNAMICS)  min= -2.78944491324053E-06
DEBUG_STATS_RL:               GtNm1 (DYNAMICS)  max=  1.77404905094498E-06
DEBUG_STATS_RL:               GtNm1 (DYNAMICS) mean=  1.07198800266533E-09
DEBUG_STATS_RL:               GtNm1 (DYNAMICS) S.D.=  1.36616954806593E-07
DEBUG_STATS_RL:               GsNm1 (DYNAMICS)  min= -2.96887492390473E-07
DEBUG_STATS_RL:               GsNm1 (DYNAMICS)  max=  2.15910486339617E-07
DEBUG_STATS_RL:               GsNm1 (DYNAMICS) mean=  7.59923268128859E-11
DEBUG_STATS_RL:               GsNm1 (DYNAMICS) S.D.=  1.28992168793194E-08
DEBUG_STATS_RL:    cg2d_b (SOLVE_FOR_PRESSURE)  min= -2.21395933139138E+04
DEBUG_STATS_RL:    cg2d_b (SOLVE_FOR_PRESSURE)  max=  2.42063745380332E+04
DEBUG_STATS_RL:    cg2d_b (SOLVE_FOR_PRESSURE) mean=  5.07207650927888E+00
DEBUG_STATS_RL:    cg2d_b (SOLVE_FOR_PRESSURE) S.D.=  3.89346626974713E+03
 cg2d: Sum(rhs),rhsMax =   4.85072934012958E-01  1.58993949042760E+00
(PID.TID 0000.0001)  cg2d: iter=     1 ; resid.=  7.43847448927755E-02
(PID.TID 0000.0001)  cg2d: iter=     2 ; resid.=  4.18903731229724E-02
(PID.TID 0000.0001)  cg2d: iter=     3 ; resid.=  3.48538205844382E-02
(PID.TID 0000.0001)  cg2d: iter=     4 ; resid.=  3.19780759738655E-02
(PID.TID 0000.0001)  cg2d: iter=     5 ; resid.=  2.78461618181163E-02
(PID.TID 0000.0001)  cg2d: iter=     6 ; resid.=  2.19957109263474E-02
(PID.TID 0000.0001)  cg2d: iter=     7 ; resid.=  1.73657727680033E-02
(PID.TID 0000.0001)  cg2d: iter=     8 ; resid.=  1.29248343225403E-02
(PID.TID 0000.0001)  cg2d: iter=     9 ; resid.=  1.07777329133613E-02
(PID.TID 0000.0001)  cg2d: iter=    10 ; resid.=  9.58368505146666E-03
(PID.TID 0000.0001)  cg2d: iter=    11 ; resid.=  8.40603359523630E-03
(PID.TID 0000.0001)  cg2d: iter=    12 ; resid.=  7.31628134273620E-03
(PID.TID 0000.0001)  cg2d: iter=    13 ; resid.=  5.61651501439442E-03
(PID.TID 0000.0001)  cg2d: iter=    14 ; resid.=  4.86213198898432E-03
(PID.TID 0000.0001)  cg2d: iter=    15 ; resid.=  4.29419940980369E-03
(PID.TID 0000.0001)  cg2d: iter=    16 ; resid.=  3.64400651517638E-03
(PID.TID 0000.0001)  cg2d: iter=    17 ; resid.=  2.84811555256325E-03
(PID.TID 0000.0001)  cg2d: iter=    18 ; resid.=  2.47374312056785E-03
(PID.TID 0000.0001)  cg2d: iter=    19 ; resid.=  2.09650746192161E-03
(PID.TID 0000.0001)  cg2d: iter=    20 ; resid.=  1.72325489737947E-03
(PID.TID 0000.0001)  cg2d: iter=    21 ; resid.=  1.43185381126783E-03
(PID.TID 0000.0001)  cg2d: iter=    22 ; resid.=  1.15084045471480E-03
(PID.TID 0000.0001)  cg2d: iter=    23 ; resid.=  1.00857291563105E-03
(PID.TID 0000.0001)  cg2d: iter=    24 ; resid.=  8.59519438563495E-04
(PID.TID 0000.0001)  cg2d: iter=    25 ; resid.=  7.56961404447890E-04
(PID.TID 0000.0001)  cg2d: iter=    26 ; resid.=  6.25373103526701E-04
(PID.TID 0000.0001)  cg2d: iter=    27 ; resid.=  4.71118011818007E-04
(PID.TID 0000.0001)  cg2d: iter=    28 ; resid.=  3.68773206949880E-04
(PID.TID 0000.0001)  cg2d: iter=    29 ; resid.=  2.90439037685809E-04
(PID.TID 0000.0001)  cg2d: iter=    30 ; resid.=  2.51228802111303E-04
(PID.TID 0000.0001)  cg2d: iter=    31 ; resid.=  2.29677769367883E-04
(PID.TID 0000.0001)  cg2d: iter=    32 ; resid.=  1.94231158848592E-04
(PID.TID 0000.0001)  cg2d: iter=    33 ; resid.=  1.62233887943498E-04
(PID.TID 0000.0001)  cg2d: iter=    34 ; resid.=  1.36136675021527E-04
(PID.TID 0000.0001)  cg2d: iter=    35 ; resid.=  1.09831659162185E-04
(PID.TID 0000.0001)  cg2d: iter=    36 ; resid.=  8.83023944906456E-05
(PID.TID 0000.0001)  cg2d: iter=    37 ; resid.=  7.25906227771337E-05
(PID.TID 0000.0001)  cg2d: iter=    38 ; resid.=  6.04029781887482E-05
(PID.TID 0000.0001)  cg2d: iter=    39 ; resid.=  5.27346488237556E-05
(PID.TID 0000.0001)  cg2d: iter=    40 ; resid.=  4.55101442463924E-05
(PID.TID 0000.0001)  cg2d: iter=    41 ; resid.=  3.47089352762315E-05
(PID.TID 0000.0001)  cg2d: iter=    42 ; resid.=  3.05436045930247E-05
(PID.TID 0000.0001)  cg2d: iter=    43 ; resid.=  2.83783849327205E-05
(PID.TID 0000.0001)  cg2d: iter=    44 ; resid.=  2.55859165280789E-05
(PID.TID 0000.0001)  cg2d: iter=    45 ; resid.=  2.17834069860714E-05
(PID.TID 0000.0001)  cg2d: iter=    46 ; resid.=  1.79648399479278E-05
(PID.TID 0000.0001)  cg2d: iter=    47 ; resid.=  1.44723941236873E-05
(PID.TID 0000.0001)  cg2d: iter=    48 ; resid.=  1.18706925470207E-05
(PID.TID 0000.0001)  cg2d: iter=    49 ; resid.=  9.91765478672120E-06
(PID.TID 0000.0001)  cg2d: iter=    50 ; resid.=  8.12594007713563E-06
(PID.TID 0000.0001)  cg2d: iter=    51 ; resid.=  6.70499095706836E-06
(PID.TID 0000.0001)  cg2d: iter=    52 ; resid.=  5.32826029206978E-06
(PID.TID 0000.0001)  cg2d: iter=    53 ; resid.=  4.62707952541061E-06
(PID.TID 0000.0001)  cg2d: iter=    54 ; resid.=  3.86879646669855E-06
(PID.TID 0000.0001)  cg2d: iter=    55 ; resid.=  3.31169669728829E-06
(PID.TID 0000.0001)  cg2d: iter=    56 ; resid.=  2.79131948276498E-06
(PID.TID 0000.0001)  cg2d: iter=    57 ; resid.=  2.43662463139183E-06
(PID.TID 0000.0001)  cg2d: iter=    58 ; resid.=  2.02365000147413E-06
(PID.TID 0000.0001)  cg2d: iter=    59 ; resid.=  1.55194780704904E-06
(PID.TID 0000.0001)  cg2d: iter=    60 ; resid.=  1.22342466474545E-06
(PID.TID 0000.0001)  cg2d: iter=    61 ; resid.=  1.02402926314186E-06
(PID.TID 0000.0001)  cg2d: iter=    62 ; resid.=  8.59872034927666E-07
(PID.TID 0000.0001)  cg2d: iter=    63 ; resid.=  6.69626954373869E-07
(PID.TID 0000.0001)  cg2d: iter=    64 ; resid.=  5.51697074245497E-07
(PID.TID 0000.0001)  cg2d: iter=    65 ; resid.=  4.91199456315024E-07
(PID.TID 0000.0001)  cg2d: iter=    66 ; resid.=  4.49035375678367E-07
(PID.TID 0000.0001)  cg2d: iter=    67 ; resid.=  3.76391613006417E-07
(PID.TID 0000.0001)  cg2d: iter=    68 ; resid.=  2.85003507551656E-07
(PID.TID 0000.0001)  cg2d: iter=    69 ; resid.=  2.19414380891111E-07
(PID.TID 0000.0001)  cg2d: iter=    70 ; resid.=  1.76370128284603E-07
(PID.TID 0000.0001)  cg2d: iter=    71 ; resid.=  1.46783717294674E-07
(PID.TID 0000.0001)  cg2d: iter=    72 ; resid.=  1.19227391209497E-07
(PID.TID 0000.0001)  cg2d: iter=    73 ; resid.=  9.45994962111768E-08
(PID.TID 0000.0001)  cg2d: iter=    74 ; resid.=  8.08449567557070E-08
(PID.TID 0000.0001)  cg2d: iter=    75 ; resid.=  6.37185027361264E-08
(PID.TID 0000.0001)  cg2d: iter=    76 ; resid.=  5.36459363460288E-08
(PID.TID 0000.0001)  cg2d: iter=    77 ; resid.=  4.73276021143544E-08
(PID.TID 0000.0001)  cg2d: iter=    78 ; resid.=  4.07773408472122E-08
(PID.TID 0000.0001)  cg2d: iter=    79 ; resid.=  3.52126867249686E-08
(PID.TID 0000.0001)  cg2d: iter=    80 ; resid.=  3.01997108845215E-08
(PID.TID 0000.0001)  cg2d: iter=    81 ; resid.=  2.54619327084223E-08
(PID.TID 0000.0001)  cg2d: iter=    82 ; resid.=  1.98745017502858E-08
(PID.TID 0000.0001)  cg2d: iter=    83 ; resid.=  1.55567939263516E-08
(PID.TID 0000.0001)  cg2d: iter=    84 ; resid.=  1.23279358518102E-08
(PID.TID 0000.0001)  cg2d: iter=    85 ; resid.=  9.79634171914606E-09
(PID.TID 0000.0001)  cg2d: iter=    86 ; resid.=  8.09714709115598E-09
(PID.TID 0000.0001)  cg2d: iter=    87 ; resid.=  6.58882098633530E-09
(PID.TID 0000.0001)  cg2d: iter=    88 ; resid.=  4.99285407367838E-09
(PID.TID 0000.0001)  cg2d: iter=    89 ; resid.=  3.79449426543560E-09
(PID.TID 0000.0001)  cg2d: iter=    90 ; resid.=  3.14960717946106E-09
(PID.TID 0000.0001)  cg2d: iter=    91 ; resid.=  2.46792137261322E-09
(PID.TID 0000.0001)  cg2d: iter=    92 ; resid.=  1.91119718139332E-09
(PID.TID 0000.0001)  cg2d: iter=    93 ; resid.=  1.38809536680573E-09
(PID.TID 0000.0001)  cg2d: iter=    94 ; resid.=  1.02938033694153E-09
(PID.TID 0000.0001)  cg2d: iter=    95 ; resid.=  7.59149643166839E-10
(PID.TID 0000.0001)  cg2d: iter=    96 ; resid.=  5.94450858900257E-10
(PID.TID 0000.0001)  cg2d: iter=    97 ; resid.=  4.59276623398063E-10
(PID.TID 0000.0001)  cg2d: iter=    98 ; resid.=  3.52249467234408E-10
(PID.TID 0000.0001)  cg2d: iter=    99 ; resid.=  2.61375066728448E-10
(PID.TID 0000.0001)  cg2d: iter=   100 ; resid.=  2.13138463570776E-10
(PID.TID 0000.0001)  cg2d: iter=   101 ; resid.=  1.68652551403220E-10
(PID.TID 0000.0001)  cg2d: iter=   102 ; resid.=  1.28579235273501E-10
(PID.TID 0000.0001)  cg2d: iter=   103 ; resid.=  9.01929221312445E-11
(PID.TID 0000.0001)  cg2d: iter=   104 ; resid.=  6.68753786500151E-11
(PID.TID 0000.0001)  cg2d: iter=   105 ; resid.=  5.63565086925374E-11
(PID.TID 0000.0001)  cg2d: iter=   106 ; resid.=  5.09746436851821E-11
(PID.TID 0000.0001)  cg2d: iter=   107 ; resid.=  4.39503738153737E-11
(PID.TID 0000.0001)  cg2d: iter=   108 ; resid.=  3.66627768441761E-11
(PID.TID 0000.0001)  cg2d: iter=   109 ; resid.=  3.02715150166434E-11
(PID.TID 0000.0001)  cg2d: iter=   110 ; resid.=  2.52842619554321E-11
(PID.TID 0000.0001)  cg2d: iter=   111 ; resid.=  2.27497722173561E-11
(PID.TID 0000.0001)  cg2d: iter=   112 ; resid.=  1.72626415264688E-11
(PID.TID 0000.0001)  cg2d: iter=   113 ; resid.=  1.29430294433815E-11
(PID.TID 0000.0001)  cg2d: iter=   114 ; resid.=  1.01043187600118E-11
(PID.TID 0000.0001)  cg2d: iter=   115 ; resid.=  7.48851845722311E-12
(PID.TID 0000.0001)  cg2d: iter=   116 ; resid.=  5.26025884278764E-12
(PID.TID 0000.0001)  cg2d: iter=   117 ; resid.=  4.10912800587022E-12
(PID.TID 0000.0001)  cg2d: iter=   118 ; resid.=  3.20908123719157E-12
(PID.TID 0000.0001)  cg2d: iter=   119 ; resid.=  2.71967488383273E-12
(PID.TID 0000.0001)  cg2d: iter=   120 ; resid.=  2.23907903766875E-12
(PID.TID 0000.0001)  cg2d: iter=   121 ; resid.=  1.80144347051077E-12
(PID.TID 0000.0001)  cg2d: iter=   122 ; resid.=  1.41829540463733E-12
(PID.TID 0000.0001)  cg2d: iter=   123 ; resid.=  1.03846678400460E-12
(PID.TID 0000.0001)  cg2d: iter=   124 ; resid.=  7.67230538051648E-13
(PID.TID 0000.0001)  cg2d: iter=   125 ; resid.=  5.34039311852429E-13
(PID.TID 0000.0001)  cg2d: iter=   126 ; resid.=  3.69376214392670E-13
(PID.TID 0000.0001)  cg2d: iter=   127 ; resid.=  2.59647663442146E-13
(PID.TID 0000.0001)  cg2d: iter=   128 ; resid.=  1.95117325395505E-13
(PID.TID 0000.0001)  cg2d: iter=   129 ; resid.=  1.45312301829199E-13
(PID.TID 0000.0001)  cg2d: iter=   130 ; resid.=  1.04458374423269E-13
(PID.TID 0000.0001)  cg2d: iter=   131 ; resid.=  8.21440419379083E-14
DEBUG_STATS_RL:    cg2d_x (SOLVE_FOR_PRESSURE)  min= -1.88484301711274E+01
DEBUG_STATS_RL:    cg2d_x (SOLVE_FOR_PRESSURE)  max=  9.11958698423202E+00
DEBUG_STATS_RL:    cg2d_x (SOLVE_FOR_PRESSURE) mean= -1.79284542149922E+00
DEBUG_STATS_RL:    cg2d_x (SOLVE_FOR_PRESSURE) S.D.=  7.11388162252964E+00
(PID.TID 0000.0001)      cg2d_init_res =   2.53939363166207E-01
(PID.TID 0000.0001)      cg2d_iters(min,last) =      -1     131
(PID.TID 0000.0001)      cg2d_last_res =   8.21440419379083E-14
(PID.TID 0000.0001) // =======================================================
(PID.TID 0000.0001) // Begin MONITOR dynamic field statistics
(PID.TID 0000.0001) // =======================================================
(PID.TID 0000.0001) %MON time_tsnumber                =                    75
(PID.TID 0000.0001) %MON time_secondsf                =   6.4800000000000E+06
(PID.TID 0000.0001) %MON dynstat_eta_max              =   9.2962150705738E-01
(PID.TID 0000.0001) %MON dynstat_eta_min              =  -1.9213486412974E+00
(PID.TID 0000.0001) %MON dynstat_eta_mean             =  -5.2920829207077E-03
(PID.TID 0000.0001) %MON dynstat_eta_sd               =   6.2586116625567E-01
(PID.TID 0000.0001) %MON dynstat_eta_del2             =   2.4502703109486E-03
(PID.TID 0000.0001) %MON dynstat_uvel_max             =   1.4172329397892E-01
(PID.TID 0000.0001) %MON dynstat_uvel_min             =  -1.2261740896365E-01
(PID.TID 0000.0001) %MON dynstat_uvel_mean            =   2.2768171409311E-03
(PID.TID 0000.0001) %MON dynstat_uvel_sd              =   1.3702516508817E-02
(PID.TID 0000.0001) %MON dynstat_uvel_del2            =   8.2212007398170E-05
(PID.TID 0000.0001) %MON dynstat_vvel_max             =   1.3607064706955E-01
(PID.TID 0000.0001) %MON dynstat_vvel_min             =  -7.4567872655951E-02
(PID.TID 0000.0001) %MON dynstat_vvel_mean            =   8.6057982976754E-07
(PID.TID 0000.0001) %MON dynstat_vvel_sd              =   8.1989077124113E-03
(PID.TID 0000.0001) %MON dynstat_vvel_del2            =   7.4647081294876E-05
(PID.TID 0000.0001) %MON dynstat_wvel_max             =   1.5250289346098E-04
(PID.TID 0000.0001) %MON dynstat_wvel_min             =  -8.0419966031531E-05
(PID.TID 0000.0001) %MON dynstat_wvel_mean            =   2.1473547203321E-22
(PID.TID 0000.0001) %MON dynstat_wvel_sd              =   1.0304588631194E-05
(PID.TID 0000.0001) %MON dynstat_wvel_del2            =   1.0358812744742E-07
(PID.TID 0000.0001) %MON dynstat_theta_max            =   3.0056184658898E+01
(PID.TID 0000.0001) %MON dynstat_theta_min            =  -1.9490323466825E+00
(PID.TID 0000.0001) %MON dynstat_theta_mean           =   3.6216091385722E+00
(PID.TID 0000.0001) %MON dynstat_theta_sd             =   4.4220729780693E+00
(PID.TID 0000.0001) %MON dynstat_theta_del2           =   4.6727281799577E-03
(PID.TID 0000.0001) %MON dynstat_salt_max             =   3.7448800892257E+01
(PID.TID 0000.0001) %MON dynstat_salt_min             =   2.9874032772924E+01
(PID.TID 0000.0001) %MON dynstat_salt_mean            =   3.4717291940584E+01
(PID.TID 0000.0001) %MON dynstat_salt_sd              =   2.9623733489850E-01
(PID.TID 0000.0001) %MON dynstat_salt_del2            =   9.6008516264776E-04
(PID.TID 0000.0001) %MON dynstat_sst_max              =   3.0056184658898E+01
(PID.TID 0000.0001) %MON dynstat_sst_min              =  -1.9490323466825E+00
(PID.TID 0000.0001) %MON dynstat_sst_mean             =   1.8818283707258E+01
(PID.TID 0000.0001) %MON dynstat_sst_sd               =   9.2495002614682E+00
(PID.TID 0000.0001) %MON dynstat_sst_del2             =   2.3828620438554E-02
(PID.TID 0000.0001) %MON dynstat_sss_max              =   3.7400686275429E+01
(PID.TID 0000.0001) %MON dynstat_sss_min              =   2.9874032772924E+01
(PID.TID 0000.0001) %MON dynstat_sss_mean             =   3.4838703346596E+01
(PID.TID 0000.0001) %MON dynstat_sss_sd               =   9.8103878831824E-01
(PID.TID 0000.0001) %MON dynstat_sss_del2             =   7.6005648849290E-03
(PID.TID 0000.0001) %MON forcing_qnet_max             =   2.7730584208171E+02
(PID.TID 0000.0001) %MON forcing_qnet_min             =  -1.6415487009684E+02
(PID.TID 0000.0001) %MON forcing_qnet_mean            =  -7.4884054897712E+00
(PID.TID 0000.0001) %MON forcing_qnet_sd              =   4.7058066194511E+01
(PID.TID 0000.0001) %MON forcing_qnet_del2            =   8.5296023684548E-01
(PID.TID 0000.0001) %MON forcing_qsw_max              =   0.0000000000000E+00
(PID.TID 0000.0001) %MON forcing_qsw_min              =   0.0000000000000E+00
(PID.TID 0000.0001) %MON forcing_qsw_mean             =   0.0000000000000E+00
(PID.TID 0000.0001) %MON forcing_qsw_sd               =   0.0000000000000E+00
(PID.TID 0000.0001) %MON forcing_qsw_del2             =   0.0000000000000E+00
(PID.TID 0000.0001) %MON forcing_empmr_max            =   6.9114578119904E-05
(PID.TID 0000.0001) %MON forcing_empmr_min            =  -8.2865237989912E-05
(PID.TID 0000.0001) %MON forcing_empmr_mean           =   5.6380098455305E-07
(PID.TID 0000.0001) %MON forcing_empmr_sd             =   2.6310215550859E-05
(PID.TID 0000.0001) %MON forcing_empmr_del2           =   3.6525018640228E-07
(PID.TID 0000.0001) %MON forcing_fu_max               =   3.5560998022556E-01
(PID.TID 0000.0001) %MON forcing_fu_min               =  -3.8218430181344E-01
(PID.TID 0000.0001) %MON forcing_fu_mean              =   2.0362529710929E-02
(PID.TID 0000.0001) %MON forcing_fu_sd                =   1.0155623203239E-01
(PID.TID 0000.0001) %MON forcing_fu_del2              =   8.3547097553751E-04
(PID.TID 0000.0001) %MON forcing_fv_max               =   1.7947518900037E-01
(PID.TID 0000.0001) %MON forcing_fv_min               =  -1.9183383832375E-01
(PID.TID 0000.0001) %MON forcing_fv_mean              =  -7.5191470900751E-03
(PID.TID 0000.0001) %MON forcing_fv_sd                =   4.2508768930942E-02
(PID.TID 0000.0001) %MON forcing_fv_del2              =   5.0164590245370E-04
(PID.TID 0000.0001) %MON trAdv_CFL_u_max              =   4.7431653933152E-02
(PID.TID 0000.0001) %MON trAdv_CFL_v_max              =   2.6669327589285E-02
(PID.TID 0000.0001) %MON trAdv_CFL_w_max              =   3.2180959717933E-02
(PID.TID 0000.0001) %MON advcfl_uvel_max              =   4.6844596635164E-02
(PID.TID 0000.0001) %MON advcfl_vvel_max              =   2.6436344414805E-02
(PID.TID 0000.0001) %MON advcfl_wvel_max              =   3.6099315054874E-02
(PID.TID 0000.0001) %MON advcfl_W_hf_max              =   3.8753676455967E-02
(PID.TID 0000.0001) %MON pe_b_mean                    =   5.0126601437555E-04
(PID.TID 0000.0001) %MON ke_max                       =   1.1706677581453E-02
(PID.TID 0000.0001) %MON ke_mean                      =   1.1783580111833E-04
(PID.TID 0000.0001) %MON ke_vol                       =   1.3226782436723E+18
(PID.TID 0000.0001) %MON vort_r_min                   =  -3.1785460829135E-07
(PID.TID 0000.0001) %MON vort_r_max                   =   4.4347660517727E-07
(PID.TID 0000.0001) %MON vort_a_mean                  =  -2.5274806522959E-05
(PID.TID 0000.0001) %MON vort_a_sd                    =   7.3604641418864E-05
(PID.TID 0000.0001) %MON vort_p_mean                  =  -3.1845654697632E-05
(PID.TID 0000.0001) %MON vort_p_sd                    =   1.3162476529082E-04
(PID.TID 0000.0001) %MON surfExpan_theta_mean         =   1.7465132968352E-07
(PID.TID 0000.0001) %MON surfExpan_salt_mean          =   2.8933564655087E-08
(PID.TID 0000.0001) // =======================================================
(PID.TID 0000.0001) // End MONITOR dynamic field statistics
(PID.TID 0000.0001) // =======================================================
 EXTERNAL_FIELDS_LOAD,        75 : iP,iLd,i0,i1=    2    3    3    4 ; Wght=  1.0000000000  0.0000000000
 EXTERNAL_FIELDS_LOAD, it=        75 : Reading new data, i0,i1=    3    4 (prev=    2    3 )
(PID.TID 0000.0001)  MDS_READ_FIELD: opening global file: trenberth_taux.bin
(PID.TID 0000.0001)  MDS_READ_FIELD: opening global file: trenberth_taux.bin
(PID.TID 0000.0001)  MDS_READ_FIELD: opening global file: trenberth_tauy.bin
(PID.TID 0000.0001)  MDS_READ_FIELD: opening global file: trenberth_tauy.bin
(PID.TID 0000.0001)  MDS_READ_FIELD: opening global file: ncep_qnet.bin
(PID.TID 0000.0001)  MDS_READ_FIELD: opening global file: ncep_qnet.bin
(PID.TID 0000.0001)  MDS_READ_FIELD: opening global file: ncep_emp.bin
(PID.TID 0000.0001)  MDS_READ_FIELD: opening global file: ncep_emp.bin
(PID.TID 0000.0001)  MDS_READ_FIELD: opening global file: lev_sst.bin
(PID.TID 0000.0001)  MDS_READ_FIELD: opening global file: lev_sst.bin
(PID.TID 0000.0001)  MDS_READ_FIELD: opening global file: lev_sss.bin
(PID.TID 0000.0001)  MDS_READ_FIELD: opening global file: lev_sss.bin
 EXTERNAL_FIELDS_LOAD: (fu0,1),fu,fv= -2.7199E-02 -3.7252E-02 -2.7199E-02 -5.7807E-04
 EXTERNAL_FIELDS_LOAD: SST,SSS,Q,E-P= -1.8390E-01  3.4579E+01  2.1540E+02  9.0808E-06
DEBUG_STATS_RL:          Uvel (THERMODYNAMICS)  min= -1.22617408963648E-01
DEBUG_STATS_RL:          Uvel (THERMODYNAMICS)  max=  1.41723293978924E-01
DEBUG_STATS_RL:          Uvel (THERMODYNAMICS) mean=  6.07941431424885E-03
DEBUG_STATS_RL:          Uvel (THERMODYNAMICS) S.D.=  2.22682146310874E-02
DEBUG_STATS_RL:          Vvel (THERMODYNAMICS)  min= -7.45678726559509E-02
DEBUG_STATS_RL:          Vvel (THERMODYNAMICS)  max=  1.36070647069549E-01
DEBUG_STATS_RL:          Vvel (THERMODYNAMICS) mean=  7.73112534757331E-04
DEBUG_STATS_RL:          Vvel (THERMODYNAMICS) S.D.=  1.32434197925997E-02
DEBUG_STATS_RL:          Wvel (THERMODYNAMICS)  min= -8.04199660315314E-05
DEBUG_STATS_RL:          Wvel (THERMODYNAMICS)  max=  1.52502893460983E-04
DEBUG_STATS_RL:          Wvel (THERMODYNAMICS) mean= -3.55921873748775E-08
DEBUG_STATS_RL:          Wvel (THERMODYNAMICS) S.D.=  9.16608851483840E-06
DEBUG_STATS_RL:         Theta (THERMODYNAMICS)  min= -1.95141449702966E+00
DEBUG_STATS_RL:         Theta (THERMODYNAMICS)  max=  3.00603980408346E+01
DEBUG_STATS_RL:         Theta (THERMODYNAMICS) mean=  3.21135011489688E+00
DEBUG_STATS_RL:         Theta (THERMODYNAMICS) S.D.=  5.87100818161170E+00
DEBUG_STATS_RL:          Salt (THERMODYNAMICS)  min= -6.86339798922060E-04
DEBUG_STATS_RL:          Salt (THERMODYNAMICS)  max=  3.74478841020413E+01
DEBUG_STATS_RL:          Salt (THERMODYNAMICS) mean=  1.88440607019282E+01
DEBUG_STATS_RL:          Salt (THERMODYNAMICS) S.D.=  1.73002840475009E+01
DEBUG_STATS_RL:         GtNm1 (THERMODYNAMICS)  min= -2.77074362930763E-06
DEBUG_STATS_RL:         GtNm1 (THERMODYNAMICS)  max=  1.41305132074944E-06
DEBUG_STATS_RL:         GtNm1 (THERMODYNAMICS) mean=  6.02486679162076E-10
DEBUG_STATS_RL:         GtNm1 (THERMODYNAMICS) S.D.=  1.36035102381126E-07
DEBUG_STATS_RL:         GsNm1 (THERMODYNAMICS)  min= -2.98090319342799E-07
DEBUG_STATS_RL:         GsNm1 (THERMODYNAMICS)  max=  2.58618556316680E-07
DEBUG_STATS_RL:         GsNm1 (THERMODYNAMICS) mean=  8.82343592050731E-11
DEBUG_STATS_RL:         GsNm1 (THERMODYNAMICS) S.D.=  1.27711408684122E-08
DEBUG_STATS_RL:                EtaN (DYNAMICS)  min= -1.92134864129736E+00
DEBUG_STATS_RL:                EtaN (DYNAMICS)  max=  9.29621507057381E-01
DEBUG_STATS_RL:                EtaN (DYNAMICS) mean= -1.82756923700227E-01
DEBUG_STATS_RL:                EtaN (DYNAMICS) S.D.=  7.25166322378155E-01
DEBUG_STATS_RL:                Uvel (DYNAMICS)  min= -1.22617408963648E-01
DEBUG_STATS_RL:                Uvel (DYNAMICS)  max=  1.41723293978924E-01
DEBUG_STATS_RL:                Uvel (DYNAMICS) mean=  6.07941431424885E-03
DEBUG_STATS_RL:                Uvel (DYNAMICS) S.D.=  2.22682146310874E-02
DEBUG_STATS_RL:                Vvel (DYNAMICS)  min= -7.45678726559509E-02
DEBUG_STATS_RL:                Vvel (DYNAMICS)  max=  1.36070647069549E-01
DEBUG_STATS_RL:                Vvel (DYNAMICS) mean=  7.73112534757331E-04
DEBUG_STATS_RL:                Vvel (DYNAMICS) S.D.=  1.32434197925997E-02
DEBUG_STATS_RL:                Wvel (DYNAMICS)  min= -8.04199660315314E-05
DEBUG_STATS_RL:                Wvel (DYNAMICS)  max=  1.52502893460983E-04
DEBUG_STATS_RL:                Wvel (DYNAMICS) mean= -3.55921873748775E-08
DEBUG_STATS_RL:                Wvel (DYNAMICS) S.D.=  9.16608851483840E-06
DEBUG_STATS_RL:               Theta (DYNAMICS)  min= -1.95141449702966E+00
DEBUG_STATS_RL:               Theta (DYNAMICS)  max=  3.00603980408346E+01
DEBUG_STATS_RL:               Theta (DYNAMICS) mean=  3.21135011489688E+00
DEBUG_STATS_RL:               Theta (DYNAMICS) S.D.=  5.87100818161170E+00
DEBUG_STATS_RL:                Salt (DYNAMICS)  min= -6.86339798922060E-04
DEBUG_STATS_RL:                Salt (DYNAMICS)  max=  3.74478841020413E+01
DEBUG_STATS_RL:                Salt (DYNAMICS) mean=  1.88440607019282E+01
DEBUG_STATS_RL:                Salt (DYNAMICS) S.D.=  1.73002840475009E+01
DEBUG_STATS_RL:                  Gu (DYNAMICS)  min= -1.21896605764006E-01
DEBUG_STATS_RL:                  Gu (DYNAMICS)  max=  1.44852896883836E-01
DEBUG_STATS_RL:                  Gu (DYNAMICS) mean=  6.01571068424519E-03
DEBUG_STATS_RL:                  Gu (DYNAMICS) S.D.=  2.27718152279718E-02
DEBUG_STATS_RL:                  Gv (DYNAMICS)  min= -7.83141622024547E-02
DEBUG_STATS_RL:                  Gv (DYNAMICS)  max=  1.36220041979679E-01
DEBUG_STATS_RL:                  Gv (DYNAMICS) mean=  3.44955828833055E-03
DEBUG_STATS_RL:                  Gv (DYNAMICS) S.D.=  1.46541517684361E-02
DEBUG_STATS_RL:               GuNm1 (DYNAMICS)  min= -1.00070234941040E-05
DEBUG_STATS_RL:               GuNm1 (DYNAMICS)  max=  9.28178061547926E-06
DEBUG_STATS_RL:               GuNm1 (DYNAMICS) mean=  6.37389831134770E-09
DEBUG_STATS_RL:               GuNm1 (DYNAMICS) S.D.=  1.21056178183982E-06
DEBUG_STATS_RL:               GvNm1 (DYNAMICS)  min= -9.80826446851305E-06
DEBUG_STATS_RL:               GvNm1 (DYNAMICS)  max=  1.55289302195733E-05
DEBUG_STATS_RL:               GvNm1 (DYNAMICS) mean=  7.41489816485543E-07
DEBUG_STATS_RL:               GvNm1 (DYNAMICS) S.D.=  2.61163017192011E-06
DEBUG_STATS_RL:               GtNm1 (DYNAMICS)  min= -2.77074362930763E-06
DEBUG_STATS_RL:               GtNm1 (DYNAMICS)  max=  1.41305132074944E-06
DEBUG_STATS_RL:               GtNm1 (DYNAMICS) mean=  6.02486679162076E-10
DEBUG_STATS_RL:               GtNm1 (DYNAMICS) S.D.=  1.36035102381126E-07
DEBUG_STATS_RL:               GsNm1 (DYNAMICS)  min= -2.98090319342799E-07
DEBUG_STATS_RL:               GsNm1 (DYNAMICS)  max=  2.58618556316680E-07
DEBUG_STATS_RL:               GsNm1 (DYNAMICS) mean=  8.82343592050731E-11
DEBUG_STATS_RL:               GsNm1 (DYNAMICS) S.D.=  1.27711408684122E-08
DEBUG_STATS_RL:    cg2d_b (SOLVE_FOR_PRESSURE)  min= -2.25400561528989E+04
DEBUG_STATS_RL:    cg2d_b (SOLVE_FOR_PRESSURE)  max=  2.46279373160816E+04
DEBUG_STATS_RL:    cg2d_b (SOLVE_FOR_PRESSURE) mean=  5.11613771139751E+00
DEBUG_STATS_RL:    cg2d_b (SOLVE_FOR_PRESSURE) S.D.=  3.89543407995565E+03
 cg2d: Sum(rhs),rhsMax =   4.80911521329721E-01  1.61762886239284E+00
(PID.TID 0000.0001)  cg2d: iter=     1 ; resid.=  7.46967749991382E-02
(PID.TID 0000.0001)  cg2d: iter=     2 ; resid.=  4.99954100857200E-02
(PID.TID 0000.0001)  cg2d: iter=     3 ; resid.=  4.93212889163005E-02
(PID.TID 0000.0001)  cg2d: iter=     4 ; resid.=  4.74080173044204E-02
(PID.TID 0000.0001)  cg2d: iter=     5 ; resid.=  3.87104939624560E-02
(PID.TID 0000.0001)  cg2d: iter=     6 ; resid.=  2.98341370056989E-02
(PID.TID 0000.0001)  cg2d: iter=     7 ; resid.=  2.41037044690067E-02
(PID.TID 0000.0001)  cg2d: iter=     8 ; resid.=  1.91683628022816E-02
(PID.TID 0000.0001)  cg2d: iter=     9 ; resid.=  1.73693412933327E-02
(PID.TID 0000.0001)  cg2d: iter=    10 ; resid.=  1.60816751002268E-02
(PID.TID 0000.0001)  cg2d: iter=    11 ; resid.=  1.30333304092347E-02
(PID.TID 0000.0001)  cg2d: iter=    12 ; resid.=  1.03122786771724E-02
(PID.TID 0000.0001)  cg2d: iter=    13 ; resid.=  7.43608010417181E-03
(PID.TID 0000.0001)  cg2d: iter=    14 ; resid.=  6.54490229934333E-03
(PID.TID 0000.0001)  cg2d: iter=    15 ; resid.=  5.96791851087659E-03
(PID.TID 0000.0001)  cg2d: iter=    16 ; resid.=  5.17316072026199E-03
(PID.TID 0000.0001)  cg2d: iter=    17 ; resid.=  4.17826981281511E-03
(PID.TID 0000.0001)  cg2d: iter=    18 ; resid.=  3.60202188307114E-03
(PID.TID 0000.0001)  cg2d: iter=    19 ; resid.=  2.81806421122442E-03
(PID.TID 0000.0001)  cg2d: iter=    20 ; resid.=  2.07148853777355E-03
(PID.TID 0000.0001)  cg2d: iter=    21 ; resid.=  1.56032515415683E-03
(PID.TID 0000.0001)  cg2d: iter=    22 ; resid.=  1.21507875571586E-03
(PID.TID 0000.0001)  cg2d: iter=    23 ; resid.=  1.04692951212908E-03
(PID.TID 0000.0001)  cg2d: iter=    24 ; resid.=  8.80570722961825E-04
(PID.TID 0000.0001)  cg2d: iter=    25 ; resid.=  7.51387230608370E-04
(PID.TID 0000.0001)  cg2d: iter=    26 ; resid.=  6.15809578284281E-04
(PID.TID 0000.0001)  cg2d: iter=    27 ; resid.=  4.70146986544086E-04
(PID.TID 0000.0001)  cg2d: iter=    28 ; resid.=  3.76892956202040E-04
(PID.TID 0000.0001)  cg2d: iter=    29 ; resid.=  3.10228092193958E-04
(PID.TID 0000.0001)  cg2d: iter=    30 ; resid.=  2.81507602031055E-04
(PID.TID 0000.0001)  cg2d: iter=    31 ; resid.=  2.71072703167503E-04
(PID.TID 0000.0001)  cg2d: iter=    32 ; resid.=  2.29009608122824E-04
(PID.TID 0000.0001)  cg2d: iter=    33 ; resid.=  1.83755872826830E-04
(PID.TID 0000.0001)  cg2d: iter=    34 ; resid.=  1.42163221102796E-04
(PID.TID 0000.0001)  cg2d: iter=    35 ; resid.=  1.08366479056697E-04
(PID.TID 0000.0001)  cg2d: iter=    36 ; resid.=  8.25793886828132E-05
(PID.TID 0000.0001)  cg2d: iter=    37 ; resid.=  6.40522753849874E-05
(PID.TID 0000.0001)  cg2d: iter=    38 ; resid.=  5.07930136013288E-05
(PID.TID 0000.0001)  cg2d: iter=    39 ; resid.=  4.21151859178515E-05
(PID.TID 0000.0001)  cg2d: iter=    40 ; resid.=  3.40626644415958E-05
(PID.TID 0000.0001)  cg2d: iter=    41 ; resid.=  2.41868764278871E-05
(PID.TID 0000.0001)  cg2d: iter=    42 ; resid.=  1.98222900178681E-05
(PID.TID 0000.0001)  cg2d: iter=    43 ; resid.=  1.70278863555730E-05
(PID.TID 0000.0001)  cg2d: iter=    44 ; resid.=  1.44296038968259E-05
(PID.TID 0000.0001)  cg2d: iter=    45 ; resid.=  1.18961277062339E-05
(PID.TID 0000.0001)  cg2d: iter=    46 ; resid.=  1.00451161242248E-05
(PID.TID 0000.0001)  cg2d: iter=    47 ; resid.=  8.50859799344886E-06
(PID.TID 0000.0001)  cg2d: iter=    48 ; resid.=  7.17352981550157E-06
(PID.TID 0000.0001)  cg2d: iter=    49 ; resid.=  5.97906296329398E-06
(PID.TID 0000.0001)  cg2d: iter=    50 ; resid.=  4.83335074945095E-06
(PID.TID 0000.0001)  cg2d: iter=    51 ; resid.=  4.00127750782879E-06
(PID.TID 0000.0001)  cg2d: iter=    52 ; resid.=  3.30265507257956E-06
(PID.TID 0000.0001)  cg2d: iter=    53 ; resid.=  2.99552665586942E-06
(PID.TID 0000.0001)  cg2d: iter=    54 ; resid.=  2.66689627410707E-06
(PID.TID 0000.0001)  cg2d: iter=    55 ; resid.=  2.42417652758251E-06
(PID.TID 0000.0001)  cg2d: iter=    56 ; resid.=  2.08126290343315E-06
(PID.TID 0000.0001)  cg2d: iter=    57 ; resid.=  1.82249901070029E-06
(PID.TID 0000.0001)  cg2d: iter=    58 ; resid.=  1.44370345257155E-06
(PID.TID 0000.0001)  cg2d: iter=    59 ; resid.=  1.02931534026063E-06
(PID.TID 0000.0001)  cg2d: iter=    60 ; resid.=  7.29014403597128E-07
(PID.TID 0000.0001)  cg2d: iter=    61 ; resid.=  5.58659070236937E-07
(PID.TID 0000.0001)  cg2d: iter=    62 ; resid.=  4.44677593712437E-07
(PID.TID 0000.0001)  cg2d: iter=    63 ; resid.=  3.51936436804147E-07
(PID.TID 0000.0001)  cg2d: iter=    64 ; resid.=  2.87757365562448E-07
(PID.TID 0000.0001)  cg2d: iter=    65 ; resid.=  2.52804367412545E-07
(PID.TID 0000.0001)  cg2d: iter=    66 ; resid.=  2.31818954020430E-07
(PID.TID 0000.0001)  cg2d: iter=    67 ; resid.=  2.01397566910642E-07
(PID.TID 0000.0001)  cg2d: iter=    68 ; resid.=  1.60560736835330E-07
(PID.TID 0000.0001)  cg2d: iter=    69 ; resid.=  1.27453366674986E-07
(PID.TID 0000.0001)  cg2d: iter=    70 ; resid.=  1.06746960657884E-07
(PID.TID 0000.0001)  cg2d: iter=    71 ; resid.=  9.18780940642564E-08
(PID.TID 0000.0001)  cg2d: iter=    72 ; resid.=  7.90683018044215E-08
(PID.TID 0000.0001)  cg2d: iter=    73 ; resid.=  6.88285390053616E-08
(PID.TID 0000.0001)  cg2d: iter=    74 ; resid.=  6.39274153679894E-08
(PID.TID 0000.0001)  cg2d: iter=    75 ; resid.=  5.37364771070834E-08
(PID.TID 0000.0001)  cg2d: iter=    76 ; resid.=  4.42945823539518E-08
(PID.TID 0000.0001)  cg2d: iter=    77 ; resid.=  3.69184857168079E-08
(PID.TID 0000.0001)  cg2d: iter=    78 ; resid.=  3.13520310656002E-08
(PID.TID 0000.0001)  cg2d: iter=    79 ; resid.=  2.67146160497189E-08
(PID.TID 0000.0001)  cg2d: iter=    80 ; resid.=  2.26837266343559E-08
(PID.TID 0000.0001)  cg2d: iter=    81 ; resid.=  1.89969697893132E-08
(PID.TID 0000.0001)  cg2d: iter=    82 ; resid.=  1.45571296142035E-08
(PID.TID 0000.0001)  cg2d: iter=    83 ; resid.=  1.14267918748931E-08
(PID.TID 0000.0001)  cg2d: iter=    84 ; resid.=  9.12677141242721E-09
(PID.TID 0000.0001)  cg2d: iter=    85 ; resid.=  7.75707500188122E-09
(PID.TID 0000.0001)  cg2d: iter=    86 ; resid.=  6.97596196739388E-09
(PID.TID 0000.0001)  cg2d: iter=    87 ; resid.=  6.12506706815246E-09
(PID.TID 0000.0001)  cg2d: iter=    88 ; resid.=  4.91004293675047E-09
(PID.TID 0000.0001)  cg2d: iter=    89 ; resid.=  4.10584323312036E-09
(PID.TID 0000.0001)  cg2d: iter=    90 ; resid.=  3.65489120439636E-09
(PID.TID 0000.0001)  cg2d: iter=    91 ; resid.=  2.92620349070878E-09
(PID.TID 0000.0001)  cg2d: iter=    92 ; resid.=  2.27284933292255E-09
(PID.TID 0000.0001)  cg2d: iter=    93 ; resid.=  1.61125294051977E-09
(PID.TID 0000.0001)  cg2d: iter=    94 ; resid.=  1.18688973356781E-09
(PID.TID 0000.0001)  cg2d: iter=    95 ; resid.=  8.80474754902579E-10
(PID.TID 0000.0001)  cg2d: iter=    96 ; resid.=  6.88562666617397E-10
(PID.TID 0000.0001)  cg2d: iter=    97 ; resid.=  5.47230385559216E-10
(PID.TID 0000.0001)  cg2d: iter=    98 ; resid.=  4.44624543096769E-10
(PID.TID 0000.0001)  cg2d: iter=    99 ; resid.=  3.70467136540141E-10
(PID.TID 0000.0001)  cg2d: iter=   100 ; resid.=  3.39124641443660E-10
(PID.TID 0000.0001)  cg2d: iter=   101 ; resid.=  2.88103618550265E-10
(PID.TID 0000.0001)  cg2d: iter=   102 ; resid.=  2.28902922920526E-10
(PID.TID 0000.0001)  cg2d: iter=   103 ; resid.=  1.67226501291200E-10
(PID.TID 0000.0001)  cg2d: iter=   104 ; resid.=  1.29957378982002E-10
(PID.TID 0000.0001)  cg2d: iter=   105 ; resid.=  1.10385473564822E-10
(PID.TID 0000.0001)  cg2d: iter=   106 ; resid.=  9.39030632461792E-11
(PID.TID 0000.0001)  cg2d: iter=   107 ; resid.=  7.26167516631558E-11
(PID.TID 0000.0001)  cg2d: iter=   108 ; resid.=  5.51114350351218E-11
(PID.TID 0000.0001)  cg2d: iter=   109 ; resid.=  4.33251087930919E-11
(PID.TID 0000.0001)  cg2d: iter=   110 ; resid.=  3.48310332036422E-11
(PID.TID 0000.0001)  cg2d: iter=   111 ; resid.=  2.94735469627618E-11
(PID.TID 0000.0001)  cg2d: iter=   112 ; resid.=  2.12687572379635E-11
(PID.TID 0000.0001)  cg2d: iter=   113 ; resid.=  1.59108087687165E-11
(PID.TID 0000.0001)  cg2d: iter=   114 ; resid.=  1.27783200919825E-11
(PID.TID 0000.0001)  cg2d: iter=   115 ; resid.=  9.32824891212478E-12
(PID.TID 0000.0001)  cg2d: iter=   116 ; resid.=  6.29103252512790E-12
(PID.TID 0000.0001)  cg2d: iter=   117 ; resid.=  4.66835586992657E-12
(PID.TID 0000.0001)  cg2d: iter=   118 ; resid.=  3.60076525452740E-12
(PID.TID 0000.0001)  cg2d: iter=   119 ; resid.=  3.02427347985608E-12
(PID.TID 0000.0001)  cg2d: iter=   120 ; resid.=  2.38774054999281E-12
(PID.TID 0000.0001)  cg2d: iter=   121 ; resid.=  1.85573621188807E-12
(PID.TID 0000.0001)  cg2d: iter=   122 ; resid.=  1.41362802766251E-12
(PID.TID 0000.0001)  cg2d: iter=   123 ; resid.=  1.02392127433661E-12
(PID.TID 0000.0001)  cg2d: iter=   124 ; resid.=  7.31717572838188E-13
(PID.TID 0000.0001)  cg2d: iter=   125 ; resid.=  5.10990564575546E-13
(PID.TID 0000.0001)  cg2d: iter=   126 ; resid.=  3.61417313153512E-13
(PID.TID 0000.0001)  cg2d: iter=   127 ; resid.=  2.51461204549639E-13
(PID.TID 0000.0001)  cg2d: iter=   128 ; resid.=  1.83949505478709E-13
(PID.TID 0000.0001)  cg2d: iter=   129 ; resid.=  1.37314445484511E-13
(PID.TID 0000.0001)  cg2d: iter=   130 ; resid.=  1.07460257901563E-13
(PID.TID 0000.0001)  cg2d: iter=   131 ; resid.=  9.25162509541112E-14
DEBUG_STATS_RL:    cg2d_x (SOLVE_FOR_PRESSURE)  min= -1.87988812987316E+01
DEBUG_STATS_RL:    cg2d_x (SOLVE_FOR_PRESSURE)  max=  9.21959492431967E+00
DEBUG_STATS_RL:    cg2d_x (SOLVE_FOR_PRESSURE) mean= -1.80934238803732E+00
DEBUG_STATS_RL:    cg2d_x (SOLVE_FOR_PRESSURE) S.D.=  7.13239784496498E+00
(PID.TID 0000.0001)      cg2d_init_res =   2.46976492565819E-01
(PID.TID 0000.0001)      cg2d_iters(min,last) =      -1     131
(PID.TID 0000.0001)      cg2d_last_res =   9.25162509541112E-14
(PID.TID 0000.0001) // =======================================================
(PID.TID 0000.0001) // Begin MONITOR dynamic field statistics
(PID.TID 0000.0001) // =======================================================
(PID.TID 0000.0001) %MON time_tsnumber                =                    76
(PID.TID 0000.0001) %MON time_secondsf                =   6.5664000000000E+06
(PID.TID 0000.0001) %MON dynstat_eta_max              =   9.3981599636297E-01
(PID.TID 0000.0001) %MON dynstat_eta_min              =  -1.9162977878421E+00
(PID.TID 0000.0001) %MON dynstat_eta_mean             =  -5.3380553217105E-03
(PID.TID 0000.0001) %MON dynstat_eta_sd               =   6.2739775568932E-01
(PID.TID 0000.0001) %MON dynstat_eta_del2             =   2.4537848377104E-03
(PID.TID 0000.0001) %MON dynstat_uvel_max             =   1.3927604377781E-01
(PID.TID 0000.0001) %MON dynstat_uvel_min             =  -1.2380987946018E-01
(PID.TID 0000.0001) %MON dynstat_uvel_mean            =   2.3578059000259E-03
(PID.TID 0000.0001) %MON dynstat_uvel_sd              =   1.3783518235327E-02
(PID.TID 0000.0001) %MON dynstat_uvel_del2            =   8.2317293744127E-05
(PID.TID 0000.0001) %MON dynstat_vvel_max             =   1.3398581315758E-01
(PID.TID 0000.0001) %MON dynstat_vvel_min             =  -7.1208492334384E-02
(PID.TID 0000.0001) %MON dynstat_vvel_mean            =  -2.1955397543128E-05
(PID.TID 0000.0001) %MON dynstat_vvel_sd              =   8.1688104505879E-03
(PID.TID 0000.0001) %MON dynstat_vvel_del2            =   7.4777482668760E-05
(PID.TID 0000.0001) %MON dynstat_wvel_max             =   1.5863709471376E-04
(PID.TID 0000.0001) %MON dynstat_wvel_min             =  -7.2918730246684E-05
(PID.TID 0000.0001) %MON dynstat_wvel_mean            =  -1.0507404372828E-22
(PID.TID 0000.0001) %MON dynstat_wvel_sd              =   1.0288168988182E-05
(PID.TID 0000.0001) %MON dynstat_wvel_del2            =   1.0375424642671E-07
(PID.TID 0000.0001) %MON dynstat_theta_max            =   3.0060398040835E+01
(PID.TID 0000.0001) %MON dynstat_theta_min            =  -1.9514144970297E+00
(PID.TID 0000.0001) %MON dynstat_theta_mean           =   3.6216273835730E+00
(PID.TID 0000.0001) %MON dynstat_theta_sd             =   4.4222167452598E+00
(PID.TID 0000.0001) %MON dynstat_theta_del2           =   4.6677160189260E-03
(PID.TID 0000.0001) %MON dynstat_salt_max             =   3.7447884102041E+01
(PID.TID 0000.0001) %MON dynstat_salt_min             =   2.9875760987406E+01
(PID.TID 0000.0001) %MON dynstat_salt_mean            =   3.4717292781666E+01
(PID.TID 0000.0001) %MON dynstat_salt_sd              =   2.9623930991121E-01
(PID.TID 0000.0001) %MON dynstat_salt_del2            =   9.6024491386990E-04
(PID.TID 0000.0001) %MON dynstat_sst_max              =   3.0060398040835E+01
(PID.TID 0000.0001) %MON dynstat_sst_min              =  -1.9514144970297E+00
(PID.TID 0000.0001) %MON dynstat_sst_mean             =   1.8818239939665E+01
(PID.TID 0000.0001) %MON dynstat_sst_sd               =   9.2573548641162E+00
(PID.TID 0000.0001) %MON dynstat_sst_del2             =   2.3820506639746E-02
(PID.TID 0000.0001) %MON dynstat_sss_max              =   3.7401821555363E+01
(PID.TID 0000.0001) %MON dynstat_sss_min              =   2.9875760987406E+01
(PID.TID 0000.0001) %MON dynstat_sss_mean             =   3.4838770594396E+01
(PID.TID 0000.0001) %MON dynstat_sss_sd               =   9.8129996295038E-01
(PID.TID 0000.0001) %MON dynstat_sss_del2             =   7.6054901728408E-03
(PID.TID 0000.0001) %MON forcing_qnet_max             =   2.7450769042969E+02
(PID.TID 0000.0001) %MON forcing_qnet_min             =  -1.6385559082031E+02
(PID.TID 0000.0001) %MON forcing_qnet_mean            =  -7.2650659901446E+00
(PID.TID 0000.0001) %MON forcing_qnet_sd              =   4.6489538210055E+01
(PID.TID 0000.0001) %MON forcing_qnet_del2            =   8.5238739722118E-01
(PID.TID 0000.0001) %MON forcing_qsw_max              =   0.0000000000000E+00
(PID.TID 0000.0001) %MON forcing_qsw_min              =   0.0000000000000E+00
(PID.TID 0000.0001) %MON forcing_qsw_mean             =   0.0000000000000E+00
(PID.TID 0000.0001) %MON forcing_qsw_sd               =   0.0000000000000E+00
(PID.TID 0000.0001) %MON forcing_qsw_del2             =   0.0000000000000E+00
(PID.TID 0000.0001) %MON forcing_empmr_max            =   6.9108821776354E-05
(PID.TID 0000.0001) %MON forcing_empmr_min            =  -8.3264417582996E-05
(PID.TID 0000.0001) %MON forcing_empmr_mean           =   5.5071105367869E-07
(PID.TID 0000.0001) %MON forcing_empmr_sd             =   2.6288642314053E-05
(PID.TID 0000.0001) %MON forcing_empmr_del2           =   3.6649371259951E-07
(PID.TID 0000.0001) %MON forcing_fu_max               =   3.5755139589310E-01
(PID.TID 0000.0001) %MON forcing_fu_min               =  -3.8855642080307E-01
(PID.TID 0000.0001) %MON forcing_fu_mean              =   2.0456729300388E-02
(PID.TID 0000.0001) %MON forcing_fu_sd                =   1.0213469725884E-01
(PID.TID 0000.0001) %MON forcing_fu_del2              =   8.4850782651584E-04
(PID.TID 0000.0001) %MON forcing_fv_max               =   1.8330034613609E-01
(PID.TID 0000.0001) %MON forcing_fv_min               =  -1.9333162903786E-01
(PID.TID 0000.0001) %MON forcing_fv_mean              =  -7.5295754400446E-03
(PID.TID 0000.0001) %MON forcing_fv_sd                =   4.2684681983358E-02
(PID.TID 0000.0001) %MON forcing_fv_del2              =   5.0763502385068E-04
(PID.TID 0000.0001) %MON trAdv_CFL_u_max              =   4.6854111107779E-02
(PID.TID 0000.0001) %MON trAdv_CFL_v_max              =   2.6328615796268E-02
(PID.TID 0000.0001) %MON trAdv_CFL_w_max              =   3.3785256397510E-02
(PID.TID 0000.0001) %MON advcfl_uvel_max              =   4.6035693276247E-02
(PID.TID 0000.0001) %MON advcfl_vvel_max              =   2.6031294622424E-02
(PID.TID 0000.0001) %MON advcfl_wvel_max              =   3.7551356118545E-02
(PID.TID 0000.0001) %MON advcfl_W_hf_max              =   4.0312485244909E-02
(PID.TID 0000.0001) %MON pe_b_mean                    =   5.0373086181420E-04
(PID.TID 0000.0001) %MON ke_max                       =   1.1675355128308E-02
(PID.TID 0000.0001) %MON ke_mean                      =   1.1879687976839E-04
(PID.TID 0000.0001) %MON ke_vol                       =   1.3226782436723E+18
(PID.TID 0000.0001) %MON vort_r_min                   =  -3.2840582905104E-07
(PID.TID 0000.0001) %MON vort_r_max                   =   4.3546148087460E-07
(PID.TID 0000.0001) %MON vort_a_mean                  =  -2.5274806399728E-05
(PID.TID 0000.0001) %MON vort_a_sd                    =   7.3604658044169E-05
(PID.TID 0000.0001) %MON vort_p_mean                  =  -3.1845654542365E-05
(PID.TID 0000.0001) %MON vort_p_sd                    =   1.3162482165594E-04
(PID.TID 0000.0001) %MON surfExpan_theta_mean         =   3.0989447450371E-07
(PID.TID 0000.0001) %MON surfExpan_salt_mean          =   1.5457859429794E-08
(PID.TID 0000.0001) // =======================================================
(PID.TID 0000.0001) // End MONITOR dynamic field statistics
(PID.TID 0000.0001) // =======================================================
 EXTERNAL_FIELDS_LOAD,        76 : iP,iLd,i0,i1=    3    4    3    4 ; Wght=  0.9666666667  0.0333333333
 EXTERNAL_FIELDS_LOAD: (fu0,1),fu,fv= -2.7199E-02 -3.7252E-02 -2.7534E-02 -1.7327E-03
 EXTERNAL_FIELDS_LOAD: SST,SSS,Q,E-P= -1.7660E-01  3.4579E+01  2.1169E+02  9.0370E-06
DEBUG_STATS_RL:          Uvel (THERMODYNAMICS)  min= -1.23809879460181E-01
DEBUG_STATS_RL:          Uvel (THERMODYNAMICS)  max=  1.39276043777813E-01
DEBUG_STATS_RL:          Uvel (THERMODYNAMICS) mean=  6.14203892906932E-03
DEBUG_STATS_RL:          Uvel (THERMODYNAMICS) S.D.=  2.23569200732934E-02
DEBUG_STATS_RL:          Vvel (THERMODYNAMICS)  min= -7.12084923343839E-02
DEBUG_STATS_RL:          Vvel (THERMODYNAMICS)  max=  1.33985813157577E-01
DEBUG_STATS_RL:          Vvel (THERMODYNAMICS) mean=  8.07012577051398E-04
DEBUG_STATS_RL:          Vvel (THERMODYNAMICS) S.D.=  1.32280809529870E-02
DEBUG_STATS_RL:          Wvel (THERMODYNAMICS)  min= -7.29187302466839E-05
DEBUG_STATS_RL:          Wvel (THERMODYNAMICS)  max=  1.58637094713761E-04
DEBUG_STATS_RL:          Wvel (THERMODYNAMICS) mean= -2.72445474323299E-08
DEBUG_STATS_RL:          Wvel (THERMODYNAMICS) S.D.=  9.17123125478726E-06
DEBUG_STATS_RL:         Theta (THERMODYNAMICS)  min= -1.93239128817835E+00
DEBUG_STATS_RL:         Theta (THERMODYNAMICS)  max=  3.00636134913203E+01
DEBUG_STATS_RL:         Theta (THERMODYNAMICS) mean=  3.21128745267671E+00
DEBUG_STATS_RL:         Theta (THERMODYNAMICS) S.D.=  5.87130967479041E+00
DEBUG_STATS_RL:          Salt (THERMODYNAMICS)  min= -6.86339798922060E-04
DEBUG_STATS_RL:          Salt (THERMODYNAMICS)  max=  3.74470261623308E+01
DEBUG_STATS_RL:          Salt (THERMODYNAMICS) mean=  1.88440687532814E+01
DEBUG_STATS_RL:          Salt (THERMODYNAMICS) S.D.=  1.73002919888487E+01
DEBUG_STATS_RL:         GtNm1 (THERMODYNAMICS)  min= -2.71771480552872E-06
DEBUG_STATS_RL:         GtNm1 (THERMODYNAMICS)  max=  1.37275291990636E-06
DEBUG_STATS_RL:         GtNm1 (THERMODYNAMICS) mean=  3.59778026784353E-11
DEBUG_STATS_RL:         GtNm1 (THERMODYNAMICS) S.D.=  1.34793223678292E-07
DEBUG_STATS_RL:         GsNm1 (THERMODYNAMICS)  min= -3.00604614711651E-07
DEBUG_STATS_RL:         GsNm1 (THERMODYNAMICS)  max=  1.98301850607624E-07
DEBUG_STATS_RL:         GsNm1 (THERMODYNAMICS) mean=  9.33285217388922E-11
DEBUG_STATS_RL:         GsNm1 (THERMODYNAMICS) S.D.=  1.24964175388006E-08
DEBUG_STATS_RL:                EtaN (DYNAMICS)  min= -1.91629778784213E+00
DEBUG_STATS_RL:                EtaN (DYNAMICS)  max=  9.39815996362971E-01
DEBUG_STATS_RL:                EtaN (DYNAMICS) mean= -1.84438571665375E-01
DEBUG_STATS_RL:                EtaN (DYNAMICS) S.D.=  7.27053806826200E-01
DEBUG_STATS_RL:                Uvel (DYNAMICS)  min= -1.23809879460181E-01
DEBUG_STATS_RL:                Uvel (DYNAMICS)  max=  1.39276043777813E-01
DEBUG_STATS_RL:                Uvel (DYNAMICS) mean=  6.14203892906932E-03
DEBUG_STATS_RL:                Uvel (DYNAMICS) S.D.=  2.23569200732934E-02
DEBUG_STATS_RL:                Vvel (DYNAMICS)  min= -7.12084923343839E-02
DEBUG_STATS_RL:                Vvel (DYNAMICS)  max=  1.33985813157577E-01
DEBUG_STATS_RL:                Vvel (DYNAMICS) mean=  8.07012577051398E-04
DEBUG_STATS_RL:                Vvel (DYNAMICS) S.D.=  1.32280809529870E-02
DEBUG_STATS_RL:                Wvel (DYNAMICS)  min= -7.29187302466839E-05
DEBUG_STATS_RL:                Wvel (DYNAMICS)  max=  1.58637094713761E-04
DEBUG_STATS_RL:                Wvel (DYNAMICS) mean= -2.72445474323299E-08
DEBUG_STATS_RL:                Wvel (DYNAMICS) S.D.=  9.17123125478726E-06
DEBUG_STATS_RL:               Theta (DYNAMICS)  min= -1.93239128817835E+00
DEBUG_STATS_RL:               Theta (DYNAMICS)  max=  3.00636134913203E+01
DEBUG_STATS_RL:               Theta (DYNAMICS) mean=  3.21128745267671E+00
DEBUG_STATS_RL:               Theta (DYNAMICS) S.D.=  5.87130967479041E+00
DEBUG_STATS_RL:                Salt (DYNAMICS)  min= -6.86339798922060E-04
DEBUG_STATS_RL:                Salt (DYNAMICS)  max=  3.74470261623308E+01
DEBUG_STATS_RL:                Salt (DYNAMICS) mean=  1.88440687532814E+01
DEBUG_STATS_RL:                Salt (DYNAMICS) S.D.=  1.73002919888487E+01
DEBUG_STATS_RL:                  Gu (DYNAMICS)  min= -1.23057241847241E-01
DEBUG_STATS_RL:                  Gu (DYNAMICS)  max=  1.49942924540896E-01
DEBUG_STATS_RL:                  Gu (DYNAMICS) mean=  6.06597892507788E-03
DEBUG_STATS_RL:                  Gu (DYNAMICS) S.D.=  2.28438775878022E-02
DEBUG_STATS_RL:                  Gv (DYNAMICS)  min= -7.37609333392963E-02
DEBUG_STATS_RL:                  Gv (DYNAMICS)  max=  1.34125820684778E-01
DEBUG_STATS_RL:                  Gv (DYNAMICS) mean=  3.48239043526590E-03
DEBUG_STATS_RL:                  Gv (DYNAMICS) S.D.=  1.46954416931432E-02
DEBUG_STATS_RL:               GuNm1 (DYNAMICS)  min= -1.00396109745927E-05
DEBUG_STATS_RL:               GuNm1 (DYNAMICS)  max=  9.28220366431536E-06
DEBUG_STATS_RL:               GuNm1 (DYNAMICS) mean=  6.29428622198296E-09
DEBUG_STATS_RL:               GuNm1 (DYNAMICS) S.D.=  1.21013554081104E-06
DEBUG_STATS_RL:               GvNm1 (DYNAMICS)  min= -9.77861610110293E-06
DEBUG_STATS_RL:               GvNm1 (DYNAMICS)  max=  1.55128984555852E-05
DEBUG_STATS_RL:               GvNm1 (DYNAMICS) mean=  7.41867788994251E-07
DEBUG_STATS_RL:               GvNm1 (DYNAMICS) S.D.=  2.60977910468248E-06
DEBUG_STATS_RL:               GtNm1 (DYNAMICS)  min= -2.71771480552872E-06
DEBUG_STATS_RL:               GtNm1 (DYNAMICS)  max=  1.37275291990636E-06
DEBUG_STATS_RL:               GtNm1 (DYNAMICS) mean=  3.59778026784353E-11
DEBUG_STATS_RL:               GtNm1 (DYNAMICS) S.D.=  1.34793223678292E-07
DEBUG_STATS_RL:               GsNm1 (DYNAMICS)  min= -3.00604614711651E-07
DEBUG_STATS_RL:               GsNm1 (DYNAMICS)  max=  1.98301850607624E-07
DEBUG_STATS_RL:               GsNm1 (DYNAMICS) mean=  9.33285217388922E-11
DEBUG_STATS_RL:               GsNm1 (DYNAMICS) S.D.=  1.24964175388006E-08
DEBUG_STATS_RL:    cg2d_b (SOLVE_FOR_PRESSURE)  min= -2.29446699111681E+04
DEBUG_STATS_RL:    cg2d_b (SOLVE_FOR_PRESSURE)  max=  2.50564963989576E+04
DEBUG_STATS_RL:    cg2d_b (SOLVE_FOR_PRESSURE) mean=  5.15840310834888E+00
DEBUG_STATS_RL:    cg2d_b (SOLVE_FOR_PRESSURE) S.D.=  3.89814133165773E+03
 cg2d: Sum(rhs),rhsMax =   4.76591100594744E-01  1.64577777039124E+00
(PID.TID 0000.0001)  cg2d: iter=     1 ; resid.=  7.70832455613089E-02
(PID.TID 0000.0001)  cg2d: iter=     2 ; resid.=  6.28968925602222E-02
(PID.TID 0000.0001)  cg2d: iter=     3 ; resid.=  6.56146734003134E-02
(PID.TID 0000.0001)  cg2d: iter=     4 ; resid.=  6.25437111635354E-02
(PID.TID 0000.0001)  cg2d: iter=     5 ; resid.=  4.89599349727165E-02
(PID.TID 0000.0001)  cg2d: iter=     6 ; resid.=  3.70467247104193E-02
(PID.TID 0000.0001)  cg2d: iter=     7 ; resid.=  3.11752191259491E-02
(PID.TID 0000.0001)  cg2d: iter=     8 ; resid.=  2.66163269204100E-02
(PID.TID 0000.0001)  cg2d: iter=     9 ; resid.=  2.40555314375469E-02
(PID.TID 0000.0001)  cg2d: iter=    10 ; resid.=  2.10321482329982E-02
(PID.TID 0000.0001)  cg2d: iter=    11 ; resid.=  1.63408419582235E-02
(PID.TID 0000.0001)  cg2d: iter=    12 ; resid.=  1.25720187177329E-02
(PID.TID 0000.0001)  cg2d: iter=    13 ; resid.=  8.82029620458832E-03
(PID.TID 0000.0001)  cg2d: iter=    14 ; resid.=  8.08459178510972E-03
(PID.TID 0000.0001)  cg2d: iter=    15 ; resid.=  7.64254389834281E-03
(PID.TID 0000.0001)  cg2d: iter=    16 ; resid.=  6.50578962716688E-03
(PID.TID 0000.0001)  cg2d: iter=    17 ; resid.=  5.34264474411608E-03
(PID.TID 0000.0001)  cg2d: iter=    18 ; resid.=  4.53248858360585E-03
(PID.TID 0000.0001)  cg2d: iter=    19 ; resid.=  3.26865922890897E-03
(PID.TID 0000.0001)  cg2d: iter=    20 ; resid.=  2.30503583358025E-03
(PID.TID 0000.0001)  cg2d: iter=    21 ; resid.=  1.77153621872268E-03
(PID.TID 0000.0001)  cg2d: iter=    22 ; resid.=  1.48049940057110E-03
(PID.TID 0000.0001)  cg2d: iter=    23 ; resid.=  1.32217570695099E-03
(PID.TID 0000.0001)  cg2d: iter=    24 ; resid.=  1.13671457143886E-03
(PID.TID 0000.0001)  cg2d: iter=    25 ; resid.=  9.62964949633499E-04
(PID.TID 0000.0001)  cg2d: iter=    26 ; resid.=  7.90408926834848E-04
(PID.TID 0000.0001)  cg2d: iter=    27 ; resid.=  6.35792197037440E-04
(PID.TID 0000.0001)  cg2d: iter=    28 ; resid.=  5.37767480880881E-04
(PID.TID 0000.0001)  cg2d: iter=    29 ; resid.=  4.42925112874396E-04
(PID.TID 0000.0001)  cg2d: iter=    30 ; resid.=  3.91534588506093E-04
(PID.TID 0000.0001)  cg2d: iter=    31 ; resid.=  3.67347122571524E-04
(PID.TID 0000.0001)  cg2d: iter=    32 ; resid.=  2.88399563205269E-04
(PID.TID 0000.0001)  cg2d: iter=    33 ; resid.=  2.16454397633280E-04
(PID.TID 0000.0001)  cg2d: iter=    34 ; resid.=  1.61838485882335E-04
(PID.TID 0000.0001)  cg2d: iter=    35 ; resid.=  1.24025042698017E-04
(PID.TID 0000.0001)  cg2d: iter=    36 ; resid.=  9.66676646762827E-05
(PID.TID 0000.0001)  cg2d: iter=    37 ; resid.=  7.89516141827775E-05
(PID.TID 0000.0001)  cg2d: iter=    38 ; resid.=  6.79318835192323E-05
(PID.TID 0000.0001)  cg2d: iter=    39 ; resid.=  5.90660277194437E-05
(PID.TID 0000.0001)  cg2d: iter=    40 ; resid.=  4.99301524989700E-05
(PID.TID 0000.0001)  cg2d: iter=    41 ; resid.=  3.91715448022424E-05
(PID.TID 0000.0001)  cg2d: iter=    42 ; resid.=  3.62480836736983E-05
(PID.TID 0000.0001)  cg2d: iter=    43 ; resid.=  3.30840742794224E-05
(PID.TID 0000.0001)  cg2d: iter=    44 ; resid.=  2.88695422037059E-05
(PID.TID 0000.0001)  cg2d: iter=    45 ; resid.=  2.41741996634106E-05
(PID.TID 0000.0001)  cg2d: iter=    46 ; resid.=  2.08399209154234E-05
(PID.TID 0000.0001)  cg2d: iter=    47 ; resid.=  1.82482018625436E-05
(PID.TID 0000.0001)  cg2d: iter=    48 ; resid.=  1.54740346208397E-05
(PID.TID 0000.0001)  cg2d: iter=    49 ; resid.=  1.24843309346043E-05
(PID.TID 0000.0001)  cg2d: iter=    50 ; resid.=  1.00480262227557E-05
(PID.TID 0000.0001)  cg2d: iter=    51 ; resid.=  8.53277778045814E-06
(PID.TID 0000.0001)  cg2d: iter=    52 ; resid.=  7.20507351711707E-06
(PID.TID 0000.0001)  cg2d: iter=    53 ; resid.=  6.49041314417459E-06
(PID.TID 0000.0001)  cg2d: iter=    54 ; resid.=  5.71671618006205E-06
(PID.TID 0000.0001)  cg2d: iter=    55 ; resid.=  4.90434847879648E-06
(PID.TID 0000.0001)  cg2d: iter=    56 ; resid.=  3.91531638916134E-06
(PID.TID 0000.0001)  cg2d: iter=    57 ; resid.=  3.15885758996585E-06
(PID.TID 0000.0001)  cg2d: iter=    58 ; resid.=  2.36188159321152E-06
(PID.TID 0000.0001)  cg2d: iter=    59 ; resid.=  1.62409809358902E-06
(PID.TID 0000.0001)  cg2d: iter=    60 ; resid.=  1.19143234784851E-06
(PID.TID 0000.0001)  cg2d: iter=    61 ; resid.=  9.98064667169503E-07
(PID.TID 0000.0001)  cg2d: iter=    62 ; resid.=  8.79748254027055E-07
(PID.TID 0000.0001)  cg2d: iter=    63 ; resid.=  7.78605085322627E-07
(PID.TID 0000.0001)  cg2d: iter=    64 ; resid.=  6.66667667003661E-07
(PID.TID 0000.0001)  cg2d: iter=    65 ; resid.=  5.45717180683085E-07
(PID.TID 0000.0001)  cg2d: iter=    66 ; resid.=  4.20647969187482E-07
(PID.TID 0000.0001)  cg2d: iter=    67 ; resid.=  3.09130828558009E-07
(PID.TID 0000.0001)  cg2d: iter=    68 ; resid.=  2.17617175133603E-07
(PID.TID 0000.0001)  cg2d: iter=    69 ; resid.=  1.57296371571817E-07
(PID.TID 0000.0001)  cg2d: iter=    70 ; resid.=  1.25318630862521E-07
(PID.TID 0000.0001)  cg2d: iter=    71 ; resid.=  9.81084277973717E-08
(PID.TID 0000.0001)  cg2d: iter=    72 ; resid.=  7.39955913458703E-08
(PID.TID 0000.0001)  cg2d: iter=    73 ; resid.=  5.83634534907829E-08
(PID.TID 0000.0001)  cg2d: iter=    74 ; resid.=  5.25239548845603E-08
(PID.TID 0000.0001)  cg2d: iter=    75 ; resid.=  4.43590246133909E-08
(PID.TID 0000.0001)  cg2d: iter=    76 ; resid.=  3.55024846968013E-08
(PID.TID 0000.0001)  cg2d: iter=    77 ; resid.=  2.72916479281982E-08
(PID.TID 0000.0001)  cg2d: iter=    78 ; resid.=  2.12763127069173E-08
(PID.TID 0000.0001)  cg2d: iter=    79 ; resid.=  1.70169899386763E-08
(PID.TID 0000.0001)  cg2d: iter=    80 ; resid.=  1.42794867158043E-08
(PID.TID 0000.0001)  cg2d: iter=    81 ; resid.=  1.16864024012251E-08
(PID.TID 0000.0001)  cg2d: iter=    82 ; resid.=  8.84938569397285E-09
(PID.TID 0000.0001)  cg2d: iter=    83 ; resid.=  6.93992342264201E-09
(PID.TID 0000.0001)  cg2d: iter=    84 ; resid.=  5.60610810814938E-09
(PID.TID 0000.0001)  cg2d: iter=    85 ; resid.=  4.57610975221642E-09
(PID.TID 0000.0001)  cg2d: iter=    86 ; resid.=  3.96895943319621E-09
(PID.TID 0000.0001)  cg2d: iter=    87 ; resid.=  3.43534299640321E-09
(PID.TID 0000.0001)  cg2d: iter=    88 ; resid.=  2.67657289001198E-09
(PID.TID 0000.0001)  cg2d: iter=    89 ; resid.=  2.23339139865292E-09
(PID.TID 0000.0001)  cg2d: iter=    90 ; resid.=  2.00818821774076E-09
(PID.TID 0000.0001)  cg2d: iter=    91 ; resid.=  1.67397251016420E-09
(PID.TID 0000.0001)  cg2d: iter=    92 ; resid.=  1.31788455896976E-09
(PID.TID 0000.0001)  cg2d: iter=    93 ; resid.=  9.12611588065252E-10
(PID.TID 0000.0001)  cg2d: iter=    94 ; resid.=  6.62040148992693E-10
(PID.TID 0000.0001)  cg2d: iter=    95 ; resid.=  4.82393225016485E-10
(PID.TID 0000.0001)  cg2d: iter=    96 ; resid.=  3.75871375592119E-10
(PID.TID 0000.0001)  cg2d: iter=    97 ; resid.=  2.99147175731407E-10
(PID.TID 0000.0001)  cg2d: iter=    98 ; resid.=  2.42539162506021E-10
(PID.TID 0000.0001)  cg2d: iter=    99 ; resid.=  2.05928815032024E-10
(PID.TID 0000.0001)  cg2d: iter=   100 ; resid.=  1.95847636397127E-10
(PID.TID 0000.0001)  cg2d: iter=   101 ; resid.=  1.82620542160599E-10
(PID.TID 0000.0001)  cg2d: iter=   102 ; resid.=  1.60280367828701E-10
(PID.TID 0000.0001)  cg2d: iter=   103 ; resid.=  1.27789825045151E-10
(PID.TID 0000.0001)  cg2d: iter=   104 ; resid.=  1.04460634798307E-10
(PID.TID 0000.0001)  cg2d: iter=   105 ; resid.=  9.21711851761831E-11
(PID.TID 0000.0001)  cg2d: iter=   106 ; resid.=  8.21558578299729E-11
(PID.TID 0000.0001)  cg2d: iter=   107 ; resid.=  6.74492361100367E-11
(PID.TID 0000.0001)  cg2d: iter=   108 ; resid.=  5.27187918236110E-11
(PID.TID 0000.0001)  cg2d: iter=   109 ; resid.=  4.23166530729109E-11
(PID.TID 0000.0001)  cg2d: iter=   110 ; resid.=  3.45536060393419E-11
(PID.TID 0000.0001)  cg2d: iter=   111 ; resid.=  2.99499071492503E-11
(PID.TID 0000.0001)  cg2d: iter=   112 ; resid.=  2.23119015716622E-11
(PID.TID 0000.0001)  cg2d: iter=   113 ; resid.=  1.73328916005633E-11
(PID.TID 0000.0001)  cg2d: iter=   114 ; resid.=  1.41271037366112E-11
(PID.TID 0000.0001)  cg2d: iter=   115 ; resid.=  1.00580920568195E-11
(PID.TID 0000.0001)  cg2d: iter=   116 ; resid.=  6.71580076691609E-12
(PID.TID 0000.0001)  cg2d: iter=   117 ; resid.=  4.88616623938392E-12
(PID.TID 0000.0001)  cg2d: iter=   118 ; resid.=  3.68411385673444E-12
(PID.TID 0000.0001)  cg2d: iter=   119 ; resid.=  2.89821393764399E-12
(PID.TID 0000.0001)  cg2d: iter=   120 ; resid.=  2.04565845989337E-12
(PID.TID 0000.0001)  cg2d: iter=   121 ; resid.=  1.46521377782150E-12
(PID.TID 0000.0001)  cg2d: iter=   122 ; resid.=  1.11294115092488E-12
(PID.TID 0000.0001)  cg2d: iter=   123 ; resid.=  8.91980992335041E-13
(PID.TID 0000.0001)  cg2d: iter=   124 ; resid.=  6.98141785785027E-13
(PID.TID 0000.0001)  cg2d: iter=   125 ; resid.=  5.31494217892262E-13
(PID.TID 0000.0001)  cg2d: iter=   126 ; resid.=  4.08793744409475E-13
(PID.TID 0000.0001)  cg2d: iter=   127 ; resid.=  2.93134279786174E-13
(PID.TID 0000.0001)  cg2d: iter=   128 ; resid.=  2.10655254872550E-13
(PID.TID 0000.0001)  cg2d: iter=   129 ; resid.=  1.52047568765251E-13
(PID.TID 0000.0001)  cg2d: iter=   130 ; resid.=  1.20141781533438E-13
(PID.TID 0000.0001)  cg2d: iter=   131 ; resid.=  1.02952440238486E-13
(PID.TID 0000.0001)  cg2d: iter=   132 ; resid.=  8.32196506879876E-14
DEBUG_STATS_RL:    cg2d_x (SOLVE_FOR_PRESSURE)  min= -1.87523368552157E+01
DEBUG_STATS_RL:    cg2d_x (SOLVE_FOR_PRESSURE)  max=  9.36487382444777E+00
DEBUG_STATS_RL:    cg2d_x (SOLVE_FOR_PRESSURE) mean= -1.83189858848245E+00
DEBUG_STATS_RL:    cg2d_x (SOLVE_FOR_PRESSURE) S.D.=  7.16571116254422E+00
(PID.TID 0000.0001)      cg2d_init_res =   2.39895339586318E-01
(PID.TID 0000.0001)      cg2d_iters(min,last) =      -1     132
(PID.TID 0000.0001)      cg2d_last_res =   8.32196506879876E-14
(PID.TID 0000.0001) // =======================================================
(PID.TID 0000.0001) // Begin MONITOR dynamic field statistics
(PID.TID 0000.0001) // =======================================================
(PID.TID 0000.0001) %MON time_tsnumber                =                    77
(PID.TID 0000.0001) %MON time_secondsf                =   6.6528000000000E+06
(PID.TID 0000.0001) %MON dynstat_eta_max              =   9.5462526243101E-01
(PID.TID 0000.0001) %MON dynstat_eta_min              =  -1.9115531962503E+00
(PID.TID 0000.0001) %MON dynstat_eta_mean             =  -5.3821540226931E-03
(PID.TID 0000.0001) %MON dynstat_eta_sd               =   6.3047289275860E-01
(PID.TID 0000.0001) %MON dynstat_eta_del2             =   2.4573259842097E-03
(PID.TID 0000.0001) %MON dynstat_uvel_max             =   1.4248349038583E-01
(PID.TID 0000.0001) %MON dynstat_uvel_min             =  -1.2496323905486E-01
(PID.TID 0000.0001) %MON dynstat_uvel_mean            =   2.4368884031058E-03
(PID.TID 0000.0001) %MON dynstat_uvel_sd              =   1.3856214841031E-02
(PID.TID 0000.0001) %MON dynstat_uvel_del2            =   8.2516158108512E-05
(PID.TID 0000.0001) %MON dynstat_vvel_max             =   1.3161863938506E-01
(PID.TID 0000.0001) %MON dynstat_vvel_min             =  -7.3111570641321E-02
(PID.TID 0000.0001) %MON dynstat_vvel_mean            =  -3.7719150782654E-05
(PID.TID 0000.0001) %MON dynstat_vvel_sd              =   8.1426902323116E-03
(PID.TID 0000.0001) %MON dynstat_vvel_del2            =   7.4765569299793E-05
(PID.TID 0000.0001) %MON dynstat_wvel_max             =   1.6353408144241E-04
(PID.TID 0000.0001) %MON dynstat_wvel_min             =  -6.7306481280995E-05
(PID.TID 0000.0001) %MON dynstat_wvel_mean            =   1.7691248619869E-22
(PID.TID 0000.0001) %MON dynstat_wvel_sd              =   1.0267827263741E-05
(PID.TID 0000.0001) %MON dynstat_wvel_del2            =   1.0395235834426E-07
(PID.TID 0000.0001) %MON dynstat_theta_max            =   3.0063613491320E+01
(PID.TID 0000.0001) %MON dynstat_theta_min            =  -1.9323912881783E+00
(PID.TID 0000.0001) %MON dynstat_theta_mean           =   3.6216389083140E+00
(PID.TID 0000.0001) %MON dynstat_theta_sd             =   4.4223367789629E+00
(PID.TID 0000.0001) %MON dynstat_theta_del2           =   4.6629250700448E-03
(PID.TID 0000.0001) %MON dynstat_salt_max             =   3.7447026162331E+01
(PID.TID 0000.0001) %MON dynstat_salt_min             =   2.9876962229702E+01
(PID.TID 0000.0001) %MON dynstat_salt_mean            =   3.4717293961070E+01
(PID.TID 0000.0001) %MON dynstat_salt_sd              =   2.9624196833035E-01
(PID.TID 0000.0001) %MON dynstat_salt_del2            =   9.6045417498914E-04
(PID.TID 0000.0001) %MON dynstat_sst_max              =   3.0063613491320E+01
(PID.TID 0000.0001) %MON dynstat_sst_min              =  -1.9323912881783E+00
(PID.TID 0000.0001) %MON dynstat_sst_mean             =   1.8817640878665E+01
(PID.TID 0000.0001) %MON dynstat_sst_sd               =   9.2652450535980E+00
(PID.TID 0000.0001) %MON dynstat_sst_del2             =   2.3814232652757E-02
(PID.TID 0000.0001) %MON dynstat_sss_max              =   3.7402772305241E+01
(PID.TID 0000.0001) %MON dynstat_sss_min              =   2.9876962229702E+01
(PID.TID 0000.0001) %MON dynstat_sss_mean             =   3.4838840969561E+01
(PID.TID 0000.0001) %MON dynstat_sss_sd               =   9.8155795802661E-01
(PID.TID 0000.0001) %MON dynstat_sss_del2             =   7.6107830642394E-03
(PID.TID 0000.0001) %MON forcing_qnet_max             =   2.6980245564779E+02
(PID.TID 0000.0001) %MON forcing_qnet_min             =  -1.6342759450277E+02
(PID.TID 0000.0001) %MON forcing_qnet_mean            =  -6.8680295611749E+00
(PID.TID 0000.0001) %MON forcing_qnet_sd              =   4.5566183658410E+01
(PID.TID 0000.0001) %MON forcing_qnet_del2            =   8.4462547130505E-01
(PID.TID 0000.0001) %MON forcing_qsw_max              =   0.0000000000000E+00
(PID.TID 0000.0001) %MON forcing_qsw_min              =   0.0000000000000E+00
(PID.TID 0000.0001) %MON forcing_qsw_mean             =   0.0000000000000E+00
(PID.TID 0000.0001) %MON forcing_qsw_sd               =   0.0000000000000E+00
(PID.TID 0000.0001) %MON forcing_qsw_del2             =   0.0000000000000E+00
(PID.TID 0000.0001) %MON forcing_empmr_max            =   6.9012650764459E-05
(PID.TID 0000.0001) %MON forcing_empmr_min            =  -8.3279263662916E-05
(PID.TID 0000.0001) %MON forcing_empmr_mean           =   5.2826568885113E-07
(PID.TID 0000.0001) %MON forcing_empmr_sd             =   2.6215922588960E-05
(PID.TID 0000.0001) %MON forcing_empmr_del2           =   3.6580758715705E-07
(PID.TID 0000.0001) %MON forcing_fu_max               =   3.5669511159261E-01
(PID.TID 0000.0001) %MON forcing_fu_min               =  -3.8948949277401E-01
(PID.TID 0000.0001) %MON forcing_fu_mean              =   2.0329537203455E-02
(PID.TID 0000.0001) %MON forcing_fu_sd                =   1.0185090973368E-01
(PID.TID 0000.0001) %MON forcing_fu_del2              =   8.3925956330839E-04
(PID.TID 0000.0001) %MON forcing_fv_max               =   1.8320434490840E-01
(PID.TID 0000.0001) %MON forcing_fv_min               =  -1.8992391626040E-01
(PID.TID 0000.0001) %MON forcing_fv_mean              =  -7.4930987676715E-03
(PID.TID 0000.0001) %MON forcing_fv_sd                =   4.2258946543451E-02
(PID.TID 0000.0001) %MON forcing_fv_del2              =   4.9790745221961E-04
(PID.TID 0000.0001) %MON trAdv_CFL_u_max              =   4.6045043454804E-02
(PID.TID 0000.0001) %MON trAdv_CFL_v_max              =   2.5925216589683E-02
(PID.TID 0000.0001) %MON trAdv_CFL_w_max              =   3.5144217905818E-02
(PID.TID 0000.0001) %MON advcfl_uvel_max              =   4.4898937061904E-02
(PID.TID 0000.0001) %MON advcfl_vvel_max              =   2.5571390723328E-02
(PID.TID 0000.0001) %MON advcfl_wvel_max              =   3.8710533251025E-02
(PID.TID 0000.0001) %MON advcfl_W_hf_max              =   4.1556895990071E-02
(PID.TID 0000.0001) %MON pe_b_mean                    =   5.0868119848908E-04
(PID.TID 0000.0001) %MON ke_max                       =   1.1482123180231E-02
(PID.TID 0000.0001) %MON ke_mean                      =   1.1969115278777E-04
(PID.TID 0000.0001) %MON ke_vol                       =   1.3226782436723E+18
(PID.TID 0000.0001) %MON vort_r_min                   =  -3.4015344755809E-07
(PID.TID 0000.0001) %MON vort_r_max                   =   4.0818549359518E-07
(PID.TID 0000.0001) %MON vort_a_mean                  =  -2.5274806343811E-05
(PID.TID 0000.0001) %MON vort_a_sd                    =   7.3604673489823E-05
(PID.TID 0000.0001) %MON vort_p_mean                  =  -3.1845654471911E-05
(PID.TID 0000.0001) %MON vort_p_sd                    =   1.3162487859996E-04
(PID.TID 0000.0001) %MON surfExpan_theta_mean         =   4.1681318534146E-07
(PID.TID 0000.0001) %MON surfExpan_salt_mean          =   6.9626115158194E-10
(PID.TID 0000.0001) // =======================================================
(PID.TID 0000.0001) // End MONITOR dynamic field statistics
(PID.TID 0000.0001) // =======================================================
 EXTERNAL_FIELDS_LOAD,        77 : iP,iLd,i0,i1=    3    4    3    4 ; Wght=  0.9333333333  0.0666666667
 EXTERNAL_FIELDS_LOAD: (fu0,1),fu,fv= -2.7199E-02 -3.7252E-02 -2.7869E-02 -2.8873E-03
 EXTERNAL_FIELDS_LOAD: SST,SSS,Q,E-P= -1.6929E-01  3.4578E+01  2.0798E+02  8.9933E-06
DEBUG_STATS_RL:          Uvel (THERMODYNAMICS)  min= -1.24963239054861E-01
DEBUG_STATS_RL:          Uvel (THERMODYNAMICS)  max=  1.42483490385832E-01
DEBUG_STATS_RL:          Uvel (THERMODYNAMICS) mean=  6.19608160108231E-03
DEBUG_STATS_RL:          Uvel (THERMODYNAMICS) S.D.=  2.24225150702978E-02
DEBUG_STATS_RL:          Vvel (THERMODYNAMICS)  min= -7.31115706413206E-02
DEBUG_STATS_RL:          Vvel (THERMODYNAMICS)  max=  1.31618639385064E-01
DEBUG_STATS_RL:          Vvel (THERMODYNAMICS) mean=  8.45076823013087E-04
DEBUG_STATS_RL:          Vvel (THERMODYNAMICS) S.D.=  1.32141057455011E-02
DEBUG_STATS_RL:          Wvel (THERMODYNAMICS)  min= -6.73064812809951E-05
DEBUG_STATS_RL:          Wvel (THERMODYNAMICS)  max=  1.63534081442408E-04
DEBUG_STATS_RL:          Wvel (THERMODYNAMICS) mean= -1.99347089813128E-08
DEBUG_STATS_RL:          Wvel (THERMODYNAMICS) S.D.=  9.17319874053463E-06
DEBUG_STATS_RL:         Theta (THERMODYNAMICS)  min= -1.92440602453272E+00
DEBUG_STATS_RL:         Theta (THERMODYNAMICS)  max=  3.00659496278247E+01
DEBUG_STATS_RL:         Theta (THERMODYNAMICS) mean=  3.21119896506139E+00
DEBUG_STATS_RL:         Theta (THERMODYNAMICS) S.D.=  5.87157730693233E+00
DEBUG_STATS_RL:          Salt (THERMODYNAMICS)  min= -6.86339798922060E-04
DEBUG_STATS_RL:          Salt (THERMODYNAMICS)  max=  3.74462328055045E+01
DEBUG_STATS_RL:          Salt (THERMODYNAMICS) mean=  1.88440770302551E+01
DEBUG_STATS_RL:          Salt (THERMODYNAMICS) S.D.=  1.73003001782476E+01
DEBUG_STATS_RL:         GtNm1 (THERMODYNAMICS)  min= -2.68207949228867E-06
DEBUG_STATS_RL:         GtNm1 (THERMODYNAMICS)  max=  1.33262461920593E-06
DEBUG_STATS_RL:         GtNm1 (THERMODYNAMICS) mean= -4.90487456115719E-10
DEBUG_STATS_RL:         GtNm1 (THERMODYNAMICS) S.D.=  1.33997360319598E-07
DEBUG_STATS_RL:         GsNm1 (THERMODYNAMICS)  min= -3.06898592667692E-07
DEBUG_STATS_RL:         GsNm1 (THERMODYNAMICS)  max=  1.91862549263949E-07
DEBUG_STATS_RL:         GsNm1 (THERMODYNAMICS) mean=  9.62611382890887E-11
DEBUG_STATS_RL:         GsNm1 (THERMODYNAMICS) S.D.=  1.23211786660663E-08
DEBUG_STATS_RL:                EtaN (DYNAMICS)  min= -1.91155319625025E+00
DEBUG_STATS_RL:                EtaN (DYNAMICS)  max=  9.54625262431013E-01
DEBUG_STATS_RL:                EtaN (DYNAMICS) mean= -1.86737878540516E-01
DEBUG_STATS_RL:                EtaN (DYNAMICS) S.D.=  7.30449659790443E-01
DEBUG_STATS_RL:                Uvel (DYNAMICS)  min= -1.24963239054861E-01
DEBUG_STATS_RL:                Uvel (DYNAMICS)  max=  1.42483490385832E-01
DEBUG_STATS_RL:                Uvel (DYNAMICS) mean=  6.19608160108231E-03
DEBUG_STATS_RL:                Uvel (DYNAMICS) S.D.=  2.24225150702978E-02
DEBUG_STATS_RL:                Vvel (DYNAMICS)  min= -7.31115706413206E-02
DEBUG_STATS_RL:                Vvel (DYNAMICS)  max=  1.31618639385064E-01
DEBUG_STATS_RL:                Vvel (DYNAMICS) mean=  8.45076823013087E-04
DEBUG_STATS_RL:                Vvel (DYNAMICS) S.D.=  1.32141057455011E-02
DEBUG_STATS_RL:                Wvel (DYNAMICS)  min= -6.73064812809951E-05
DEBUG_STATS_RL:                Wvel (DYNAMICS)  max=  1.63534081442408E-04
DEBUG_STATS_RL:                Wvel (DYNAMICS) mean= -1.99347089813128E-08
DEBUG_STATS_RL:                Wvel (DYNAMICS) S.D.=  9.17319874053463E-06
DEBUG_STATS_RL:               Theta (DYNAMICS)  min= -1.92440602453272E+00
DEBUG_STATS_RL:               Theta (DYNAMICS)  max=  3.00659496278247E+01
DEBUG_STATS_RL:               Theta (DYNAMICS) mean=  3.21119896506139E+00
DEBUG_STATS_RL:               Theta (DYNAMICS) S.D.=  5.87157730693233E+00
DEBUG_STATS_RL:                Salt (DYNAMICS)  min= -6.86339798922060E-04
DEBUG_STATS_RL:                Salt (DYNAMICS)  max=  3.74462328055045E+01
DEBUG_STATS_RL:                Salt (DYNAMICS) mean=  1.88440770302551E+01
DEBUG_STATS_RL:                Salt (DYNAMICS) S.D.=  1.73003001782476E+01
DEBUG_STATS_RL:                  Gu (DYNAMICS)  min= -1.24182177263895E-01
DEBUG_STATS_RL:                  Gu (DYNAMICS)  max=  1.54028398244498E-01
DEBUG_STATS_RL:                  Gu (DYNAMICS) mean=  6.11010852036635E-03
DEBUG_STATS_RL:                  Gu (DYNAMICS) S.D.=  2.28930177621573E-02
DEBUG_STATS_RL:                  Gv (DYNAMICS)  min= -7.13852838013925E-02
DEBUG_STATS_RL:                  Gv (DYNAMICS)  max=  1.31742085131338E-01
DEBUG_STATS_RL:                  Gv (DYNAMICS) mean=  3.51683687160108E-03
DEBUG_STATS_RL:                  Gv (DYNAMICS) S.D.=  1.47297953919894E-02
DEBUG_STATS_RL:               GuNm1 (DYNAMICS)  min= -1.00596724278822E-05
DEBUG_STATS_RL:               GuNm1 (DYNAMICS)  max=  9.28192434574242E-06
DEBUG_STATS_RL:               GuNm1 (DYNAMICS) mean=  6.18055439134437E-09
DEBUG_STATS_RL:               GuNm1 (DYNAMICS) S.D.=  1.20990068662310E-06
DEBUG_STATS_RL:               GvNm1 (DYNAMICS)  min= -9.74827409347899E-06
DEBUG_STATS_RL:               GvNm1 (DYNAMICS)  max=  1.54956921290210E-05
DEBUG_STATS_RL:               GvNm1 (DYNAMICS) mean=  7.42087043994822E-07
DEBUG_STATS_RL:               GvNm1 (DYNAMICS) S.D.=  2.60800078541183E-06
DEBUG_STATS_RL:               GtNm1 (DYNAMICS)  min= -2.68207949228867E-06
DEBUG_STATS_RL:               GtNm1 (DYNAMICS)  max=  1.33262461920593E-06
DEBUG_STATS_RL:               GtNm1 (DYNAMICS) mean= -4.90487456115719E-10
DEBUG_STATS_RL:               GtNm1 (DYNAMICS) S.D.=  1.33997360319598E-07
DEBUG_STATS_RL:               GsNm1 (DYNAMICS)  min= -3.06898592667692E-07
DEBUG_STATS_RL:               GsNm1 (DYNAMICS)  max=  1.91862549263949E-07
DEBUG_STATS_RL:               GsNm1 (DYNAMICS) mean=  9.62611382890887E-11
DEBUG_STATS_RL:               GsNm1 (DYNAMICS) S.D.=  1.23211786660663E-08
DEBUG_STATS_RL:    cg2d_b (SOLVE_FOR_PRESSURE)  min= -2.33510598862931E+04
DEBUG_STATS_RL:    cg2d_b (SOLVE_FOR_PRESSURE)  max=  2.54807587438729E+04
DEBUG_STATS_RL:    cg2d_b (SOLVE_FOR_PRESSURE) mean=  5.19887270013253E+00
DEBUG_STATS_RL:    cg2d_b (SOLVE_FOR_PRESSURE) S.D.=  3.90143846938320E+03
 cg2d: Sum(rhs),rhsMax =   4.72332492991379E-01  1.67364445713619E+00
(PID.TID 0000.0001)  cg2d: iter=     1 ; resid.=  7.92056527343459E-02
(PID.TID 0000.0001)  cg2d: iter=     2 ; resid.=  7.28314704976842E-02
(PID.TID 0000.0001)  cg2d: iter=     3 ; resid.=  7.45336857120202E-02
(PID.TID 0000.0001)  cg2d: iter=     4 ; resid.=  7.13679631301858E-02
(PID.TID 0000.0001)  cg2d: iter=     5 ; resid.=  5.55929321094436E-02
(PID.TID 0000.0001)  cg2d: iter=     6 ; resid.=  4.17621054669392E-02
(PID.TID 0000.0001)  cg2d: iter=     7 ; resid.=  3.64831508446548E-02
(PID.TID 0000.0001)  cg2d: iter=     8 ; resid.=  3.21187967164781E-02
(PID.TID 0000.0001)  cg2d: iter=     9 ; resid.=  2.75741511461362E-02
(PID.TID 0000.0001)  cg2d: iter=    10 ; resid.=  2.32217660085352E-02
(PID.TID 0000.0001)  cg2d: iter=    11 ; resid.=  1.83444905659279E-02
(PID.TID 0000.0001)  cg2d: iter=    12 ; resid.=  1.39413092267361E-02
(PID.TID 0000.0001)  cg2d: iter=    13 ; resid.=  9.53157034676134E-03
(PID.TID 0000.0001)  cg2d: iter=    14 ; resid.=  8.81211293420000E-03
(PID.TID 0000.0001)  cg2d: iter=    15 ; resid.=  8.37685114884338E-03
(PID.TID 0000.0001)  cg2d: iter=    16 ; resid.=  7.01490875873200E-03
(PID.TID 0000.0001)  cg2d: iter=    17 ; resid.=  6.05301360367274E-03
(PID.TID 0000.0001)  cg2d: iter=    18 ; resid.=  5.09035072543828E-03
(PID.TID 0000.0001)  cg2d: iter=    19 ; resid.=  3.47515474964660E-03
(PID.TID 0000.0001)  cg2d: iter=    20 ; resid.=  2.44342100089027E-03
(PID.TID 0000.0001)  cg2d: iter=    21 ; resid.=  1.96668757897556E-03
(PID.TID 0000.0001)  cg2d: iter=    22 ; resid.=  1.75192950216852E-03
(PID.TID 0000.0001)  cg2d: iter=    23 ; resid.=  1.59388838400634E-03
(PID.TID 0000.0001)  cg2d: iter=    24 ; resid.=  1.38130934636892E-03
(PID.TID 0000.0001)  cg2d: iter=    25 ; resid.=  1.15637974021565E-03
(PID.TID 0000.0001)  cg2d: iter=    26 ; resid.=  9.44051877734260E-04
(PID.TID 0000.0001)  cg2d: iter=    27 ; resid.=  7.73701194681436E-04
(PID.TID 0000.0001)  cg2d: iter=    28 ; resid.=  6.54473763068263E-04
(PID.TID 0000.0001)  cg2d: iter=    29 ; resid.=  5.23364008000354E-04
(PID.TID 0000.0001)  cg2d: iter=    30 ; resid.=  4.49134660003564E-04
(PID.TID 0000.0001)  cg2d: iter=    31 ; resid.=  4.08028828853109E-04
(PID.TID 0000.0001)  cg2d: iter=    32 ; resid.=  3.10242584936575E-04
(PID.TID 0000.0001)  cg2d: iter=    33 ; resid.=  2.32616755425954E-04
(PID.TID 0000.0001)  cg2d: iter=    34 ; resid.=  1.77532262111909E-04
(PID.TID 0000.0001)  cg2d: iter=    35 ; resid.=  1.39543209595875E-04
(PID.TID 0000.0001)  cg2d: iter=    36 ; resid.=  1.11522815019816E-04
(PID.TID 0000.0001)  cg2d: iter=    37 ; resid.=  9.54763007979935E-05
(PID.TID 0000.0001)  cg2d: iter=    38 ; resid.=  8.65693005214278E-05
(PID.TID 0000.0001)  cg2d: iter=    39 ; resid.=  7.67355104575095E-05
(PID.TID 0000.0001)  cg2d: iter=    40 ; resid.=  6.59429078665605E-05
(PID.TID 0000.0001)  cg2d: iter=    41 ; resid.=  5.38586939795081E-05
(PID.TID 0000.0001)  cg2d: iter=    42 ; resid.=  5.07266351213436E-05
(PID.TID 0000.0001)  cg2d: iter=    43 ; resid.=  4.46710133928589E-05
(PID.TID 0000.0001)  cg2d: iter=    44 ; resid.=  3.70336681529332E-05
(PID.TID 0000.0001)  cg2d: iter=    45 ; resid.=  2.96873561440563E-05
(PID.TID 0000.0001)  cg2d: iter=    46 ; resid.=  2.50242417603534E-05
(PID.TID 0000.0001)  cg2d: iter=    47 ; resid.=  2.18245712627276E-05
(PID.TID 0000.0001)  cg2d: iter=    48 ; resid.=  1.83658378400162E-05
(PID.TID 0000.0001)  cg2d: iter=    49 ; resid.=  1.47031675943045E-05
(PID.TID 0000.0001)  cg2d: iter=    50 ; resid.=  1.18912084067741E-05
(PID.TID 0000.0001)  cg2d: iter=    51 ; resid.=  1.01425959945289E-05
(PID.TID 0000.0001)  cg2d: iter=    52 ; resid.=  8.53142368735331E-06
(PID.TID 0000.0001)  cg2d: iter=    53 ; resid.=  7.68995102282140E-06
(PID.TID 0000.0001)  cg2d: iter=    54 ; resid.=  6.89352787156115E-06
(PID.TID 0000.0001)  cg2d: iter=    55 ; resid.=  5.88302067232294E-06
(PID.TID 0000.0001)  cg2d: iter=    56 ; resid.=  4.66141862708293E-06
(PID.TID 0000.0001)  cg2d: iter=    57 ; resid.=  3.71334525711320E-06
(PID.TID 0000.0001)  cg2d: iter=    58 ; resid.=  2.71118257259754E-06
(PID.TID 0000.0001)  cg2d: iter=    59 ; resid.=  1.87261507305476E-06
(PID.TID 0000.0001)  cg2d: iter=    60 ; resid.=  1.43481814680239E-06
(PID.TID 0000.0001)  cg2d: iter=    61 ; resid.=  1.25527411404398E-06
(PID.TID 0000.0001)  cg2d: iter=    62 ; resid.=  1.11398457245919E-06
(PID.TID 0000.0001)  cg2d: iter=    63 ; resid.=  9.91368470854957E-07
(PID.TID 0000.0001)  cg2d: iter=    64 ; resid.=  8.18913024014215E-07
(PID.TID 0000.0001)  cg2d: iter=    65 ; resid.=  6.35093987835066E-07
(PID.TID 0000.0001)  cg2d: iter=    66 ; resid.=  4.68451683430984E-07
(PID.TID 0000.0001)  cg2d: iter=    67 ; resid.=  3.47655644920962E-07
(PID.TID 0000.0001)  cg2d: iter=    68 ; resid.=  2.60594337475983E-07
(PID.TID 0000.0001)  cg2d: iter=    69 ; resid.=  2.07413610778013E-07
(PID.TID 0000.0001)  cg2d: iter=    70 ; resid.=  1.87374600935443E-07
(PID.TID 0000.0001)  cg2d: iter=    71 ; resid.=  1.58291761674207E-07
(PID.TID 0000.0001)  cg2d: iter=    72 ; resid.=  1.30047183970583E-07
(PID.TID 0000.0001)  cg2d: iter=    73 ; resid.=  1.17250428007880E-07
(PID.TID 0000.0001)  cg2d: iter=    74 ; resid.=  1.19603367055022E-07
(PID.TID 0000.0001)  cg2d: iter=    75 ; resid.=  1.05315824337401E-07
(PID.TID 0000.0001)  cg2d: iter=    76 ; resid.=  8.28582686323654E-08
(PID.TID 0000.0001)  cg2d: iter=    77 ; resid.=  6.36565453942874E-08
(PID.TID 0000.0001)  cg2d: iter=    78 ; resid.=  5.06472133454533E-08
(PID.TID 0000.0001)  cg2d: iter=    79 ; resid.=  4.27664648159891E-08
(PID.TID 0000.0001)  cg2d: iter=    80 ; resid.=  3.79117439785642E-08
(PID.TID 0000.0001)  cg2d: iter=    81 ; resid.=  3.14856249660048E-08
(PID.TID 0000.0001)  cg2d: iter=    82 ; resid.=  2.36654090384171E-08
(PID.TID 0000.0001)  cg2d: iter=    83 ; resid.=  1.88388808418132E-08
(PID.TID 0000.0001)  cg2d: iter=    84 ; resid.=  1.48995976491097E-08
(PID.TID 0000.0001)  cg2d: iter=    85 ; resid.=  1.16974489340356E-08
(PID.TID 0000.0001)  cg2d: iter=    86 ; resid.=  9.64472971890003E-09
(PID.TID 0000.0001)  cg2d: iter=    87 ; resid.=  7.73359638399534E-09
(PID.TID 0000.0001)  cg2d: iter=    88 ; resid.=  5.84407912351278E-09
(PID.TID 0000.0001)  cg2d: iter=    89 ; resid.=  4.98104301914370E-09
(PID.TID 0000.0001)  cg2d: iter=    90 ; resid.=  4.26534140196456E-09
(PID.TID 0000.0001)  cg2d: iter=    91 ; resid.=  3.26009684431435E-09
(PID.TID 0000.0001)  cg2d: iter=    92 ; resid.=  2.46674679177712E-09
(PID.TID 0000.0001)  cg2d: iter=    93 ; resid.=  1.72569261464702E-09
(PID.TID 0000.0001)  cg2d: iter=    94 ; resid.=  1.35632341551894E-09
(PID.TID 0000.0001)  cg2d: iter=    95 ; resid.=  1.13129583397426E-09
(PID.TID 0000.0001)  cg2d: iter=    96 ; resid.=  9.96122949029799E-10
(PID.TID 0000.0001)  cg2d: iter=    97 ; resid.=  8.60179560848892E-10
(PID.TID 0000.0001)  cg2d: iter=    98 ; resid.=  7.14675585114441E-10
(PID.TID 0000.0001)  cg2d: iter=    99 ; resid.=  6.01535343290137E-10
(PID.TID 0000.0001)  cg2d: iter=   100 ; resid.=  5.23838448558015E-10
(PID.TID 0000.0001)  cg2d: iter=   101 ; resid.=  4.26685904047993E-10
(PID.TID 0000.0001)  cg2d: iter=   102 ; resid.=  3.25849927571411E-10
(PID.TID 0000.0001)  cg2d: iter=   103 ; resid.=  2.40123828171061E-10
(PID.TID 0000.0001)  cg2d: iter=   104 ; resid.=  1.86893166647856E-10
(PID.TID 0000.0001)  cg2d: iter=   105 ; resid.=  1.54889895094737E-10
(PID.TID 0000.0001)  cg2d: iter=   106 ; resid.=  1.28012263706964E-10
(PID.TID 0000.0001)  cg2d: iter=   107 ; resid.=  9.96331558832257E-11
(PID.TID 0000.0001)  cg2d: iter=   108 ; resid.=  7.30597106628122E-11
(PID.TID 0000.0001)  cg2d: iter=   109 ; resid.=  5.30465011399211E-11
(PID.TID 0000.0001)  cg2d: iter=   110 ; resid.=  3.83647960446743E-11
(PID.TID 0000.0001)  cg2d: iter=   111 ; resid.=  3.06206472160378E-11
(PID.TID 0000.0001)  cg2d: iter=   112 ; resid.=  2.21548241231456E-11
(PID.TID 0000.0001)  cg2d: iter=   113 ; resid.=  1.71711225982303E-11
(PID.TID 0000.0001)  cg2d: iter=   114 ; resid.=  1.41809612582492E-11
(PID.TID 0000.0001)  cg2d: iter=   115 ; resid.=  1.04137185997045E-11
(PID.TID 0000.0001)  cg2d: iter=   116 ; resid.=  7.52024433057835E-12
(PID.TID 0000.0001)  cg2d: iter=   117 ; resid.=  5.98224299855724E-12
(PID.TID 0000.0001)  cg2d: iter=   118 ; resid.=  4.67640920869454E-12
(PID.TID 0000.0001)  cg2d: iter=   119 ; resid.=  3.60008368927211E-12
(PID.TID 0000.0001)  cg2d: iter=   120 ; resid.=  2.43548433698184E-12
(PID.TID 0000.0001)  cg2d: iter=   121 ; resid.=  1.73732475025548E-12
(PID.TID 0000.0001)  cg2d: iter=   122 ; resid.=  1.35132708148325E-12
(PID.TID 0000.0001)  cg2d: iter=   123 ; resid.=  1.08948507143454E-12
(PID.TID 0000.0001)  cg2d: iter=   124 ; resid.=  8.34228900925211E-13
(PID.TID 0000.0001)  cg2d: iter=   125 ; resid.=  6.15464062390023E-13
(PID.TID 0000.0001)  cg2d: iter=   126 ; resid.=  4.55822490239367E-13
(PID.TID 0000.0001)  cg2d: iter=   127 ; resid.=  3.05976729455443E-13
(PID.TID 0000.0001)  cg2d: iter=   128 ; resid.=  2.07839421864380E-13
(PID.TID 0000.0001)  cg2d: iter=   129 ; resid.=  1.44860457052344E-13
(PID.TID 0000.0001)  cg2d: iter=   130 ; resid.=  1.15209812481091E-13
(PID.TID 0000.0001)  cg2d: iter=   131 ; resid.=  1.01031675741467E-13
(PID.TID 0000.0001)  cg2d: iter=   132 ; resid.=  8.51512939313286E-14
DEBUG_STATS_RL:    cg2d_x (SOLVE_FOR_PRESSURE)  min= -1.87206800964649E+01
DEBUG_STATS_RL:    cg2d_x (SOLVE_FOR_PRESSURE)  max=  9.54820590472353E+00
DEBUG_STATS_RL:    cg2d_x (SOLVE_FOR_PRESSURE) mean= -1.85817103975260E+00
DEBUG_STATS_RL:    cg2d_x (SOLVE_FOR_PRESSURE) S.D.=  7.21490231758557E+00
(PID.TID 0000.0001)      cg2d_init_res =   2.32732925452385E-01
(PID.TID 0000.0001)      cg2d_iters(min,last) =      -1     132
(PID.TID 0000.0001)      cg2d_last_res =   8.51512939313286E-14
(PID.TID 0000.0001) // =======================================================
(PID.TID 0000.0001) // Begin MONITOR dynamic field statistics
(PID.TID 0000.0001) // =======================================================
(PID.TID 0000.0001) %MON time_tsnumber                =                    78
(PID.TID 0000.0001) %MON time_secondsf                =   6.7392000000000E+06
(PID.TID 0000.0001) %MON dynstat_eta_max              =   9.7331354788211E-01
(PID.TID 0000.0001) %MON dynstat_eta_min              =  -1.9083262075907E+00
(PID.TID 0000.0001) %MON dynstat_eta_mean             =  -5.4243790236550E-03
(PID.TID 0000.0001) %MON dynstat_eta_sd               =   6.3518046919968E-01
(PID.TID 0000.0001) %MON dynstat_eta_del2             =   2.4610171728700E-03
(PID.TID 0000.0001) %MON dynstat_uvel_max             =   1.4654040095580E-01
(PID.TID 0000.0001) %MON dynstat_uvel_min             =  -1.2607110993038E-01
(PID.TID 0000.0001) %MON dynstat_uvel_mean            =   2.5109580544020E-03
(PID.TID 0000.0001) %MON dynstat_uvel_sd              =   1.3919671544501E-02
(PID.TID 0000.0001) %MON dynstat_uvel_del2            =   8.2783496438089E-05
(PID.TID 0000.0001) %MON dynstat_vvel_max             =   1.2897261575367E-01
(PID.TID 0000.0001) %MON dynstat_vvel_min             =  -7.4813552960163E-02
(PID.TID 0000.0001) %MON dynstat_vvel_mean            =  -4.6657685377672E-05
(PID.TID 0000.0001) %MON dynstat_vvel_sd              =   8.1193149527008E-03
(PID.TID 0000.0001) %MON dynstat_vvel_del2            =   7.4654109027877E-05
(PID.TID 0000.0001) %MON dynstat_wvel_max             =   1.6715501129052E-04
(PID.TID 0000.0001) %MON dynstat_wvel_min             =  -6.9383027997293E-05
(PID.TID 0000.0001) %MON dynstat_wvel_mean            =   3.5319420701810E-22
(PID.TID 0000.0001) %MON dynstat_wvel_sd              =   1.0238170254168E-05
(PID.TID 0000.0001) %MON dynstat_wvel_del2            =   1.0402243161685E-07
(PID.TID 0000.0001) %MON dynstat_theta_max            =   3.0065949627825E+01
(PID.TID 0000.0001) %MON dynstat_theta_min            =  -1.9244060245327E+00
(PID.TID 0000.0001) %MON dynstat_theta_mean           =   3.6216455665921E+00
(PID.TID 0000.0001) %MON dynstat_theta_sd             =   4.4224420238180E+00
(PID.TID 0000.0001) %MON dynstat_theta_del2           =   4.6583836302996E-03
(PID.TID 0000.0001) %MON dynstat_salt_max             =   3.7446232805505E+01
(PID.TID 0000.0001) %MON dynstat_salt_min             =   2.9877669473064E+01
(PID.TID 0000.0001) %MON dynstat_salt_mean            =   3.4717295486648E+01
(PID.TID 0000.0001) %MON dynstat_salt_sd              =   2.9624545106797E-01
(PID.TID 0000.0001) %MON dynstat_salt_del2            =   9.6069710668569E-04
(PID.TID 0000.0001) %MON dynstat_sst_max              =   3.0065949627825E+01
(PID.TID 0000.0001) %MON dynstat_sst_min              =  -1.9244060245327E+00
(PID.TID 0000.0001) %MON dynstat_sst_mean             =   1.8816558816949E+01
(PID.TID 0000.0001) %MON dynstat_sst_sd               =   9.2733379484041E+00
(PID.TID 0000.0001) %MON dynstat_sst_del2             =   2.3809934187233E-02
(PID.TID 0000.0001) %MON dynstat_sss_max              =   3.7403643324199E+01
(PID.TID 0000.0001) %MON dynstat_sss_min              =   2.9877669473064E+01
(PID.TID 0000.0001) %MON dynstat_sss_mean             =   3.4838911411532E+01
(PID.TID 0000.0001) %MON dynstat_sss_sd               =   9.8183068190745E-01
(PID.TID 0000.0001) %MON dynstat_sss_del2             =   7.6161405758596E-03
(PID.TID 0000.0001) %MON forcing_qnet_max             =   2.6509722086589E+02
(PID.TID 0000.0001) %MON forcing_qnet_min             =  -1.6299959818522E+02
(PID.TID 0000.0001) %MON forcing_qnet_mean            =  -6.4709931322053E+00
(PID.TID 0000.0001) %MON forcing_qnet_sd              =   4.4694693234620E+01
(PID.TID 0000.0001) %MON forcing_qnet_del2            =   8.3727990364500E-01
(PID.TID 0000.0001) %MON forcing_qsw_max              =   0.0000000000000E+00
(PID.TID 0000.0001) %MON forcing_qsw_min              =   0.0000000000000E+00
(PID.TID 0000.0001) %MON forcing_qsw_mean             =   0.0000000000000E+00
(PID.TID 0000.0001) %MON forcing_qsw_sd               =   0.0000000000000E+00
(PID.TID 0000.0001) %MON forcing_qsw_del2             =   0.0000000000000E+00
(PID.TID 0000.0001) %MON forcing_empmr_max            =   6.8916479752564E-05
(PID.TID 0000.0001) %MON forcing_empmr_min            =  -8.3294109742837E-05
(PID.TID 0000.0001) %MON forcing_empmr_mean           =   5.0582032402356E-07
(PID.TID 0000.0001) %MON forcing_empmr_sd             =   2.6146601074219E-05
(PID.TID 0000.0001) %MON forcing_empmr_del2           =   3.6519434745887E-07
(PID.TID 0000.0001) %MON forcing_fu_max               =   3.5583882729212E-01
(PID.TID 0000.0001) %MON forcing_fu_min               =  -3.9042256474495E-01
(PID.TID 0000.0001) %MON forcing_fu_mean              =   2.0202345106522E-02
(PID.TID 0000.0001) %MON forcing_fu_sd                =   1.0159012040920E-01
(PID.TID 0000.0001) %MON forcing_fu_del2              =   8.3058122505654E-04
(PID.TID 0000.0001) %MON forcing_fv_max               =   1.8310834368070E-01
(PID.TID 0000.0001) %MON forcing_fv_min               =  -1.8651620348295E-01
(PID.TID 0000.0001) %MON forcing_fv_mean              =  -7.4566220952985E-03
(PID.TID 0000.0001) %MON forcing_fv_sd                =   4.1854188278217E-02
(PID.TID 0000.0001) %MON forcing_fv_del2              =   4.8859436838041E-04
(PID.TID 0000.0001) %MON trAdv_CFL_u_max              =   4.4908056357143E-02
(PID.TID 0000.0001) %MON trAdv_CFL_v_max              =   2.5467186807935E-02
(PID.TID 0000.0001) %MON trAdv_CFL_w_max              =   3.6229088811857E-02
(PID.TID 0000.0001) %MON advcfl_uvel_max              =   4.3551540692224E-02
(PID.TID 0000.0001) %MON advcfl_vvel_max              =   2.5057310768866E-02
(PID.TID 0000.0001) %MON advcfl_wvel_max              =   3.9567651987674E-02
(PID.TID 0000.0001) %MON advcfl_W_hf_max              =   4.2477038163238E-02
(PID.TID 0000.0001) %MON pe_b_mean                    =   5.1630596619649E-04
(PID.TID 0000.0001) %MON ke_max                       =   1.1162771253832E-02
(PID.TID 0000.0001) %MON ke_mean                      =   1.2048809513440E-04
(PID.TID 0000.0001) %MON ke_vol                       =   1.3226782436723E+18
(PID.TID 0000.0001) %MON vort_r_min                   =  -3.5115825699661E-07
(PID.TID 0000.0001) %MON vort_r_max                   =   3.9348479806192E-07
(PID.TID 0000.0001) %MON vort_a_mean                  =  -2.5274806338371E-05
(PID.TID 0000.0001) %MON vort_a_sd                    =   7.3604687306926E-05
(PID.TID 0000.0001) %MON vort_p_mean                  =  -3.1845654465056E-05
(PID.TID 0000.0001) %MON vort_p_sd                    =   1.3162493211664E-04
(PID.TID 0000.0001) %MON surfExpan_theta_mean         =   4.9418104751832E-07
(PID.TID 0000.0001) %MON surfExpan_salt_mean          =  -1.4180029515838E-08
(PID.TID 0000.0001) // =======================================================
(PID.TID 0000.0001) // End MONITOR dynamic field statistics
(PID.TID 0000.0001) // =======================================================
 EXTERNAL_FIELDS_LOAD,        78 : iP,iLd,i0,i1=    3    4    3    4 ; Wght=  0.9000000000  0.1000000000
 EXTERNAL_FIELDS_LOAD: (fu0,1),fu,fv= -2.7199E-02 -3.7252E-02 -2.8204E-02 -4.0419E-03
 EXTERNAL_FIELDS_LOAD: SST,SSS,Q,E-P= -1.6198E-01  3.4578E+01  2.0427E+02  8.9496E-06
DEBUG_STATS_RL:          Uvel (THERMODYNAMICS)  min= -1.26071109930384E-01
DEBUG_STATS_RL:          Uvel (THERMODYNAMICS)  max=  1.46540400955801E-01
DEBUG_STATS_RL:          Uvel (THERMODYNAMICS) mean=  6.24097608633133E-03
DEBUG_STATS_RL:          Uvel (THERMODYNAMICS) S.D.=  2.24663265001622E-02
DEBUG_STATS_RL:          Vvel (THERMODYNAMICS)  min= -7.48135529601629E-02
DEBUG_STATS_RL:          Vvel (THERMODYNAMICS)  max=  1.28972615753672E-01
DEBUG_STATS_RL:          Vvel (THERMODYNAMICS) mean=  8.85157887829750E-04
DEBUG_STATS_RL:          Vvel (THERMODYNAMICS) S.D.=  1.31981616424460E-02
DEBUG_STATS_RL:          Wvel (THERMODYNAMICS)  min= -6.93830279972933E-05
DEBUG_STATS_RL:          Wvel (THERMODYNAMICS)  max=  1.67155011290522E-04
DEBUG_STATS_RL:          Wvel (THERMODYNAMICS) mean= -1.37553482179186E-08
DEBUG_STATS_RL:          Wvel (THERMODYNAMICS) S.D.=  9.16341609592109E-06
DEBUG_STATS_RL:         Theta (THERMODYNAMICS)  min= -1.92294464746878E+00
DEBUG_STATS_RL:         Theta (THERMODYNAMICS)  max=  3.00674657559069E+01
DEBUG_STATS_RL:         Theta (THERMODYNAMICS) mean=  3.21108832866698E+00
DEBUG_STATS_RL:         Theta (THERMODYNAMICS) S.D.=  5.87181167383659E+00
DEBUG_STATS_RL:          Salt (THERMODYNAMICS)  min= -6.86339798922060E-04
DEBUG_STATS_RL:          Salt (THERMODYNAMICS)  max=  3.74455094926168E+01
DEBUG_STATS_RL:          Salt (THERMODYNAMICS) mean=  1.88440854221674E+01
DEBUG_STATS_RL:          Salt (THERMODYNAMICS) S.D.=  1.73003085061733E+01
DEBUG_STATS_RL:         GtNm1 (THERMODYNAMICS)  min= -2.61768391322619E-06
DEBUG_STATS_RL:         GtNm1 (THERMODYNAMICS)  max=  1.29817461550233E-06
DEBUG_STATS_RL:         GtNm1 (THERMODYNAMICS) mean= -9.71296474386378E-10
DEBUG_STATS_RL:         GtNm1 (THERMODYNAMICS) S.D.=  1.32839125312240E-07
DEBUG_STATS_RL:         GsNm1 (THERMODYNAMICS)  min= -3.17052364436838E-07
DEBUG_STATS_RL:         GsNm1 (THERMODYNAMICS)  max=  1.84170692234689E-07
DEBUG_STATS_RL:         GsNm1 (THERMODYNAMICS) mean=  9.82751271067331E-11
DEBUG_STATS_RL:         GsNm1 (THERMODYNAMICS) S.D.=  1.21922640863142E-08
DEBUG_STATS_RL:                EtaN (DYNAMICS)  min= -1.90832620759071E+00
DEBUG_STATS_RL:                EtaN (DYNAMICS)  max=  9.73313547882110E-01
DEBUG_STATS_RL:                EtaN (DYNAMICS) mean= -1.89416008129725E-01
DEBUG_STATS_RL:                EtaN (DYNAMICS) S.D.=  7.35464048683546E-01
DEBUG_STATS_RL:                Uvel (DYNAMICS)  min= -1.26071109930384E-01
DEBUG_STATS_RL:                Uvel (DYNAMICS)  max=  1.46540400955801E-01
DEBUG_STATS_RL:                Uvel (DYNAMICS) mean=  6.24097608633133E-03
DEBUG_STATS_RL:                Uvel (DYNAMICS) S.D.=  2.24663265001622E-02
DEBUG_STATS_RL:                Vvel (DYNAMICS)  min= -7.48135529601629E-02
DEBUG_STATS_RL:                Vvel (DYNAMICS)  max=  1.28972615753672E-01
DEBUG_STATS_RL:                Vvel (DYNAMICS) mean=  8.85157887829750E-04
DEBUG_STATS_RL:                Vvel (DYNAMICS) S.D.=  1.31981616424460E-02
DEBUG_STATS_RL:                Wvel (DYNAMICS)  min= -6.93830279972933E-05
DEBUG_STATS_RL:                Wvel (DYNAMICS)  max=  1.67155011290522E-04
DEBUG_STATS_RL:                Wvel (DYNAMICS) mean= -1.37553482179186E-08
DEBUG_STATS_RL:                Wvel (DYNAMICS) S.D.=  9.16341609592109E-06
DEBUG_STATS_RL:               Theta (DYNAMICS)  min= -1.92294464746878E+00
DEBUG_STATS_RL:               Theta (DYNAMICS)  max=  3.00674657559069E+01
DEBUG_STATS_RL:               Theta (DYNAMICS) mean=  3.21108832866698E+00
DEBUG_STATS_RL:               Theta (DYNAMICS) S.D.=  5.87181167383659E+00
DEBUG_STATS_RL:                Salt (DYNAMICS)  min= -6.86339798922060E-04
DEBUG_STATS_RL:                Salt (DYNAMICS)  max=  3.74455094926168E+01
DEBUG_STATS_RL:                Salt (DYNAMICS) mean=  1.88440854221674E+01
DEBUG_STATS_RL:                Salt (DYNAMICS) S.D.=  1.73003085061733E+01
DEBUG_STATS_RL:                  Gu (DYNAMICS)  min= -1.25262595773596E-01
DEBUG_STATS_RL:                  Gu (DYNAMICS)  max=  1.56989257826300E-01
DEBUG_STATS_RL:                  Gu (DYNAMICS) mean=  6.14726668290636E-03
DEBUG_STATS_RL:                  Gu (DYNAMICS) S.D.=  2.29184845335214E-02
DEBUG_STATS_RL:                  Gv (DYNAMICS)  min= -7.30694054094366E-02
DEBUG_STATS_RL:                  Gv (DYNAMICS)  max=  1.29084195387291E-01
DEBUG_STATS_RL:                  Gv (DYNAMICS) mean=  3.55120159853204E-03
DEBUG_STATS_RL:                  Gv (DYNAMICS) S.D.=  1.47539639800157E-02
DEBUG_STATS_RL:               GuNm1 (DYNAMICS)  min= -1.00668240776242E-05
DEBUG_STATS_RL:               GuNm1 (DYNAMICS)  max=  9.28027707957073E-06
DEBUG_STATS_RL:               GuNm1 (DYNAMICS) mean=  6.06908534338123E-09
DEBUG_STATS_RL:               GuNm1 (DYNAMICS) S.D.=  1.20980030620597E-06
DEBUG_STATS_RL:               GvNm1 (DYNAMICS)  min= -9.71737494399611E-06
DEBUG_STATS_RL:               GvNm1 (DYNAMICS)  max=  1.54769052864658E-05
DEBUG_STATS_RL:               GvNm1 (DYNAMICS) mean=  7.42163318953705E-07
DEBUG_STATS_RL:               GvNm1 (DYNAMICS) S.D.=  2.60634219977103E-06
DEBUG_STATS_RL:               GtNm1 (DYNAMICS)  min= -2.61768391322619E-06
DEBUG_STATS_RL:               GtNm1 (DYNAMICS)  max=  1.29817461550233E-06
DEBUG_STATS_RL:               GtNm1 (DYNAMICS) mean= -9.71296474386378E-10
DEBUG_STATS_RL:               GtNm1 (DYNAMICS) S.D.=  1.32839125312240E-07
DEBUG_STATS_RL:               GsNm1 (DYNAMICS)  min= -3.17052364436838E-07
DEBUG_STATS_RL:               GsNm1 (DYNAMICS)  max=  1.84170692234689E-07
DEBUG_STATS_RL:               GsNm1 (DYNAMICS) mean=  9.82751271067331E-11
DEBUG_STATS_RL:               GsNm1 (DYNAMICS) S.D.=  1.21922640863142E-08
DEBUG_STATS_RL:    cg2d_b (SOLVE_FOR_PRESSURE)  min= -2.37529555264181E+04
DEBUG_STATS_RL:    cg2d_b (SOLVE_FOR_PRESSURE)  max=  2.58920490071038E+04
DEBUG_STATS_RL:    cg2d_b (SOLVE_FOR_PRESSURE) mean=  5.23754648674775E+00
DEBUG_STATS_RL:    cg2d_b (SOLVE_FOR_PRESSURE) S.D.=  3.90529434680524E+03
 cg2d: Sum(rhs),rhsMax =   4.68287392530981E-01  1.70065910282432E+00
(PID.TID 0000.0001)  cg2d: iter=     1 ; resid.=  7.99967100326470E-02
(PID.TID 0000.0001)  cg2d: iter=     2 ; resid.=  7.73116557454612E-02
(PID.TID 0000.0001)  cg2d: iter=     3 ; resid.=  7.66507093856286E-02
(PID.TID 0000.0001)  cg2d: iter=     4 ; resid.=  7.55033102311371E-02
(PID.TID 0000.0001)  cg2d: iter=     5 ; resid.=  5.94484176986806E-02
(PID.TID 0000.0001)  cg2d: iter=     6 ; resid.=  4.43928238329593E-02
(PID.TID 0000.0001)  cg2d: iter=     7 ; resid.=  3.97893851495017E-02
(PID.TID 0000.0001)  cg2d: iter=     8 ; resid.=  3.50064685809645E-02
(PID.TID 0000.0001)  cg2d: iter=     9 ; resid.=  2.85139102329897E-02
(PID.TID 0000.0001)  cg2d: iter=    10 ; resid.=  2.36235478240294E-02
(PID.TID 0000.0001)  cg2d: iter=    11 ; resid.=  1.92829836713683E-02
(PID.TID 0000.0001)  cg2d: iter=    12 ; resid.=  1.43806747733854E-02
(PID.TID 0000.0001)  cg2d: iter=    13 ; resid.=  9.62173695706918E-03
(PID.TID 0000.0001)  cg2d: iter=    14 ; resid.=  8.72592389632418E-03
(PID.TID 0000.0001)  cg2d: iter=    15 ; resid.=  8.29215986221277E-03
(PID.TID 0000.0001)  cg2d: iter=    16 ; resid.=  6.94491320180149E-03
(PID.TID 0000.0001)  cg2d: iter=    17 ; resid.=  6.32826267969857E-03
(PID.TID 0000.0001)  cg2d: iter=    18 ; resid.=  5.31266193980298E-03
(PID.TID 0000.0001)  cg2d: iter=    19 ; resid.=  3.56297431592715E-03
(PID.TID 0000.0001)  cg2d: iter=    20 ; resid.=  2.54528654181744E-03
(PID.TID 0000.0001)  cg2d: iter=    21 ; resid.=  2.12627770749716E-03
(PID.TID 0000.0001)  cg2d: iter=    22 ; resid.=  1.94511659002663E-03
(PID.TID 0000.0001)  cg2d: iter=    23 ; resid.=  1.77366129277986E-03
(PID.TID 0000.0001)  cg2d: iter=    24 ; resid.=  1.53486903811616E-03
(PID.TID 0000.0001)  cg2d: iter=    25 ; resid.=  1.27385504848894E-03
(PID.TID 0000.0001)  cg2d: iter=    26 ; resid.=  1.02392548740007E-03
(PID.TID 0000.0001)  cg2d: iter=    27 ; resid.=  8.33668916630018E-04
(PID.TID 0000.0001)  cg2d: iter=    28 ; resid.=  6.93680118163699E-04
(PID.TID 0000.0001)  cg2d: iter=    29 ; resid.=  5.46757709829995E-04
(PID.TID 0000.0001)  cg2d: iter=    30 ; resid.=  4.61058208590796E-04
(PID.TID 0000.0001)  cg2d: iter=    31 ; resid.=  4.05852861053635E-04
(PID.TID 0000.0001)  cg2d: iter=    32 ; resid.=  3.07718842953476E-04
(PID.TID 0000.0001)  cg2d: iter=    33 ; resid.=  2.36590272646875E-04
(PID.TID 0000.0001)  cg2d: iter=    34 ; resid.=  1.86013739827633E-04
(PID.TID 0000.0001)  cg2d: iter=    35 ; resid.=  1.48456117086200E-04
(PID.TID 0000.0001)  cg2d: iter=    36 ; resid.=  1.18889287596710E-04
(PID.TID 0000.0001)  cg2d: iter=    37 ; resid.=  1.04145582631984E-04
(PID.TID 0000.0001)  cg2d: iter=    38 ; resid.=  9.63622693949507E-05
(PID.TID 0000.0001)  cg2d: iter=    39 ; resid.=  8.49515619630895E-05
(PID.TID 0000.0001)  cg2d: iter=    40 ; resid.=  7.29503372592714E-05
(PID.TID 0000.0001)  cg2d: iter=    41 ; resid.=  6.01365086778892E-05
(PID.TID 0000.0001)  cg2d: iter=    42 ; resid.=  5.61816249450963E-05
(PID.TID 0000.0001)  cg2d: iter=    43 ; resid.=  4.77383402041060E-05
(PID.TID 0000.0001)  cg2d: iter=    44 ; resid.=  3.80482068350262E-05
(PID.TID 0000.0001)  cg2d: iter=    45 ; resid.=  2.98320428596620E-05
(PID.TID 0000.0001)  cg2d: iter=    46 ; resid.=  2.49673458185594E-05
(PID.TID 0000.0001)  cg2d: iter=    47 ; resid.=  2.20052200409336E-05
(PID.TID 0000.0001)  cg2d: iter=    48 ; resid.=  1.86997177146176E-05
(PID.TID 0000.0001)  cg2d: iter=    49 ; resid.=  1.51034464296540E-05
(PID.TID 0000.0001)  cg2d: iter=    50 ; resid.=  1.23343216390489E-05
(PID.TID 0000.0001)  cg2d: iter=    51 ; resid.=  1.06209185263034E-05
(PID.TID 0000.0001)  cg2d: iter=    52 ; resid.=  9.01258115060054E-06
(PID.TID 0000.0001)  cg2d: iter=    53 ; resid.=  8.14895416634620E-06
(PID.TID 0000.0001)  cg2d: iter=    54 ; resid.=  7.37090762531232E-06
(PID.TID 0000.0001)  cg2d: iter=    55 ; resid.=  6.27481117072706E-06
(PID.TID 0000.0001)  cg2d: iter=    56 ; resid.=  4.98596549854682E-06
(PID.TID 0000.0001)  cg2d: iter=    57 ; resid.=  3.95710807168253E-06
(PID.TID 0000.0001)  cg2d: iter=    58 ; resid.=  2.85935006241904E-06
(PID.TID 0000.0001)  cg2d: iter=    59 ; resid.=  1.98897320232071E-06
(PID.TID 0000.0001)  cg2d: iter=    60 ; resid.=  1.56399357134633E-06
(PID.TID 0000.0001)  cg2d: iter=    61 ; resid.=  1.37819521747546E-06
(PID.TID 0000.0001)  cg2d: iter=    62 ; resid.=  1.20126286708600E-06
(PID.TID 0000.0001)  cg2d: iter=    63 ; resid.=  1.06072531660212E-06
(PID.TID 0000.0001)  cg2d: iter=    64 ; resid.=  8.66891466873522E-07
(PID.TID 0000.0001)  cg2d: iter=    65 ; resid.=  6.76957329067168E-07
(PID.TID 0000.0001)  cg2d: iter=    66 ; resid.=  5.11173085265435E-07
(PID.TID 0000.0001)  cg2d: iter=    67 ; resid.=  4.03330519862837E-07
(PID.TID 0000.0001)  cg2d: iter=    68 ; resid.=  3.30069430363748E-07
(PID.TID 0000.0001)  cg2d: iter=    69 ; resid.=  2.85231266033544E-07
(PID.TID 0000.0001)  cg2d: iter=    70 ; resid.=  2.70453391651982E-07
(PID.TID 0000.0001)  cg2d: iter=    71 ; resid.=  2.27118581215480E-07
(PID.TID 0000.0001)  cg2d: iter=    72 ; resid.=  1.89915899122170E-07
(PID.TID 0000.0001)  cg2d: iter=    73 ; resid.=  1.75777723902694E-07
(PID.TID 0000.0001)  cg2d: iter=    74 ; resid.=  1.75727283400415E-07
(PID.TID 0000.0001)  cg2d: iter=    75 ; resid.=  1.42559627274504E-07
(PID.TID 0000.0001)  cg2d: iter=    76 ; resid.=  1.03701203384579E-07
(PID.TID 0000.0001)  cg2d: iter=    77 ; resid.=  7.50963018562962E-08
(PID.TID 0000.0001)  cg2d: iter=    78 ; resid.=  5.73951735785272E-08
(PID.TID 0000.0001)  cg2d: iter=    79 ; resid.=  4.75908449619612E-08
(PID.TID 0000.0001)  cg2d: iter=    80 ; resid.=  4.24379101967413E-08
(PID.TID 0000.0001)  cg2d: iter=    81 ; resid.=  3.46532194596109E-08
(PID.TID 0000.0001)  cg2d: iter=    82 ; resid.=  2.47515569638064E-08
(PID.TID 0000.0001)  cg2d: iter=    83 ; resid.=  1.86292857681102E-08
(PID.TID 0000.0001)  cg2d: iter=    84 ; resid.=  1.37899826343323E-08
(PID.TID 0000.0001)  cg2d: iter=    85 ; resid.=  1.02348186439750E-08
(PID.TID 0000.0001)  cg2d: iter=    86 ; resid.=  8.32437908733887E-09
(PID.TID 0000.0001)  cg2d: iter=    87 ; resid.=  6.81181207586074E-09
(PID.TID 0000.0001)  cg2d: iter=    88 ; resid.=  5.41995172607329E-09
(PID.TID 0000.0001)  cg2d: iter=    89 ; resid.=  4.81701295838764E-09
(PID.TID 0000.0001)  cg2d: iter=    90 ; resid.=  4.06256418940710E-09
(PID.TID 0000.0001)  cg2d: iter=    91 ; resid.=  3.05161298108418E-09
(PID.TID 0000.0001)  cg2d: iter=    92 ; resid.=  2.36464134166190E-09
(PID.TID 0000.0001)  cg2d: iter=    93 ; resid.=  1.69474884061621E-09
(PID.TID 0000.0001)  cg2d: iter=    94 ; resid.=  1.34336449128405E-09
(PID.TID 0000.0001)  cg2d: iter=    95 ; resid.=  1.12355602830337E-09
(PID.TID 0000.0001)  cg2d: iter=    96 ; resid.=  9.70767916463389E-10
(PID.TID 0000.0001)  cg2d: iter=    97 ; resid.=  8.12806527113793E-10
(PID.TID 0000.0001)  cg2d: iter=    98 ; resid.=  6.53434920921719E-10
(PID.TID 0000.0001)  cg2d: iter=    99 ; resid.=  5.43162128591705E-10
(PID.TID 0000.0001)  cg2d: iter=   100 ; resid.=  4.82643226380586E-10
(PID.TID 0000.0001)  cg2d: iter=   101 ; resid.=  4.08049310795332E-10
(PID.TID 0000.0001)  cg2d: iter=   102 ; resid.=  3.17049580985044E-10
(PID.TID 0000.0001)  cg2d: iter=   103 ; resid.=  2.34552058565834E-10
(PID.TID 0000.0001)  cg2d: iter=   104 ; resid.=  1.78072150699155E-10
(PID.TID 0000.0001)  cg2d: iter=   105 ; resid.=  1.44121908675047E-10
(PID.TID 0000.0001)  cg2d: iter=   106 ; resid.=  1.19743433751276E-10
(PID.TID 0000.0001)  cg2d: iter=   107 ; resid.=  9.90006100408657E-11
(PID.TID 0000.0001)  cg2d: iter=   108 ; resid.=  7.45115825827874E-11
(PID.TID 0000.0001)  cg2d: iter=   109 ; resid.=  5.20976761507342E-11
(PID.TID 0000.0001)  cg2d: iter=   110 ; resid.=  3.55323916904360E-11
(PID.TID 0000.0001)  cg2d: iter=   111 ; resid.=  2.74141401013690E-11
(PID.TID 0000.0001)  cg2d: iter=   112 ; resid.=  2.02658656043752E-11
(PID.TID 0000.0001)  cg2d: iter=   113 ; resid.=  1.59810534808924E-11
(PID.TID 0000.0001)  cg2d: iter=   114 ; resid.=  1.35539388302689E-11
(PID.TID 0000.0001)  cg2d: iter=   115 ; resid.=  1.02401228252260E-11
(PID.TID 0000.0001)  cg2d: iter=   116 ; resid.=  7.52728796793054E-12
(PID.TID 0000.0001)  cg2d: iter=   117 ; resid.=  5.90093225541824E-12
(PID.TID 0000.0001)  cg2d: iter=   118 ; resid.=  4.44449855188996E-12
(PID.TID 0000.0001)  cg2d: iter=   119 ; resid.=  3.40558160604890E-12
(PID.TID 0000.0001)  cg2d: iter=   120 ; resid.=  2.36574221253075E-12
(PID.TID 0000.0001)  cg2d: iter=   121 ; resid.=  1.76305844198138E-12
(PID.TID 0000.0001)  cg2d: iter=   122 ; resid.=  1.41547178601318E-12
(PID.TID 0000.0001)  cg2d: iter=   123 ; resid.=  1.09063883067979E-12
(PID.TID 0000.0001)  cg2d: iter=   124 ; resid.=  7.84933036720448E-13
(PID.TID 0000.0001)  cg2d: iter=   125 ; resid.=  5.54668067713088E-13
(PID.TID 0000.0001)  cg2d: iter=   126 ; resid.=  4.17585673024229E-13
(PID.TID 0000.0001)  cg2d: iter=   127 ; resid.=  2.86403342016059E-13
(PID.TID 0000.0001)  cg2d: iter=   128 ; resid.=  2.00077595549974E-13
(PID.TID 0000.0001)  cg2d: iter=   129 ; resid.=  1.42550640501402E-13
(PID.TID 0000.0001)  cg2d: iter=   130 ; resid.=  1.13044451236536E-13
(PID.TID 0000.0001)  cg2d: iter=   131 ; resid.=  9.50668797765944E-14
DEBUG_STATS_RL:    cg2d_x (SOLVE_FOR_PRESSURE)  min= -1.87091134636894E+01
DEBUG_STATS_RL:    cg2d_x (SOLVE_FOR_PRESSURE)  max=  9.75994572570445E+00
DEBUG_STATS_RL:    cg2d_x (SOLVE_FOR_PRESSURE) mean= -1.88587102829913E+00
DEBUG_STATS_RL:    cg2d_x (SOLVE_FOR_PRESSURE) S.D.=  7.27878150434278E+00
(PID.TID 0000.0001)      cg2d_init_res =   2.25724497533250E-01
(PID.TID 0000.0001)      cg2d_iters(min,last) =      -1     131
(PID.TID 0000.0001)      cg2d_last_res =   9.50668797765944E-14
(PID.TID 0000.0001) // =======================================================
(PID.TID 0000.0001) // Begin MONITOR dynamic field statistics
(PID.TID 0000.0001) // =======================================================
(PID.TID 0000.0001) %MON time_tsnumber                =                    79
(PID.TID 0000.0001) %MON time_secondsf                =   6.8256000000000E+06
(PID.TID 0000.0001) %MON dynstat_eta_max              =   9.9489762749279E-01
(PID.TID 0000.0001) %MON dynstat_eta_min              =  -1.9071471420683E+00
(PID.TID 0000.0001) %MON dynstat_eta_mean             =  -5.4647303245963E-03
(PID.TID 0000.0001) %MON dynstat_eta_sd               =   6.4141318486163E-01
(PID.TID 0000.0001) %MON dynstat_eta_del2             =   2.4648229205108E-03
(PID.TID 0000.0001) %MON dynstat_uvel_max             =   1.4946484036954E-01
(PID.TID 0000.0001) %MON dynstat_uvel_min             =  -1.2712169812929E-01
(PID.TID 0000.0001) %MON dynstat_uvel_mean            =   2.5777479908186E-03
(PID.TID 0000.0001) %MON dynstat_uvel_sd              =   1.3972078184708E-02
(PID.TID 0000.0001) %MON dynstat_uvel_del2            =   8.3080952365434E-05
(PID.TID 0000.0001) %MON dynstat_vvel_max             =   1.2606661441632E-01
(PID.TID 0000.0001) %MON dynstat_vvel_min             =  -7.6306657368089E-02
(PID.TID 0000.0001) %MON dynstat_vvel_mean            =  -4.9818843153316E-05
(PID.TID 0000.0001) %MON dynstat_vvel_sd              =   8.0977013424743E-03
(PID.TID 0000.0001) %MON dynstat_vvel_del2            =   7.4493455960445E-05
(PID.TID 0000.0001) %MON dynstat_wvel_max             =   1.6952231364255E-04
(PID.TID 0000.0001) %MON dynstat_wvel_min             =  -7.0519365507231E-05
(PID.TID 0000.0001) %MON dynstat_wvel_mean            =   2.9738867364309E-22
(PID.TID 0000.0001) %MON dynstat_wvel_sd              =   1.0195747305943E-05
(PID.TID 0000.0001) %MON dynstat_wvel_del2            =   1.0388113422366E-07
(PID.TID 0000.0001) %MON dynstat_theta_max            =   3.0067465755907E+01
(PID.TID 0000.0001) %MON dynstat_theta_min            =  -1.9229446474688E+00
(PID.TID 0000.0001) %MON dynstat_theta_mean           =   3.6216482423106E+00
(PID.TID 0000.0001) %MON dynstat_theta_sd             =   4.4225336576295E+00
(PID.TID 0000.0001) %MON dynstat_theta_del2           =   4.6540220465169E-03
(PID.TID 0000.0001) %MON dynstat_salt_max             =   3.7445509492617E+01
(PID.TID 0000.0001) %MON dynstat_salt_min             =   2.9878017607976E+01
(PID.TID 0000.0001) %MON dynstat_salt_mean            =   3.4717297345285E+01
(PID.TID 0000.0001) %MON dynstat_salt_sd              =   2.9624969026334E-01
(PID.TID 0000.0001) %MON dynstat_salt_del2            =   9.6095308248456E-04
(PID.TID 0000.0001) %MON dynstat_sst_max              =   3.0067465755907E+01
(PID.TID 0000.0001) %MON dynstat_sst_min              =  -1.9229446474688E+00
(PID.TID 0000.0001) %MON dynstat_sst_mean             =   1.8815060037376E+01
(PID.TID 0000.0001) %MON dynstat_sst_sd               =   9.2815553189904E+00
(PID.TID 0000.0001) %MON dynstat_sst_del2             =   2.3806855695594E-02
(PID.TID 0000.0001) %MON dynstat_sss_max              =   3.7404435661807E+01
(PID.TID 0000.0001) %MON dynstat_sss_min              =   2.9878017607976E+01
(PID.TID 0000.0001) %MON dynstat_sss_mean             =   3.4838981996793E+01
(PID.TID 0000.0001) %MON dynstat_sss_sd               =   9.8210963720776E-01
(PID.TID 0000.0001) %MON dynstat_sss_del2             =   7.6216039618059E-03
(PID.TID 0000.0001) %MON forcing_qnet_max             =   2.6039198608398E+02
(PID.TID 0000.0001) %MON forcing_qnet_min             =  -1.6257160186768E+02
(PID.TID 0000.0001) %MON forcing_qnet_mean            =  -6.0739567032357E+00
(PID.TID 0000.0001) %MON forcing_qnet_sd              =   4.3878157361251E+01
(PID.TID 0000.0001) %MON forcing_qnet_del2            =   8.3036174391227E-01
(PID.TID 0000.0001) %MON forcing_qsw_max              =   0.0000000000000E+00
(PID.TID 0000.0001) %MON forcing_qsw_min              =   0.0000000000000E+00
(PID.TID 0000.0001) %MON forcing_qsw_mean             =   0.0000000000000E+00
(PID.TID 0000.0001) %MON forcing_qsw_sd               =   0.0000000000000E+00
(PID.TID 0000.0001) %MON forcing_qsw_del2             =   0.0000000000000E+00
(PID.TID 0000.0001) %MON forcing_empmr_max            =   6.8820308740669E-05
(PID.TID 0000.0001) %MON forcing_empmr_min            =  -8.3308955822758E-05
(PID.TID 0000.0001) %MON forcing_empmr_mean           =   4.8337495919599E-07
(PID.TID 0000.0001) %MON forcing_empmr_sd             =   2.6080704866784E-05
(PID.TID 0000.0001) %MON forcing_empmr_del2           =   3.6465436122131E-07
(PID.TID 0000.0001) %MON forcing_fu_max               =   3.5498254299164E-01
(PID.TID 0000.0001) %MON forcing_fu_min               =  -3.9135563671589E-01
(PID.TID 0000.0001) %MON forcing_fu_mean              =   2.0075153009589E-02
(PID.TID 0000.0001) %MON forcing_fu_sd                =   1.0135250681503E-01
(PID.TID 0000.0001) %MON forcing_fu_del2              =   8.2249085228600E-04
(PID.TID 0000.0001) %MON forcing_fv_max               =   1.8301234245300E-01
(PID.TID 0000.0001) %MON forcing_fv_min               =  -1.8310849070549E-01
(PID.TID 0000.0001) %MON forcing_fv_mean              =  -7.4201454229255E-03
(PID.TID 0000.0001) %MON forcing_fv_sd                =   4.1471021405543E-02
(PID.TID 0000.0001) %MON forcing_fv_del2              =   4.7971991302382E-04
(PID.TID 0000.0001) %MON trAdv_CFL_u_max              =   4.3560386321625E-02
(PID.TID 0000.0001) %MON trAdv_CFL_v_max              =   2.4955201739303E-02
(PID.TID 0000.0001) %MON trAdv_CFL_w_max              =   3.7031264039746E-02
(PID.TID 0000.0001) %MON advcfl_uvel_max              =   4.2063799488135E-02
(PID.TID 0000.0001) %MON advcfl_vvel_max              =   2.4492721315675E-02
(PID.TID 0000.0001) %MON advcfl_wvel_max              =   4.0128021640319E-02
(PID.TID 0000.0001) %MON advcfl_W_hf_max              =   4.3078611466813E-02
(PID.TID 0000.0001) %MON pe_b_mean                    =   5.2648801509782E-04
(PID.TID 0000.0001) %MON ke_max                       =   1.1716526005017E-02
(PID.TID 0000.0001) %MON ke_mean                      =   1.2114936186916E-04
(PID.TID 0000.0001) %MON ke_vol                       =   1.3226782436723E+18
(PID.TID 0000.0001) %MON vort_r_min                   =  -3.6116864986953E-07
(PID.TID 0000.0001) %MON vort_r_max                   =   3.8940841065793E-07
(PID.TID 0000.0001) %MON vort_a_mean                  =  -2.5274806388363E-05
(PID.TID 0000.0001) %MON vort_a_sd                    =   7.3604699046625E-05
(PID.TID 0000.0001) %MON vort_p_mean                  =  -3.1845654528046E-05
(PID.TID 0000.0001) %MON vort_p_sd                    =   1.3162497799642E-04
(PID.TID 0000.0001) %MON surfExpan_theta_mean         =   5.4154063362202E-07
(PID.TID 0000.0001) %MON surfExpan_salt_mean          =  -2.7922692366658E-08
(PID.TID 0000.0001) // =======================================================
(PID.TID 0000.0001) // End MONITOR dynamic field statistics
(PID.TID 0000.0001) // =======================================================
 EXTERNAL_FIELDS_LOAD,        79 : iP,iLd,i0,i1=    3    4    3    4 ; Wght=  0.8666666667  0.1333333333
 EXTERNAL_FIELDS_LOAD: (fu0,1),fu,fv= -2.7199E-02 -3.7252E-02 -2.8539E-02 -5.1965E-03
 EXTERNAL_FIELDS_LOAD: SST,SSS,Q,E-P= -1.5467E-01  3.4578E+01  2.0056E+02  8.9059E-06
DEBUG_STATS_RL:          Uvel (THERMODYNAMICS)  min= -1.27121698129288E-01
DEBUG_STATS_RL:          Uvel (THERMODYNAMICS)  max=  1.49464840369539E-01
DEBUG_STATS_RL:          Uvel (THERMODYNAMICS) mean=  6.27628255198282E-03
DEBUG_STATS_RL:          Uvel (THERMODYNAMICS) S.D.=  2.24878227254740E-02
DEBUG_STATS_RL:          Vvel (THERMODYNAMICS)  min= -7.63066573680889E-02
DEBUG_STATS_RL:          Vvel (THERMODYNAMICS)  max=  1.26066614416315E-01
DEBUG_STATS_RL:          Vvel (THERMODYNAMICS) mean=  9.24597983450748E-04
DEBUG_STATS_RL:          Vvel (THERMODYNAMICS) S.D.=  1.31784269086165E-02
DEBUG_STATS_RL:          Wvel (THERMODYNAMICS)  min= -7.05193655072306E-05
DEBUG_STATS_RL:          Wvel (THERMODYNAMICS)  max=  1.69522313642550E-04
DEBUG_STATS_RL:          Wvel (THERMODYNAMICS) mean= -8.83819791721126E-09
DEBUG_STATS_RL:          Wvel (THERMODYNAMICS) S.D.=  9.13682206757394E-06
DEBUG_STATS_RL:         Theta (THERMODYNAMICS)  min= -1.92137526233898E+00
DEBUG_STATS_RL:         Theta (THERMODYNAMICS)  max=  3.00682410661226E+01
DEBUG_STATS_RL:         Theta (THERMODYNAMICS) mean=  3.21095786813477E+00
DEBUG_STATS_RL:         Theta (THERMODYNAMICS) S.D.=  5.87201360783294E+00
DEBUG_STATS_RL:          Salt (THERMODYNAMICS)  min= -6.86339798922060E-04
DEBUG_STATS_RL:          Salt (THERMODYNAMICS)  max=  3.74448614531873E+01
DEBUG_STATS_RL:          Salt (THERMODYNAMICS) mean=  1.88440936914012E+01
DEBUG_STATS_RL:          Salt (THERMODYNAMICS) S.D.=  1.73003167505223E+01
DEBUG_STATS_RL:         GtNm1 (THERMODYNAMICS)  min= -2.59060609885441E-06
DEBUG_STATS_RL:         GtNm1 (THERMODYNAMICS)  max=  1.71991324262463E-06
DEBUG_STATS_RL:         GtNm1 (THERMODYNAMICS) mean= -1.36634768164123E-09
DEBUG_STATS_RL:         GtNm1 (THERMODYNAMICS) S.D.=  1.33194087370490E-07
DEBUG_STATS_RL:         GsNm1 (THERMODYNAMICS)  min= -3.23917668693507E-07
DEBUG_STATS_RL:         GsNm1 (THERMODYNAMICS)  max=  4.28257619994909E-07
DEBUG_STATS_RL:         GsNm1 (THERMODYNAMICS) mean=  1.00684813792076E-10
DEBUG_STATS_RL:         GsNm1 (THERMODYNAMICS) S.D.=  1.24082489354014E-08
DEBUG_STATS_RL:                EtaN (DYNAMICS)  min= -1.90714714206826E+00
DEBUG_STATS_RL:                EtaN (DYNAMICS)  max=  9.94897627492792E-01
DEBUG_STATS_RL:                EtaN (DYNAMICS) mean= -1.92239656299605E-01
DEBUG_STATS_RL:                EtaN (DYNAMICS) S.D.=  7.41975688516084E-01
DEBUG_STATS_RL:                Uvel (DYNAMICS)  min= -1.27121698129288E-01
DEBUG_STATS_RL:                Uvel (DYNAMICS)  max=  1.49464840369539E-01
DEBUG_STATS_RL:                Uvel (DYNAMICS) mean=  6.27628255198282E-03
DEBUG_STATS_RL:                Uvel (DYNAMICS) S.D.=  2.24878227254740E-02
DEBUG_STATS_RL:                Vvel (DYNAMICS)  min= -7.63066573680889E-02
DEBUG_STATS_RL:                Vvel (DYNAMICS)  max=  1.26066614416315E-01
DEBUG_STATS_RL:                Vvel (DYNAMICS) mean=  9.24597983450748E-04
DEBUG_STATS_RL:                Vvel (DYNAMICS) S.D.=  1.31784269086165E-02
DEBUG_STATS_RL:                Wvel (DYNAMICS)  min= -7.05193655072306E-05
DEBUG_STATS_RL:                Wvel (DYNAMICS)  max=  1.69522313642550E-04
DEBUG_STATS_RL:                Wvel (DYNAMICS) mean= -8.83819791721126E-09
DEBUG_STATS_RL:                Wvel (DYNAMICS) S.D.=  9.13682206757394E-06
DEBUG_STATS_RL:               Theta (DYNAMICS)  min= -1.92137526233898E+00
DEBUG_STATS_RL:               Theta (DYNAMICS)  max=  3.00682410661226E+01
DEBUG_STATS_RL:               Theta (DYNAMICS) mean=  3.21095786813477E+00
DEBUG_STATS_RL:               Theta (DYNAMICS) S.D.=  5.87201360783294E+00
DEBUG_STATS_RL:                Salt (DYNAMICS)  min= -6.86339798922060E-04
DEBUG_STATS_RL:                Salt (DYNAMICS)  max=  3.74448614531873E+01
DEBUG_STATS_RL:                Salt (DYNAMICS) mean=  1.88440936914012E+01
DEBUG_STATS_RL:                Salt (DYNAMICS) S.D.=  1.73003167505223E+01
DEBUG_STATS_RL:                  Gu (DYNAMICS)  min= -1.26286883993479E-01
DEBUG_STATS_RL:                  Gu (DYNAMICS)  max=  1.58748909142345E-01
DEBUG_STATS_RL:                  Gu (DYNAMICS) mean=  6.17696414967273E-03
DEBUG_STATS_RL:                  Gu (DYNAMICS) S.D.=  2.29199735276922E-02
DEBUG_STATS_RL:                  Gv (DYNAMICS)  min= -7.45459423711521E-02
DEBUG_STATS_RL:                  Gv (DYNAMICS)  max=  1.26170763162876E-01
DEBUG_STATS_RL:                  Gv (DYNAMICS) mean=  3.58326436137097E-03
DEBUG_STATS_RL:                  Gv (DYNAMICS) S.D.=  1.47662139738450E-02
DEBUG_STATS_RL:               GuNm1 (DYNAMICS)  min= -1.00609630240798E-05
DEBUG_STATS_RL:               GuNm1 (DYNAMICS)  max=  9.27682277044843E-06
DEBUG_STATS_RL:               GuNm1 (DYNAMICS) mean=  5.96012700155002E-09
DEBUG_STATS_RL:               GuNm1 (DYNAMICS) S.D.=  1.20983027752105E-06
DEBUG_STATS_RL:               GvNm1 (DYNAMICS)  min= -9.68619583762475E-06
DEBUG_STATS_RL:               GvNm1 (DYNAMICS)  max=  1.54563308881573E-05
DEBUG_STATS_RL:               GvNm1 (DYNAMICS) mean=  7.42122814666467E-07
DEBUG_STATS_RL:               GvNm1 (DYNAMICS) S.D.=  2.60483071263232E-06
DEBUG_STATS_RL:               GtNm1 (DYNAMICS)  min= -2.59060609885441E-06
DEBUG_STATS_RL:               GtNm1 (DYNAMICS)  max=  1.71991324262463E-06
DEBUG_STATS_RL:               GtNm1 (DYNAMICS) mean= -1.36634768164123E-09
DEBUG_STATS_RL:               GtNm1 (DYNAMICS) S.D.=  1.33194087370490E-07
DEBUG_STATS_RL:               GsNm1 (DYNAMICS)  min= -3.23917668693507E-07
DEBUG_STATS_RL:               GsNm1 (DYNAMICS)  max=  4.28257619994909E-07
DEBUG_STATS_RL:               GsNm1 (DYNAMICS) mean=  1.00684813792076E-10
DEBUG_STATS_RL:               GsNm1 (DYNAMICS) S.D.=  1.24082489354014E-08
DEBUG_STATS_RL:    cg2d_b (SOLVE_FOR_PRESSURE)  min= -2.41465698440455E+04
DEBUG_STATS_RL:    cg2d_b (SOLVE_FOR_PRESSURE)  max=  2.62832869627498E+04
DEBUG_STATS_RL:    cg2d_b (SOLVE_FOR_PRESSURE) mean=  5.27442446819526E+00
DEBUG_STATS_RL:    cg2d_b (SOLVE_FOR_PRESSURE) S.D.=  3.90958418456799E+03
 cg2d: Sum(rhs),rhsMax =   4.64564902448253E-01  1.72635665926171E+00
(PID.TID 0000.0001)  cg2d: iter=     1 ; resid.=  7.92029122651256E-02
(PID.TID 0000.0001)  cg2d: iter=     2 ; resid.=  7.69013869489655E-02
(PID.TID 0000.0001)  cg2d: iter=     3 ; resid.=  7.47292044648502E-02
(PID.TID 0000.0001)  cg2d: iter=     4 ; resid.=  7.60829701355064E-02
(PID.TID 0000.0001)  cg2d: iter=     5 ; resid.=  6.09807519690613E-02
(PID.TID 0000.0001)  cg2d: iter=     6 ; resid.=  4.53065203193976E-02
(PID.TID 0000.0001)  cg2d: iter=     7 ; resid.=  4.09743136488470E-02
(PID.TID 0000.0001)  cg2d: iter=     8 ; resid.=  3.54180781662990E-02
(PID.TID 0000.0001)  cg2d: iter=     9 ; resid.=  2.76112602825489E-02
(PID.TID 0000.0001)  cg2d: iter=    10 ; resid.=  2.26159536664906E-02
(PID.TID 0000.0001)  cg2d: iter=    11 ; resid.=  1.91284741679055E-02
(PID.TID 0000.0001)  cg2d: iter=    12 ; resid.=  1.40556210215718E-02
(PID.TID 0000.0001)  cg2d: iter=    13 ; resid.=  9.27628762261845E-03
(PID.TID 0000.0001)  cg2d: iter=    14 ; resid.=  8.10691615411996E-03
(PID.TID 0000.0001)  cg2d: iter=    15 ; resid.=  7.72514906112103E-03
(PID.TID 0000.0001)  cg2d: iter=    16 ; resid.=  6.49740849224196E-03
(PID.TID 0000.0001)  cg2d: iter=    17 ; resid.=  6.18315866230654E-03
(PID.TID 0000.0001)  cg2d: iter=    18 ; resid.=  5.25369797605822E-03
(PID.TID 0000.0001)  cg2d: iter=    19 ; resid.=  3.58190800994800E-03
(PID.TID 0000.0001)  cg2d: iter=    20 ; resid.=  2.60290335049150E-03
(PID.TID 0000.0001)  cg2d: iter=    21 ; resid.=  2.21876619495508E-03
(PID.TID 0000.0001)  cg2d: iter=    22 ; resid.=  2.03568585166586E-03
(PID.TID 0000.0001)  cg2d: iter=    23 ; resid.=  1.83750010928600E-03
(PID.TID 0000.0001)  cg2d: iter=    24 ; resid.=  1.57338062098332E-03
(PID.TID 0000.0001)  cg2d: iter=    25 ; resid.=  1.29749894503816E-03
(PID.TID 0000.0001)  cg2d: iter=    26 ; resid.=  1.02555177686841E-03
(PID.TID 0000.0001)  cg2d: iter=    27 ; resid.=  8.27689824699129E-04
(PID.TID 0000.0001)  cg2d: iter=    28 ; resid.=  6.80732270721443E-04
(PID.TID 0000.0001)  cg2d: iter=    29 ; resid.=  5.35059858321254E-04
(PID.TID 0000.0001)  cg2d: iter=    30 ; resid.=  4.44645205277287E-04
(PID.TID 0000.0001)  cg2d: iter=    31 ; resid.=  3.80030971280461E-04
(PID.TID 0000.0001)  cg2d: iter=    32 ; resid.=  2.92228113003431E-04
(PID.TID 0000.0001)  cg2d: iter=    33 ; resid.=  2.32370400444801E-04
(PID.TID 0000.0001)  cg2d: iter=    34 ; resid.=  1.87827568182233E-04
(PID.TID 0000.0001)  cg2d: iter=    35 ; resid.=  1.50752610786875E-04
(PID.TID 0000.0001)  cg2d: iter=    36 ; resid.=  1.19488652226016E-04
(PID.TID 0000.0001)  cg2d: iter=    37 ; resid.=  1.05646573775351E-04
(PID.TID 0000.0001)  cg2d: iter=    38 ; resid.=  9.81973315135585E-05
(PID.TID 0000.0001)  cg2d: iter=    39 ; resid.=  8.51345354069868E-05
(PID.TID 0000.0001)  cg2d: iter=    40 ; resid.=  7.25008678884623E-05
(PID.TID 0000.0001)  cg2d: iter=    41 ; resid.=  5.99294537359860E-05
(PID.TID 0000.0001)  cg2d: iter=    42 ; resid.=  5.55292860425952E-05
(PID.TID 0000.0001)  cg2d: iter=    43 ; resid.=  4.60583145967831E-05
(PID.TID 0000.0001)  cg2d: iter=    44 ; resid.=  3.57491710593182E-05
(PID.TID 0000.0001)  cg2d: iter=    45 ; resid.=  2.78376534246268E-05
(PID.TID 0000.0001)  cg2d: iter=    46 ; resid.=  2.32815149104793E-05
(PID.TID 0000.0001)  cg2d: iter=    47 ; resid.=  2.07345513506776E-05
(PID.TID 0000.0001)  cg2d: iter=    48 ; resid.=  1.77318762736405E-05
(PID.TID 0000.0001)  cg2d: iter=    49 ; resid.=  1.43614063902307E-05
(PID.TID 0000.0001)  cg2d: iter=    50 ; resid.=  1.18164429753676E-05
(PID.TID 0000.0001)  cg2d: iter=    51 ; resid.=  1.03128140652821E-05
(PID.TID 0000.0001)  cg2d: iter=    52 ; resid.=  8.85165040748343E-06
(PID.TID 0000.0001)  cg2d: iter=    53 ; resid.=  7.98792983808915E-06
(PID.TID 0000.0001)  cg2d: iter=    54 ; resid.=  7.25828159147111E-06
(PID.TID 0000.0001)  cg2d: iter=    55 ; resid.=  6.20985300727891E-06
(PID.TID 0000.0001)  cg2d: iter=    56 ; resid.=  4.96057175910242E-06
(PID.TID 0000.0001)  cg2d: iter=    57 ; resid.=  3.93208724493005E-06
(PID.TID 0000.0001)  cg2d: iter=    58 ; resid.=  2.85162323051489E-06
(PID.TID 0000.0001)  cg2d: iter=    59 ; resid.=  1.99887629660951E-06
(PID.TID 0000.0001)  cg2d: iter=    60 ; resid.=  1.58251871345106E-06
(PID.TID 0000.0001)  cg2d: iter=    61 ; resid.=  1.37096868169139E-06
(PID.TID 0000.0001)  cg2d: iter=    62 ; resid.=  1.15714004228023E-06
(PID.TID 0000.0001)  cg2d: iter=    63 ; resid.=  1.01469885898903E-06
(PID.TID 0000.0001)  cg2d: iter=    64 ; resid.=  8.34880733686814E-07
(PID.TID 0000.0001)  cg2d: iter=    65 ; resid.=  6.74427368260945E-07
(PID.TID 0000.0001)  cg2d: iter=    66 ; resid.=  5.29286574812250E-07
(PID.TID 0000.0001)  cg2d: iter=    67 ; resid.=  4.39586166985682E-07
(PID.TID 0000.0001)  cg2d: iter=    68 ; resid.=  3.80021749941473E-07
(PID.TID 0000.0001)  cg2d: iter=    69 ; resid.=  3.34610113183630E-07
(PID.TID 0000.0001)  cg2d: iter=    70 ; resid.=  3.13322784920253E-07
(PID.TID 0000.0001)  cg2d: iter=    71 ; resid.=  2.56301836253005E-07
(PID.TID 0000.0001)  cg2d: iter=    72 ; resid.=  2.15607692592595E-07
(PID.TID 0000.0001)  cg2d: iter=    73 ; resid.=  1.99854884074014E-07
(PID.TID 0000.0001)  cg2d: iter=    74 ; resid.=  1.92298854361921E-07
(PID.TID 0000.0001)  cg2d: iter=    75 ; resid.=  1.47007644186975E-07
(PID.TID 0000.0001)  cg2d: iter=    76 ; resid.=  1.02644398602390E-07
(PID.TID 0000.0001)  cg2d: iter=    77 ; resid.=  7.31625819648749E-08
(PID.TID 0000.0001)  cg2d: iter=    78 ; resid.=  5.60107086996862E-08
(PID.TID 0000.0001)  cg2d: iter=    79 ; resid.=  4.61698905451917E-08
(PID.TID 0000.0001)  cg2d: iter=    80 ; resid.=  4.07448086633761E-08
(PID.TID 0000.0001)  cg2d: iter=    81 ; resid.=  3.25448057013110E-08
(PID.TID 0000.0001)  cg2d: iter=    82 ; resid.=  2.23811720907531E-08
(PID.TID 0000.0001)  cg2d: iter=    83 ; resid.=  1.64700461760636E-08
(PID.TID 0000.0001)  cg2d: iter=    84 ; resid.=  1.19352899724065E-08
(PID.TID 0000.0001)  cg2d: iter=    85 ; resid.=  8.58218038533865E-09
(PID.TID 0000.0001)  cg2d: iter=    86 ; resid.=  6.75397054683732E-09
(PID.TID 0000.0001)  cg2d: iter=    87 ; resid.=  5.32074681872373E-09
(PID.TID 0000.0001)  cg2d: iter=    88 ; resid.=  4.20659615321520E-09
(PID.TID 0000.0001)  cg2d: iter=    89 ; resid.=  3.83707610128766E-09
(PID.TID 0000.0001)  cg2d: iter=    90 ; resid.=  3.33349180516883E-09
(PID.TID 0000.0001)  cg2d: iter=    91 ; resid.=  2.58757848749613E-09
(PID.TID 0000.0001)  cg2d: iter=    92 ; resid.=  2.12347179656099E-09
(PID.TID 0000.0001)  cg2d: iter=    93 ; resid.=  1.58092766203099E-09
(PID.TID 0000.0001)  cg2d: iter=    94 ; resid.=  1.25413015116094E-09
(PID.TID 0000.0001)  cg2d: iter=    95 ; resid.=  1.04283870297289E-09
(PID.TID 0000.0001)  cg2d: iter=    96 ; resid.=  8.76278003776340E-10
(PID.TID 0000.0001)  cg2d: iter=    97 ; resid.=  7.17139154640958E-10
(PID.TID 0000.0001)  cg2d: iter=    98 ; resid.=  5.64529887797493E-10
(PID.TID 0000.0001)  cg2d: iter=    99 ; resid.=  4.55785117572421E-10
(PID.TID 0000.0001)  cg2d: iter=   100 ; resid.=  4.00025170512445E-10
(PID.TID 0000.0001)  cg2d: iter=   101 ; resid.=  3.43436060276335E-10
(PID.TID 0000.0001)  cg2d: iter=   102 ; resid.=  2.72589467457060E-10
(PID.TID 0000.0001)  cg2d: iter=   103 ; resid.=  2.07296910497488E-10
(PID.TID 0000.0001)  cg2d: iter=   104 ; resid.=  1.56808118471765E-10
(PID.TID 0000.0001)  cg2d: iter=   105 ; resid.=  1.23629259184978E-10
(PID.TID 0000.0001)  cg2d: iter=   106 ; resid.=  1.00066652557907E-10
(PID.TID 0000.0001)  cg2d: iter=   107 ; resid.=  8.42299406072960E-11
(PID.TID 0000.0001)  cg2d: iter=   108 ; resid.=  6.47481842724390E-11
(PID.TID 0000.0001)  cg2d: iter=   109 ; resid.=  4.57628818009069E-11
(PID.TID 0000.0001)  cg2d: iter=   110 ; resid.=  3.18892955915977E-11
(PID.TID 0000.0001)  cg2d: iter=   111 ; resid.=  2.52791553039407E-11
(PID.TID 0000.0001)  cg2d: iter=   112 ; resid.=  1.91650352268530E-11
(PID.TID 0000.0001)  cg2d: iter=   113 ; resid.=  1.46978964380593E-11
(PID.TID 0000.0001)  cg2d: iter=   114 ; resid.=  1.19714505479473E-11
(PID.TID 0000.0001)  cg2d: iter=   115 ; resid.=  8.99085540768875E-12
(PID.TID 0000.0001)  cg2d: iter=   116 ; resid.=  6.73317617364368E-12
(PID.TID 0000.0001)  cg2d: iter=   117 ; resid.=  5.38070284109801E-12
(PID.TID 0000.0001)  cg2d: iter=   118 ; resid.=  4.08091400873829E-12
(PID.TID 0000.0001)  cg2d: iter=   119 ; resid.=  3.18321412314545E-12
(PID.TID 0000.0001)  cg2d: iter=   120 ; resid.=  2.31522532129295E-12
(PID.TID 0000.0001)  cg2d: iter=   121 ; resid.=  1.81417525883814E-12
(PID.TID 0000.0001)  cg2d: iter=   122 ; resid.=  1.49970318267041E-12
(PID.TID 0000.0001)  cg2d: iter=   123 ; resid.=  1.11097195548922E-12
(PID.TID 0000.0001)  cg2d: iter=   124 ; resid.=  7.59811276592771E-13
(PID.TID 0000.0001)  cg2d: iter=   125 ; resid.=  5.18089965565805E-13
(PID.TID 0000.0001)  cg2d: iter=   126 ; resid.=  3.89556085177701E-13
(PID.TID 0000.0001)  cg2d: iter=   127 ; resid.=  2.68274948559768E-13
(PID.TID 0000.0001)  cg2d: iter=   128 ; resid.=  1.88993833298415E-13
(PID.TID 0000.0001)  cg2d: iter=   129 ; resid.=  1.36902263128263E-13
(PID.TID 0000.0001)  cg2d: iter=   130 ; resid.=  1.10317856711613E-13
(PID.TID 0000.0001)  cg2d: iter=   131 ; resid.=  9.00145929262952E-14
DEBUG_STATS_RL:    cg2d_x (SOLVE_FOR_PRESSURE)  min= -1.87182000770461E+01
DEBUG_STATS_RL:    cg2d_x (SOLVE_FOR_PRESSURE)  max=  9.98717993307259E+00
DEBUG_STATS_RL:    cg2d_x (SOLVE_FOR_PRESSURE) mean= -1.91293041355483E+00
DEBUG_STATS_RL:    cg2d_x (SOLVE_FOR_PRESSURE) S.D.=  7.35347154156241E+00
(PID.TID 0000.0001)      cg2d_init_res =   2.19196489470571E-01
(PID.TID 0000.0001)      cg2d_iters(min,last) =      -1     131
(PID.TID 0000.0001)      cg2d_last_res =   9.00145929262952E-14
(PID.TID 0000.0001) // =======================================================
(PID.TID 0000.0001) // Begin MONITOR dynamic field statistics
(PID.TID 0000.0001) // =======================================================
(PID.TID 0000.0001) %MON time_tsnumber                =                    80
(PID.TID 0000.0001) %MON time_secondsf                =   6.9120000000000E+06
(PID.TID 0000.0001) %MON dynstat_eta_max              =   1.0180611552572E+00
(PID.TID 0000.0001) %MON dynstat_eta_min              =  -1.9080734023493E+00
(PID.TID 0000.0001) %MON dynstat_eta_mean             =  -5.5032079255175E-03
(PID.TID 0000.0001) %MON dynstat_eta_sd               =   6.4881969389575E-01
(PID.TID 0000.0001) %MON dynstat_eta_del2             =   2.4687204470975E-03
(PID.TID 0000.0001) %MON dynstat_uvel_max             =   1.5118194795680E-01
(PID.TID 0000.0001) %MON dynstat_uvel_min             =  -1.2810225716955E-01
(PID.TID 0000.0001) %MON dynstat_uvel_mean            =   2.6356125458924E-03
(PID.TID 0000.0001) %MON dynstat_uvel_sd              =   1.4011660149530E-02
(PID.TID 0000.0001) %MON dynstat_uvel_del2            =   8.3369916934243E-05
(PID.TID 0000.0001) %MON dynstat_vvel_max             =   1.2541774107568E-01
(PID.TID 0000.0001) %MON dynstat_vvel_min             =  -7.7584485706259E-02
(PID.TID 0000.0001) %MON dynstat_vvel_mean            =  -4.8828809134558E-05
(PID.TID 0000.0001) %MON dynstat_vvel_sd              =   8.0770637922986E-03
(PID.TID 0000.0001) %MON dynstat_vvel_del2            =   7.4327850199251E-05
(PID.TID 0000.0001) %MON dynstat_wvel_max             =   1.7069373887238E-04
(PID.TID 0000.0001) %MON dynstat_wvel_min             =  -7.0660053573475E-05
(PID.TID 0000.0001) %MON dynstat_wvel_mean            =  -7.6437295508511E-24
(PID.TID 0000.0001) %MON dynstat_wvel_sd              =   1.0138590525393E-05
(PID.TID 0000.0001) %MON dynstat_wvel_del2            =   1.0345816214960E-07
(PID.TID 0000.0001) %MON dynstat_theta_max            =   3.0068241066123E+01
(PID.TID 0000.0001) %MON dynstat_theta_min            =  -1.9213752623390E+00
(PID.TID 0000.0001) %MON dynstat_theta_mean           =   3.6216477089086E+00
(PID.TID 0000.0001) %MON dynstat_theta_sd             =   4.4226131891030E+00
(PID.TID 0000.0001) %MON dynstat_theta_del2           =   4.6496435113722E-03
(PID.TID 0000.0001) %MON dynstat_salt_max             =   3.7444861453187E+01
(PID.TID 0000.0001) %MON dynstat_salt_min             =   2.9878169321848E+01
(PID.TID 0000.0001) %MON dynstat_salt_mean            =   3.4717299494532E+01
(PID.TID 0000.0001) %MON dynstat_salt_sd              =   2.9625455093573E-01
(PID.TID 0000.0001) %MON dynstat_salt_del2            =   9.6118344284686E-04
(PID.TID 0000.0001) %MON dynstat_sst_max              =   3.0068241066123E+01
(PID.TID 0000.0001) %MON dynstat_sst_min              =  -1.9213752623390E+00
(PID.TID 0000.0001) %MON dynstat_sst_mean             =   1.8813162328650E+01
(PID.TID 0000.0001) %MON dynstat_sst_sd               =   9.2898809902000E+00
(PID.TID 0000.0001) %MON dynstat_sst_del2             =   2.3801853295690E-02
(PID.TID 0000.0001) %MON dynstat_sss_max              =   3.7405147773411E+01
(PID.TID 0000.0001) %MON dynstat_sss_min              =   2.9878169321848E+01
(PID.TID 0000.0001) %MON dynstat_sss_mean             =   3.4839049762123E+01
(PID.TID 0000.0001) %MON dynstat_sss_sd               =   9.8239912449016E-01
(PID.TID 0000.0001) %MON dynstat_sss_del2             =   7.6264892434021E-03
(PID.TID 0000.0001) %MON forcing_qnet_max             =   2.5568675130208E+02
(PID.TID 0000.0001) %MON forcing_qnet_min             =  -1.6214360555013E+02
(PID.TID 0000.0001) %MON forcing_qnet_mean            =  -5.6769202742661E+00
(PID.TID 0000.0001) %MON forcing_qnet_sd              =   4.3119698090752E+01
(PID.TID 0000.0001) %MON forcing_qnet_del2            =   8.2388175904859E-01
(PID.TID 0000.0001) %MON forcing_qsw_max              =   0.0000000000000E+00
(PID.TID 0000.0001) %MON forcing_qsw_min              =   0.0000000000000E+00
(PID.TID 0000.0001) %MON forcing_qsw_mean             =   0.0000000000000E+00
(PID.TID 0000.0001) %MON forcing_qsw_sd               =   0.0000000000000E+00
(PID.TID 0000.0001) %MON forcing_qsw_del2             =   0.0000000000000E+00
(PID.TID 0000.0001) %MON forcing_empmr_max            =   6.8724137728774E-05
(PID.TID 0000.0001) %MON forcing_empmr_min            =  -8.3323801902679E-05
(PID.TID 0000.0001) %MON forcing_empmr_mean           =   4.6092959436842E-07
(PID.TID 0000.0001) %MON forcing_empmr_sd             =   2.6018259992401E-05
(PID.TID 0000.0001) %MON forcing_empmr_del2           =   3.6418795428609E-07
(PID.TID 0000.0001) %MON forcing_fu_max               =   3.5412625869115E-01
(PID.TID 0000.0001) %MON forcing_fu_min               =  -3.9228870868683E-01
(PID.TID 0000.0001) %MON forcing_fu_mean              =   1.9947960912656E-02
(PID.TID 0000.0001) %MON forcing_fu_sd                =   1.0113823229809E-01
(PID.TID 0000.0001) %MON forcing_fu_del2              =   8.1500595497074E-04
(PID.TID 0000.0001) %MON forcing_fv_max               =   1.8291634122531E-01
(PID.TID 0000.0001) %MON forcing_fv_min               =  -1.7970077792803E-01
(PID.TID 0000.0001) %MON forcing_fv_mean              =  -7.3836687505524E-03
(PID.TID 0000.0001) %MON forcing_fv_sd                =   4.1110049658616E-02
(PID.TID 0000.0001) %MON forcing_fv_del2              =   4.7130886411290E-04
(PID.TID 0000.0001) %MON trAdv_CFL_u_max              =   4.2072342946657E-02
(PID.TID 0000.0001) %MON trAdv_CFL_v_max              =   2.4392912999134E-02
(PID.TID 0000.0001) %MON trAdv_CFL_w_max              =   3.7555712560811E-02
(PID.TID 0000.0001) %MON advcfl_uvel_max              =   4.2282982643196E-02
(PID.TID 0000.0001) %MON advcfl_vvel_max              =   2.4366655632268E-02
(PID.TID 0000.0001) %MON advcfl_wvel_max              =   4.0405312434449E-02
(PID.TID 0000.0001) %MON advcfl_W_hf_max              =   4.3376291289924E-02
(PID.TID 0000.0001) %MON pe_b_mean                    =   5.3871676437382E-04
(PID.TID 0000.0001) %MON ke_max                       =   1.2216726054651E-02
(PID.TID 0000.0001) %MON ke_mean                      =   1.2163973265127E-04
(PID.TID 0000.0001) %MON ke_vol                       =   1.3226782436723E+18
(PID.TID 0000.0001) %MON vort_r_min                   =  -3.6996611223257E-07
(PID.TID 0000.0001) %MON vort_r_max                   =   3.8575352453579E-07
(PID.TID 0000.0001) %MON vort_a_mean                  =  -2.5274806477489E-05
(PID.TID 0000.0001) %MON vort_a_sd                    =   7.3604708617909E-05
(PID.TID 0000.0001) %MON vort_p_mean                  =  -3.1845654640342E-05
(PID.TID 0000.0001) %MON vort_p_sd                    =   1.3162501461988E-04
(PID.TID 0000.0001) %MON surfExpan_theta_mean         =   5.5862636864628E-07
(PID.TID 0000.0001) %MON surfExpan_salt_mean          =  -3.9210814518649E-08
(PID.TID 0000.0001) // =======================================================
(PID.TID 0000.0001) // End MONITOR dynamic field statistics
(PID.TID 0000.0001) // =======================================================
(PID.TID 0000.0001) // =======================================================
(PID.TID 0000.0001) // Field Current uVel   at iteration         80
(PID.TID 0000.0001) // CMIN =         -1.281022571695491E-01
(PID.TID 0000.0001) // CMAX =          1.511819479568009E-01
(PID.TID 0000.0001) // CINT =          1.034385944912407E-02
(PID.TID 0000.0001) // SYMBOLS (CMIN->CMAX): -abcdefghijklmnopqrstuvwxyz+
(PID.TID 0000.0001) //                  0.0: .
(PID.TID 0000.0001) // RANGE I (Lo:Hi:Step):(     1:    90:     1)
(PID.TID 0000.0001) // RANGE J (Lo:Hi:Step):(    40:     1:    -1)
(PID.TID 0000.0001) // RANGE K (Lo:Hi:Step):(   1:   1:   1)
(PID.TID 0000.0001) // =======================================================
(PID.TID 0000.0001) K =   1
(PID.TID 0000.0001)                I=10      I=20      I=30      I=40      I=50      I=60      I=70      I=80      I=90
(PID.TID 0000.0001) |--J--|123456789|123456789|123456789|123456789|123456789|123456789|123456789|123456789|123456789|
(PID.TID 0000.0001)     40 lllkl..llllllllllll...................................................................lkkl
(PID.TID 0000.0001)     39 lmmmkkkjjjjjkl....m......................................................lll.........kkkkl
(PID.TID 0000.0001)     38 mnnnmmllmmmmm............................................................llll.......jjjjll
(PID.TID 0000.0001)     37 mnn...................................................................m....kl....jjij..llm
(PID.TID 0000.0001)     36 on..........................................kkl.....................mmmnnnnlik..jjjkkkkkln
(PID.TID 0000.0001)     35 nm..................................lll...lkjkkl....klll............ll.....lkkljjlmmmlmnnm
(PID.TID 0000.0001)     34 ....................................lkk..kkkklll..mllmmmm...................mmlmnnoooonn..
(PID.TID 0000.0001)     33 .....................................lllkklmmmnnnnnoooponml..................noqrsssrpoll.
(PID.TID 0000.0001)     32 .....................................klllmmopqqqqqqqqqqqpon.................oqsstutsrponn.
(PID.TID 0000.0001)     31 .....................................mnooppqqrrrrqqqqpppoon...............nsusuutsrqponn..
(PID.TID 0000.0001)     30 ....................................prrrqqqqqqppppoonnmmmmm.............opqrrrrrrqponnmm..
(PID.TID 0000.0001)     29 ..................................oqsrrqppooooonnnnmmlllllll............rpponnnnnnmmlllk..
(PID.TID 0000.0001)     28 ................................oprqqppooooooponmmmmmmmmlllll..........pqonmmmmmmllkkkkl..
(PID.TID 0000.0001)     27 ...............m...............oqqpooooooooooonnmmmmnmmllkkkkl....mmm..qpppponnllkkjjj....
(PID.TID 0000.0001)     26 ...............nl............ijlmmlkklkkllmllkkkkjjkkjjjjjjjjlmm..llllnonooomlkkkjjiii....
(PID.TID 0000.0001)     25 ...............onm....ml....lijklljiiihhhiihhgghhhiiiiiijjkklmnnm....kllllmnmmllmlllkk....
(PID.TID 0000.0001)     24 .............npoonm..mnm....mn..mmkijiihijjiiiikkkkklllmnnnnmmmmmmmm..mmkmnonooooooooo....
(PID.TID 0000.0001)     23 .............nkkkkk..kjk....lm...ihhhgghiihihijkkjkklmnoooonmljjjkkll.....mmjlllllmnop....
(PID.TID 0000.0001)     22 m............gcccdccfefi....l..fefffdccefeddeefhhhhijlnpqpqnmlkkkkjjij.......lhfeehknpqpnm
(PID.TID 0000.0001)     21 noo.........fedcba-acfhkm......hglkigfdefffeeffggfghhiklmlmkkllnnmkjjj.........gbbfilnnppo
(PID.TID 0000.0001)     20 lmn........khjjijiffhlmmn.........lkllkiklmlkjjjjhhgfghhhggfgijklkihhj..........gceghiijkk
(PID.TID 0000.0001)     19 kmm........khijkmnlkklllmnm....jn......mnprqqoonnlkjhiihhgfeeeefggfffh............iggggghh
(PID.TID 0000.0001)     18 jmn........jgefhijlkkmkjkmlkjjhil....mnnnopppoomlklljjjiiiihggghggggghk...........lkjiiiii
(PID.TID 0000.0001)     17 kkl..........ffggihjkkkjjkkjjii......lkkkkklllkjiijkjiijjijjjjjjjiijjkk..........mmljijjjj
(PID.TID 0000.0001)     16 iij.......m..kgghjghiikjiijkkk........kjjjjjjjkjiiijjijjihijijjjjijkkkll.........mljiiiiii
(PID.TID 0000.0001)     15 fefi.....lm..nmmnmllkmmlkkklm..........kjkmllmnonmmmmmmllklkjjkkkjjjjjiik.......lnmlkjihhg
(PID.TID 0000.0001)     14 hfef.....mlklppqrpppoonnmmkkl..........mlmnopqqrqqqqrqpppponmmmlklkkjjihj......lnpponmlkji
(PID.TID 0000.0001)     13 jjhg.....llkmnnooooonmmnmmkkk..........nnnopqqpqqqpppqqqqppooomlkmmmlkkjk.....klmnnonnnmlk
(PID.TID 0000.0001)     12 mlkikkiklmmklllmmmmllmmnmmlkkllmlk.....mnmnnnonnnnnmmnnnnnnnonlklmnmmlll......mmmmnnoonnmm
(PID.TID 0000.0001)     11 pponnkknprsrrrrrqrqqppqqpooonnnnmll...mmmmm..nnnnmmllmmmmmmnnnmlmnnonnml.....nopqrrqrrqppq
(PID.TID 0000.0001)     10 utssstvvwxzzz++zyzzywvvvuutssrrqponm..nonnm..ppnnmmmnnnnnmnooooopppppoon...mnprsuvvvwwvvvv
(PID.TID 0000.0001)      9 xwwwxxyyyyyyxyzzyy++zyxxxxxwwvuutsrqppppon..qqpppooooppqqpppppqqqqqpppom..nnoqtuvvwxyyyyyy
(PID.TID 0000.0001)      8 vwxxxwvvvvvuuttttttuwxwwwwwxwwwwwwwwwvutsrqsrqqrrrrssssssssrrqrrrqqqppon..mmmoqqqstvvvvvvv
(PID.TID 0000.0001)      7 ssttssrsssssrrqqrrrrrsssssttttuuuvvxxxwwvvvtrrrrrsttuvvuttsrrrrrrrrrrqqsspooopoonopqrrrrrr
(PID.TID 0000.0001)      6 oooooppqqqqppooppqqpooooppqqrrsssssssstuvwvutsssssstuvvvutrrqrrrrrssssstuutuutqpoooooooooo
(PID.TID 0000.0001)      5 llllmnnooonnmmmmnnnnmmmmmmnnooooooooppqrsttttssssstssrrrrqqqqqqqrrrrrssssrrrsqonnnnmmnnmmm
(PID.TID 0000.0001)      4 kjjjkkllmllllllllmmmlllkkkklllllmmmmmnnnnoopppqqpppoonnnnooppppppppppppoon...lmmllllllllkk
(PID.TID 0000.0001)      3 kjjjkkkkkl.............................llllllmmmmlllkkkkllmmmmmmmmmmmmmmm...lllllkkkkkkkkk
(PID.TID 0000.0001)      2 ...........................................llllllllkkkkkkkllllll...lll......mmlllllllll...
(PID.TID 0000.0001)      1 ..........................................................................................
(PID.TID 0000.0001) // =======================================================
(PID.TID 0000.0001) // END OF FIELD                                          =
(PID.TID 0000.0001) // =======================================================
(PID.TID 0000.0001) 
(PID.TID 0000.0001) // =======================================================
(PID.TID 0000.0001) // Field Current vVel   at iteration         80
(PID.TID 0000.0001) // CMIN =         -6.832937114254951E-02
(PID.TID 0000.0001) // CMAX =          1.254177410756820E-01
(PID.TID 0000.0001) // CINT =          7.175818971045611E-03
(PID.TID 0000.0001) // SYMBOLS (CMIN->CMAX): -abcdefghijklmnopqrstuvwxyz+
(PID.TID 0000.0001) //                  0.0: .
(PID.TID 0000.0001) // RANGE I (Lo:Hi:Step):(     1:    90:     1)
(PID.TID 0000.0001) // RANGE J (Lo:Hi:Step):(    40:     1:    -1)
(PID.TID 0000.0001) // RANGE K (Lo:Hi:Step):(   1:   1:   1)
(PID.TID 0000.0001) // =======================================================
(PID.TID 0000.0001) K =   1
(PID.TID 0000.0001)                I=10      I=20      I=30      I=40      I=50      I=60      I=70      I=80      I=90
(PID.TID 0000.0001) |--J--|123456789|123456789|123456789|123456789|123456789|123456789|123456789|123456789|123456789|
(PID.TID 0000.0001)     40 jjnom.iiihhhih...jj..................................................................hgfff
(PID.TID 0000.0001)     39 kklnljjiiiijk...........................................................ihij........gihihh
(PID.TID 0000.0001)     38 mnm.......................................................................hhh......he.mlji
(PID.TID 0000.0001)     37 no...................................................................ih...hhh...dimlj.jkjh
(PID.TID 0000.0001)     36 ll.........................................kllk....................jij....gggh.cahkiihhkkg
(PID.TID 0000.0001)     35 ...................................ijkj..kklllkj...ggjll...................eeffefggfffil..
(PID.TID 0000.0001)     34 ....................................iji.jjjijjji.gffgijkk...................ebdeefffecfi..
(PID.TID 0000.0001)     33 ....................................iggiiihgggffeedefhhijjj.................kadgffffdbafj.
(PID.TID 0000.0001)     32 ....................................hgffgggfffedeeefhhiihij................oleijihhgfdei..
(PID.TID 0000.0001)     31 ....................................lkihhhgffgfffffghhihggh..............kmljjjjjiiiiiij..
(PID.TID 0000.0001)     30 ...................................lmjihiigeffgfffeffgfffee............oplljhhiiiihijklk..
(PID.TID 0000.0001)     29 .................................lkjigeeefdccdeffeeefeeefede...........mlhgeddfhiiiijkkj..
(PID.TID 0000.0001)     28 ...............................oojhhgfedeedddffgiiiiihhhhgfdf.........jjhgfeeegijjjkjj....
(PID.TID 0000.0001)     27 ..............ii..............oomkjjjiijkjihijklmmmmlkjjjhgfeg...jkmo.lmkkkjjikkllkkji....
(PID.TID 0000.0001)     26 ..............iji...........ehnmjijllmnonmlkkklmmlkjjjjiihggghij....omljjklkjhijjjhgff....
(PID.TID 0000.0001)     25 ..............nmli...jjj...heh.mggjkkmmmllkkjjkkkkkiijjiijijkjkji....mkjkjjjiijkkkjihg....
(PID.TID 0000.0001)     24 ............pqtspll.mmnl...lkm..hhlmnopppqrqqqrrrrrppqssstsrponljkkj.....qqoqrssssrqmi....
(PID.TID 0000.0001)     23 ............syzwtpq.mpro...jk...gkrvxyz+zyyzzzzyyyxwwxyz+zxwurpommnnl.......suxyyyxvsl....
(PID.TID 0000.0001)     22 j...........nuvusomjjmqr......hdehotvwxywutuuutttutttuuvvvutrpnmlllmjf........pruxwvtpnmkj
(PID.TID 0000.0001)     21 ggh........lmopomjhggiklh......-.einqssqnmlkjkklllklmmnpppqqomllkkjigd.........knuspnnmlki
(PID.TID 0000.0001)     20 egj.......klonlhedddddedc......b......jhgghhgghhhgghihhhgeefgfedffghhg...........tpjhhhhgf
(PID.TID 0000.0001)     19 beh.......jlrqkebeeeeddddhi...ggj.....mljkklllllmlllljihfedcba-acccdfh...........lkfdedccc
(PID.TID 0000.0001)     18 cfh.......j.stmjjijiikighkkjjig.....lmpooooopoooqpoponmlkjihgeddcbacdeh..........lmkihfccd
(PID.TID 0000.0001)     17 jjj.......k.mqlkihiihiihiijjii.......kkkkkklllkkkllllmlllkkkkjjjihffhjk.........hjlllljijk
(PID.TID 0000.0001)     16 moo......kl.ghgeffegfcefghhgh.........gfefggfghgffghhihhhhihijjkjiijlmnl........eghhikkkkm
(PID.TID 0000.0001)     15 jlnk....hjj.dffefcdhdadfghgfg.........feedeeegggfffgghgghiihhkkkjijjkmnnk......feghghjjjjk
(PID.TID 0000.0001)     14 jklk....fhligjkjjhhkheehjihgg.........ffhhihhiihhhiiiiiiijjhjlllljkkkkllj.....fghjkjklklml
(PID.TID 0000.0001)     13 lllk....bfllklmllllljjjklkiii.........hgjlljijjjjjjjjjjjjjjijkklmlkkkklk.....gfhhjkkkllmmm
(PID.TID 0000.0001)     12 kkkjkf-a-eijhhijjjjkihijkjjihhhijk....ghjlk.hhiijjiiiiijjiiiihhjmmkjjklk.....ffgfghghiijkl
(PID.TID 0000.0001)     11 jkjihfdddehjgfhijjijjiijkkkjihhhhij..gfhijk.hhhgiihhhiijkjijihhknnmkkkkj....fgjigfgffghijl
(PID.TID 0000.0001)     10 mmmmlkigilnnkiiknmjikmnnnnnnlkjjijlm.ihjih..mjhhijjjjjikmnnmlkknpqpnmllj..lnjlpnljjjhiklmn
(PID.TID 0000.0001)      9 opqrsqmlnqsrqpnmswnknprsrqqqponmmmosqmlmll.rpmkklmmmnnnnoqrqonoqssqponii.lnpqsvtpoonmloqqq
(PID.TID 0000.0001)      8 pqrqqpnnopqrrpnloxwppqrssrqqpppppprutpmklouvqonooonnoopqrrrrpppqrrqqpnii.mnruvwtpoonnnoprr
(PID.TID 0000.0001)      7 qpommlmnnnooonmmlpusqoopppoooppppprtromkknqrqpopqqqqponopoopooooppponnmmproruvuronnmlmnopr
(PID.TID 0000.0001)      6 mmkjkllmmlllllkkklnonmmmllllmnnnmmnonmlllmmmnnoppppqpnlllklnnnmmnnnnmmmnopprrppollllklmnmn
(PID.TID 0000.0001)      5 jiiiiijkkjiiiiiiijjjjjihghhiijjiiiijjkkkklljjlnoonnonmkkjjklmlkkllmlklllll..kjllkkkkkkkkkk
(PID.TID 0000.0001)      4 fedefedefg............................hghiiiijlmmmllkkjjkkkkkjjiijjjjihii...ijjjjjjjjjiihh
(PID.TID 0000.0001)      3 ..........................................hhhhiiiiiiiiiijiihgggg..iihh.....ijkjiiiiiihg...
(PID.TID 0000.0001)      2 ..........................................................................................
(PID.TID 0000.0001)      1 ..........................................................................................
(PID.TID 0000.0001) // =======================================================
(PID.TID 0000.0001) // END OF FIELD                                          =
(PID.TID 0000.0001) // =======================================================
(PID.TID 0000.0001) 
(PID.TID 0000.0001) // =======================================================
(PID.TID 0000.0001) // Field Current theta  at iteration         80
(PID.TID 0000.0001) // CMIN =         -1.921375262338985E+00
(PID.TID 0000.0001) // CMAX =          3.006824106612263E+01
(PID.TID 0000.0001) // CINT =          1.184800604757837E+00
(PID.TID 0000.0001) // SYMBOLS (CMIN->CMAX): -abcdefghijklmnopqrstuvwxyz+
(PID.TID 0000.0001) //                  0.0: .
(PID.TID 0000.0001) // RANGE I (Lo:Hi:Step):(     1:    90:     1)
(PID.TID 0000.0001) // RANGE J (Lo:Hi:Step):(    40:     1:    -1)
(PID.TID 0000.0001) // RANGE K (Lo:Hi:Step):(   1:   1:   1)
(PID.TID 0000.0001) // =======================================================
(PID.TID 0000.0001) K =   1
(PID.TID 0000.0001)                I=10      I=20      I=30      I=40      I=50      I=60      I=70      I=80      I=90
(PID.TID 0000.0001) |--J--|123456789|123456789|123456789|123456789|123456789|123456789|123456789|123456789|123456789|
(PID.TID 0000.0001)     40 -abccbaa-----aacdddbbbbbbbbbbbbbbbbbbbbbbbbbbbbbbbbbbbbbbbbbbbbbbbbbbbbbbbbbbbbbbbbbbaa---
(PID.TID 0000.0001)     39 bbcccccbaaa---bbbddbbbbbbbbbbbbbbbbbbbbbbbbbbbbbbbbbbbbbbbbbbbbbbbbbbbbb----bbbbbbbbaa--aa
(PID.TID 0000.0001)     38 eeeeeecccbbbbbbbbbbbbbbbbbbbbbbbbbbbbbbbbbbbbbbbbbbbbbbbbbbbbbbbbbbbbbbb-----bbbbbbbaaabcd
(PID.TID 0000.0001)     37 fggbbbbbbbbbbbbbbbbbbbbbbbbbbbbbbbbbbbbbbbbbbbbbbbbbbbbbbbbbbbbbbbbbbbbbbbaabbbbdccdebddde
(PID.TID 0000.0001)     36 ggbbbbbbbbbbbbbbbbbbbbbbbbbbbbbbbbbbbbbbbbbcbaabbbbbbbbbbbbbbbbbbbbccccbbcbbbdbdefgghhhhgg
(PID.TID 0000.0001)     35 fgbbbbbbbbbbbbbbbbbbbbbbbbbbbbbbbbbaaaabbbbcccbabbbeeeffbbbbbbbbbbbbbbbbbbccdedeefghiiiihg
(PID.TID 0000.0001)     34 bbbbbbbbbbbbbbbbbbbbbbbbbbbbbbbbbbb----bbccdddddbddeeffggbbbbbbbbbbbbbbbbbbcbcdefghiijjjbb
(PID.TID 0000.0001)     33 bbbbbbbbbbbbbbbbbbbbbbbbbbbbbbbbbbbb-abbccddddeeeeefffgghhibbbbbbbbbbbbbbbbbbbcghijkkkkkjb
(PID.TID 0000.0001)     32 bbbbbbbbbbbbbbbbbbbbbbbbbbbbbbbbbbbbabbccdeeefffgggghhhhiiibbbbbbbbbbbbbbbbddccikllllllkkb
(PID.TID 0000.0001)     31 bbbbbbbbbbbbbbbbbbbbbbbbbbbbbbbbbbbbdeffgghhhiiiiiijjjkkkkkbbbbbbbbbbbbbbgjlkgjmnnnnmmmmbb
(PID.TID 0000.0001)     30 bbbbbbbbbbbbbbbbbbbbbbbbbbbbbbbbbbblkkkkkkkllllllllllmmmmllbbbbbbbbbbbbmnnoppoppppoooonobb
(PID.TID 0000.0001)     29 bbbbbbbbbbbbbbbbbbbbbbbbbbbbbbbbbnooonnnnnnnnnnnnnnnooooonmmbbbbbbbbbbbpqqqqqqqqqqppppoobb
(PID.TID 0000.0001)     28 bbbbbbbbbbbbbbbbbbbbbbbbbbbbbbbnpqqqqqpppqqqqqqqqqqqqqqqpponnbbbbbbbbbrssrrrsrrrrrqqqqqpbb
(PID.TID 0000.0001)     27 bbbbbbbbbbbbbbvvbbbbbbbbbbbbbbrrsssssssssttssssstttssssrrqqpppbbbssstbtuttttuttttsssrrbbbb
(PID.TID 0000.0001)     26 bbbbbbbbbbbbbbvvubbbbbbbbbbbutuuuuuvvvvvvvvvuuuuuuuutttsssrrrssubtuvwvvvvvvvvuuuttssrrbbbb
(PID.TID 0000.0001)     25 bbbbbbbbbbbbbbwwwwbbbxxxbbbvvwwwwwwxxxxwwwwwwwwvvvvvuuuuutttuuvwxbbbxwwwwwwvvvvuuutsrqbbbb
(PID.TID 0000.0001)     24 bbbbbbbbbbbbwwwxxyybxxyybbbwxxbxxxxyyxxxxxxwxwwwwwwvwwwwwwwwwwxxxwwwbxwwwwwwwwvvvvuutsbbbb
(PID.TID 0000.0001)     23 bbbbbbbbbbbbxxxyyzzbyyyybbbxxxbbyyyyyyyyyyxxxxxxxxxxxxxxxwxxxxxxxxwwwbbbbwwwwwwwwwvvvvbbbb
(PID.TID 0000.0001)     22 wbbbbbbbbbbbxxxyyzzzyyyzbbbyybzyyyyzzyzzzyyyyyyyyyxyxyxxxxxxxxxwwwwwwwbbbbbbxxxxxxxxxxxxxx
(PID.TID 0000.0001)     21 xwxbbbbbbbbyyyyyyyzzzzz++bbbbbzzzzzzzz+++zzzzzyyyyyyyyyyyyxxxxxxwwwvvubbbbbbbbyyyyyyyzzyyx
(PID.TID 0000.0001)     20 wwwbbbbbbbyyzzzzzzzzzzzz+bbbbbbzbz+++++++++zzzzzzzyzyyyyyyxxxxxwwwwwvubbbbbbbbbyzyyyyyyxxx
(PID.TID 0000.0001)     19 wvwbbbbbbbzzzzyyyzzzzzzzzzzbbbzzzbbbbb+++++++++zzzzzzzyyyyxxxxwwwwwwvubbbbbbbbbbbyyxxxxwww
(PID.TID 0000.0001)     18 vvvbbbbbbbzzyyyyyyyzyzzzzzzzzz+zzbbb+++++++++++++zzzzzzyyyyxxxwwwwwvvutbbbbbbbbbbyyyxxwwww
(PID.TID 0000.0001)     17 vvubbbbbbbzbyyyyyyyyyyyyyzzzzzzbbbbbzzzzzz++zzzzzzzzzzyyyyyxxxwwvvvvutubbbbbbbbbyyyyxwvvwv
(PID.TID 0000.0001)     16 uutbbbbbbyzbyyyyxxyxxxxxxxxyyzbbbbbbbyyyyyyzzzzzzyzzzyyyyyyyxxwwwvvuuuttbbbbbbbbyyyyyxwwwv
(PID.TID 0000.0001)     15 utsrbbbbxxxbxxxxxxxxwwwvvvvwxbbbbbbbbbxxxxxxxxxyxyyyyyxyyyyyxxwwwvuuutttsbbbbbbxxyyyyxxwvv
(PID.TID 0000.0001)     14 utrqbbbbwxwwwxwwwwwwvvvvuuuuubbbbbbbbbwwwwwwwwwwwxwwwxwxxxxxwwwwwvvutssssbbbbbwwxxxxxxwwwv
(PID.TID 0000.0001)     13 uttrbbbbwwwwwwvvvvvvuuuttttttbbbbbbbbbvvvvvvvvvvvvvvvvvvwwwvwvvvvuuutssrqbbbbvwwwwwwwwwvvu
(PID.TID 0000.0001)     12 ssssststuuutuutstssssttsrsssrqqsrqbbbbuuuttttttttttttsttttttttstssstssrqbbbbbuvvvutuuuuttt
(PID.TID 0000.0001)     11 qppqrrsssssrrsrqqqpppqqppppppqqqqqqbbssssssbrrrrrrrrrrrrrqqqqqqqppqrrrqpbbbbprsssrrrrrrqqq
(PID.TID 0000.0001)     10 mllmnooopooonoonnnnnmmmmmmmmmnnnoooobqqqqqqbpqqqqqpppppppoooooponnnooooobbnooppooooooooonm
(PID.TID 0000.0001)      9 iiiiiijjjjjjijjjjijjjjiiiijjjjkkllmlmnoooobnnnnooonnnnnnnmmmmmmmlllllmmmbmmmmmmlllkjjkkjii
(PID.TID 0000.0001)      8 ffffffgggfgggghhgfggggggggghhhiijjjjjkklllllkllllkllllkkkkjjjijjjjjjjklkbkkkjjiihhhhgggfee
(PID.TID 0000.0001)      7 ddddeeeefffeefffffeeeeeeeeffffgggggghhhiijjiijjjjiiiihhhhhhhhhhhhhhiiiijiiihhhggfeeeeeeedd
(PID.TID 0000.0001)      6 cccddddddeeddeeeeedddeeeedeedeeeeeeefffggghhggghggfffffffggffffffggggghhggggffeeedddddcccc
(PID.TID 0000.0001)      5 cccccdddddddddddddddddddccdddddeeeeeeddeeeeeeeeeeddcdddddeeeddeeeeeeeffeeeeddddccccccccccc
(PID.TID 0000.0001)      4 ccccccbbcccbbbbbbbbbbbbbbbbbcbccbbbbbbcccccccccbbbbcccccccccccccccccccccccbbaaabbbbcbbbbcc
(PID.TID 0000.0001)      3 bbbbaaaaaabbbbbbbbbbbbbbbbbbbbbbbbbbbbbbaaaaaaaaaaabbbbbaaaaabbaaaaaabbbbbbaaaaaaabbbbbaaa
(PID.TID 0000.0001)      2 bbbbbbbbbbbbbbbbbbbbbbbbbbbbbbbbbbbbbbbbbbaaaaaaaaaaaaaaaaaabbbbbbaaaabbbbbaaaaaaaaaaaabbb
(PID.TID 0000.0001)      1 bbbbbbbbbbbbbbbbbbbbbbbbbbbbbbbbbbbbbbbbbbbbbbbbbbbbbbbbbbbbbbbbbbbbbbbbbbbbbbbbbbbbbbbbbb
(PID.TID 0000.0001) // =======================================================
(PID.TID 0000.0001) // END OF FIELD                                          =
(PID.TID 0000.0001) // =======================================================
(PID.TID 0000.0001) 
(PID.TID 0000.0001) // =======================================================
(PID.TID 0000.0001) // Field Current etaN   at iteration         80
(PID.TID 0000.0001) // CMIN =         -1.908073402349267E+00
(PID.TID 0000.0001) // CMAX =          1.018061155257194E+00
(PID.TID 0000.0001) // CINT =          1.083753539854245E-01
(PID.TID 0000.0001) // SYMBOLS (CMIN->CMAX): -abcdefghijklmnopqrstuvwxyz+
(PID.TID 0000.0001) //                  0.0: .
(PID.TID 0000.0001) // RANGE I (Lo:Hi:Step):(    -1:    92:     1)
(PID.TID 0000.0001) // RANGE J (Lo:Hi:Step):(    42:    -1:    -1)
(PID.TID 0000.0001) // RANGE K (Lo:Hi:Step):(   1:   1:   1)
(PID.TID 0000.0001) // =======================================================
(PID.TID 0000.0001) K =   1
(PID.TID 0000.0001)                I=8       I=18      I=28      I=38      I=48      I=58      I=68      I=78      I=88
(PID.TID 0000.0001) |--J--|101234567|901234567|901234567|901234567|901234567|901234567|901234567|901234567|901234567|9012
(PID.TID 0000.0001)     42 ............................................aaabbbbbbccccccccbcccc..dddd.....aaaaaaaaaaaa.....
(PID.TID 0000.0001)     41 ..............................................................................................
(PID.TID 0000.0001)     40 jjiiijj.kkkkkjjjjjjjj..................................................................jjjjjii
(PID.TID 0000.0001)     39 jjiiiijkjjjjjjjj...jj.....................................................iiii........kkjjjjii
(PID.TID 0000.0001)     38 jjjjkkkjjjjjjij...........................................................iiiii......kjjjjjjjj
(PID.TID 0000.0001)     37 jjkkl..................................................................lk...jii...jjiji.jkjjkk
(PID.TID 0000.0001)     36 kkkm.........................................pppp....................llllkkjiiii.lihhjjkjkkkkm
(PID.TID 0000.0001)     35 llll.................................pppp..pppppqp...sqqrr...........lll....kihhhhhhiijjkkllll
(PID.TID 0000.0001)     34 .....................................qppp.pppppppq.qppppqrs..................jjihhhiijkkln....
(PID.TID 0000.0001)     33 m.....................................qqppppppppppqqpppqqqrss.................lkjjjjklmmmlm...
(PID.TID 0000.0001)     32 n.....................................qqpppppqpqqqqqqqqrrrrrs................hmlkllmmnnmmmn...
(PID.TID 0000.0001)     31 ......................................pqqqqqqrrrrrrrrrrssssss..............lmmnnmnnnnnnmmm....
(PID.TID 0000.0001)     30 .....................................qrrrrrssssssssssstttttts............knnopppppppoonnnn....
(PID.TID 0000.0001)     29 ...................................tuuvvvuuuvuuuuuuuuuuuuuuuts...........npqrrrqqqqppoonnn....
(PID.TID 0000.0001)     28 .................................uvwwxxxxxwwwwwwvvvvvuuvuuuutts.........qqrrrrrrqqqppoonnn....
(PID.TID 0000.0001)     27 ................rr..............wxxyyyyyyyxyxxxwwwwwvvvvvvuuutts...sssr.rssssrrrqqqppoon......
(PID.TID 0000.0001)     26 ................rrr...........zyyyyyyyyyyyyyyxxxwwwwwwwvvvuuuttttt.sssstssssssrrqqqpppoo......
(PID.TID 0000.0001)     25 ................ssss...utu...zyxxzzyyyyyyyyyyxxxxwwwwwwvvvvuuuttttu...sttttttssrrqqqppoo......
(PID.TID 0000.0001)     24 ..............ssssstt.uuuu...zyy.+zyyyyyyyyyxxxwwwwwwwvvvvvuuuuuuuuutt.ttssssssrrqqqpppo......
(PID.TID 0000.0001)     23 ..............ttttttt.uuuu...zyy..zxxxxxxxxxxwwwwwwwwvvvvuuuuuuuuuutttt....ssrrrrqqqpppq......
(PID.TID 0000.0001)     22 qqq...........tttttttuuuuu...zz.yyxxwwwwwwwxxwwwwwwwwwwwwvvvvvuuuuuttttt......srrrrrqqqqqqqqq.
(PID.TID 0000.0001)     21 qqqqq........uutttttttttuuv.....yyxxxxxwwwwwwwwwwwwwwwwwwvvvvvuuuutttttt........rrrrrrqrrqqqqq
(PID.TID 0000.0001)     20 qqqqq.......uuuttttsttttuuu......x.yyyyyxxxxxxxwwwwwwwwwvvvvuuuuuttttttt.........rrrrrqqrqqqqq
(PID.TID 0000.0001)     19 ppppq.......uuttssssttttttutt...www.....yxxxxxxxxxxwwwwwvvuuuuttttttttss...........rrqqqqppppp
(PID.TID 0000.0001)     18 ppppp.......vuuttsttuuuutuuuuuuvvww...yyyyxxxxxxxxxwwwwwvvvuuuutttttttsss..........srqqqpppppp
(PID.TID 0000.0001)     17 ppppp.......v.wuuuuuuuuvuuuuuuuuv.....yyxxxxxxxxxxxxxwwwwvvvvvuuuttttttss.........ssrrqqpppppp
(PID.TID 0000.0001)     16 qqppp......xw.wvvvvvvvuuuuuuuuuu.......xxxxxxxxxxxxxxxxwwwwwwvvvuuuutttsss........ssssrrqqqqpp
(PID.TID 0000.0001)     15 rqqppo....wvu.vvvvvvvuuuuuttstu.........wwwxxxxxxxxxxxxwwwwxwwwvvuuuuttssrr......rssssssrrrqqp
(PID.TID 0000.0001)     14 rrqqpo....vvutuvvuuuvuttuttsrrs.........vwwwwwwwwwwwwwwwwwxxxwwwvvuuuuttsrr.....qrsssstsssrrqq
(PID.TID 0000.0001)     13 ssrqqo....uvvuuuuuuuutttuutsrrr.........uvvvvvvvvvuuuuvvvwwwwwwwvvvuuuttsrr....prrssssttttssrq
(PID.TID 0000.0001)     12 srrqqppmqruvuuuuuttttsttttssrrrrrrrr....tuuuttttttttttuuuuuuvuvuvvuutttssr.....qqrrrrssssssrrq
(PID.TID 0000.0001)     11 rqqppppqrstuuttttssssssssssrrrqqrrrrr..sttttt.ststsssttttuttuutuuvutssssrq....npppqqqqrrrrrqqp
(PID.TID 0000.0001)     10 poonnnnooppqpooppqqppqqqqqqqpppppqqrrq.rssstt.rrrssssttttutttttttutsrrrrrr..qnooonmnnnoopppoon
(PID.TID 0000.0001)      9 llllllkkklmlkjjjkllkklmmmmmnnnnnoppqrqqqrrrs.trqrrssssssttttsssssssrqqqqqp.nonmmlkkjjjklllllll
(PID.TID 0000.0001)      8 ggghhggfghhhhhhghijhfhiiiiijjjkklmmnopoppqrstqpppqqqrrsssrrrrqqqrrrqppppqt.onmlkiggggggghhgggh
(PID.TID 0000.0001)      7 ddcccccddeeeeeeeefghfdddeefffgghhiijjjijkmoponnnnnnnnnnoooonnnnooooonnooopponnlihfeeddddddddcc
(PID.TID 0000.0001)      6 baa--abbbcccccccddeeedccccdddeeeeeeffeefghijkkkkkkjjjiiiijjjkkkkkkkkkkklllkkjihfecccbbbcbbbaa-
(PID.TID 0000.0001)      5 a----aabbbbbbbbbbccccccbbbbbccccccccddddddeeffgggfffeedddeefghhghhhhggggggfedcaaaaaaaaaaaaa---
(PID.TID 0000.0001)      4 ---aaaaabbbbbcccccbbbbbbbbccccccccccbbbbbbcccccccccbbbbbccddddeeeeeeeeddddde..-aaaaaaaa------a
(PID.TID 0000.0001)      3 aabbbbbbbbbb............................bbbbbbbbbbbbbbbbbccccccccccdddddded..baaaaaaaaaaaaaabb
(PID.TID 0000.0001)      2 ............................................aaabbbbbbccccccccbcccc..dddd.....aaaaaaaaaaaa.....
(PID.TID 0000.0001)      1 ..............................................................................................
(PID.TID 0000.0001)      0 jjiiijj.kkkkkjjjjjjjj..................................................................jjjjjii
(PID.TID 0000.0001)     -1 jjiiiijkjjjjjjjj...jj.....................................................iiii........kkjjjjii
(PID.TID 0000.0001) // =======================================================
(PID.TID 0000.0001) // END OF FIELD                                          =
(PID.TID 0000.0001) // =======================================================
(PID.TID 0000.0001) 
(PID.TID 0000.0001)  MDS_WRITE_FIELD: it,rec,kS,kL,kH=      80     1  15   1  15 file=U.0000000080
(PID.TID 0000.0001)  MDS_WRITE_FIELD: it,rec,kS,kL,kH=      80     1  15   1  15 file=V.0000000080
(PID.TID 0000.0001)  MDS_WRITE_FIELD: it,rec,kS,kL,kH=      80     1  15   1  15 file=T.0000000080
(PID.TID 0000.0001)  MDS_WRITE_FIELD: it,rec,kS,kL,kH=      80     1  15   1  15 file=S.0000000080
(PID.TID 0000.0001)  MDS_WRITE_FIELD: it,rec,kS,kL,kH=      80     1   1   1   1 file=Eta.0000000080
(PID.TID 0000.0001)  MDS_WRITE_FIELD: it,rec,kS,kL,kH=      80     1  15   1  15 file=W.0000000080
(PID.TID 0000.0001)  MDS_WRITE_FIELD: it,rec,kS,kL,kH=      80     1  15   1  15 file=PH.0000000080
(PID.TID 0000.0001)  MDS_WRITE_FIELD: it,rec,kS,kL,kH=      80     1   1   1   1 file=PHL.0000000080
(PID.TID 0000.0001)  MDS_WRITE_FIELD: it,rec,kS,kL,kH=      80     1   1   1   1 file=ETAtave.0000000080
(PID.TID 0000.0001)  MDS_WRITE_FIELD: it,rec,kS,kL,kH=      80     1  15   1  15 file=Ttave.0000000080
(PID.TID 0000.0001)  MDS_WRITE_FIELD: it,rec,kS,kL,kH=      80     1  15   1  15 file=Stave.0000000080
(PID.TID 0000.0001)  MDS_WRITE_FIELD: it,rec,kS,kL,kH=      80     1  15   1  15 file=uVeltave.0000000080
(PID.TID 0000.0001)  MDS_WRITE_FIELD: it,rec,kS,kL,kH=      80     1  15   1  15 file=vVeltave.0000000080
(PID.TID 0000.0001)  MDS_WRITE_FIELD: it,rec,kS,kL,kH=      80     1  15   1  15 file=wVeltave.0000000080
(PID.TID 0000.0001)  MDS_WRITE_FIELD: it,rec,kS,kL,kH=      80     1   1   1   1 file=Eta2tave.0000000080
(PID.TID 0000.0001)  MDS_WRITE_FIELD: it,rec,kS,kL,kH=      80     1  15   1  15 file=UTtave.0000000080
(PID.TID 0000.0001)  MDS_WRITE_FIELD: it,rec,kS,kL,kH=      80     1  15   1  15 file=VTtave.0000000080
(PID.TID 0000.0001)  MDS_WRITE_FIELD: it,rec,kS,kL,kH=      80     1  15   1  15 file=WTtave.0000000080
(PID.TID 0000.0001)  MDS_WRITE_FIELD: it,rec,kS,kL,kH=      80     1  15   1  15 file=UStave.0000000080
(PID.TID 0000.0001)  MDS_WRITE_FIELD: it,rec,kS,kL,kH=      80     1  15   1  15 file=VStave.0000000080
(PID.TID 0000.0001)  MDS_WRITE_FIELD: it,rec,kS,kL,kH=      80     1  15   1  15 file=WStave.0000000080
(PID.TID 0000.0001)  MDS_WRITE_FIELD: it,rec,kS,kL,kH=      80     1  15   1  15 file=TTtave.0000000080
(PID.TID 0000.0001)  MDS_WRITE_FIELD: it,rec,kS,kL,kH=      80     1  15   1  15 file=UUtave.0000000080
(PID.TID 0000.0001)  MDS_WRITE_FIELD: it,rec,kS,kL,kH=      80     1  15   1  15 file=VVtave.0000000080
(PID.TID 0000.0001)  MDS_WRITE_FIELD: it,rec,kS,kL,kH=      80     1  15   1  15 file=UVtave.0000000080
(PID.TID 0000.0001)  MDS_WRITE_FIELD: it,rec,kS,kL,kH=      80     1  15   1  15 file=Tdiftave.0000000080
(PID.TID 0000.0001)  MDS_WRITE_FIELD: it,rec,kS,kL,kH=      80     1  15   1  15 file=PhHytave.0000000080
(PID.TID 0000.0001)  MDS_WRITE_FIELD: it,rec,kS,kL,kH=      80     1   1   1   1 file=PHLtave.0000000080
(PID.TID 0000.0001)  MDS_WRITE_FIELD: it,rec,kS,kL,kH=      80     1   1   1   1 file=uFluxtave.0000000080
(PID.TID 0000.0001)  MDS_WRITE_FIELD: it,rec,kS,kL,kH=      80     1   1   1   1 file=vFluxtave.0000000080
(PID.TID 0000.0001)  MDS_WRITE_FIELD: it,rec,kS,kL,kH=      80     1   1   1   1 file=tFluxtave.0000000080
(PID.TID 0000.0001)  MDS_WRITE_FIELD: it,rec,kS,kL,kH=      80     1   1   1   1 file=sFluxtave.0000000080
(PID.TID 0000.0001)  MDS_WRITE_FIELD: it,rec,kS,kL,kH=      80     1   1   1   1 file=PHL2tave.0000000080
(PID.TID 0000.0001)  MDS_WRITE_FIELD: it,rec,kS,kL,kH=      80     1  15   1  15 file=Convtave.0000000080
(PID.TID 0000.0001) // Time-average data written, t-step        80
(PID.TID 0000.0001) 
(PID.TID 0000.0001)  MDS_WRITE_FIELD: it,rec,kS,kL,kH=      80     1  15   1  15 file=GM_Kwx-T.0000000080
(PID.TID 0000.0001)  MDS_WRITE_FIELD: it,rec,kS,kL,kH=      80     1  15   1  15 file=GM_Kwy-T.0000000080
(PID.TID 0000.0001)  MDS_WRITE_FIELD: it,rec,kS,kL,kH=      80     1  15   1  15 file=GM_Kwz-T.0000000080
(PID.TID 0000.0001)  MDS_WRITE_FIELD: it,rec,kS,kL,kH=      80     1   1   1   1 file=ETAN_forecast.0000000080
(PID.TID 0000.0001)  MDS_WRITE_FIELD: it,rec,kS,kL,kH=      80     1  15   1  15 file=THETA_forecast.0000000080
(PID.TID 0000.0001)  MDS_WRITE_FIELD: it,rec,kS,kL,kH=      80     1  15   1  15 file=SALT_forecast.0000000080
(PID.TID 0000.0001)  MDS_WRITE_FIELD: it,rec,kS,kL,kH=      80     1  15   1  15 file=UVEL_forecast.0000000080
(PID.TID 0000.0001)  MDS_WRITE_FIELD: it,rec,kS,kL,kH=      80     1  15   1  15 file=VVEL_forecast.0000000080
(PID.TID 0000.0001)  MDS_WRITE_FIELD: it,rec,kS,kL,kH=      80     1   1   1   1 file=ETAN_001_forecast.0000000080
(PID.TID 0000.0001)  MDS_WRITE_FIELD: it,rec,kS,kL,kH=      80     1  15   1  15 file=THETA_001_forecast.0000000080
(PID.TID 0000.0001)  MDS_WRITE_FIELD: it,rec,kS,kL,kH=      80     1  15   1  15 file=SALT_001_forecast.0000000080
(PID.TID 0000.0001)  MDS_WRITE_FIELD: it,rec,kS,kL,kH=      80     1  15   1  15 file=UVEL_001_forecast.0000000080
(PID.TID 0000.0001)  MDS_WRITE_FIELD: it,rec,kS,kL,kH=      80     1  15   1  15 file=VVEL_001_forecast.0000000080
(PID.TID 0000.0001)  MDS_WRITE_FIELD: it,rec,kS,kL,kH=      80     1   1   1   1 file=ETAN_002_forecast.0000000080
(PID.TID 0000.0001)  MDS_WRITE_FIELD: it,rec,kS,kL,kH=      80     1  15   1  15 file=THETA_002_forecast.0000000080
(PID.TID 0000.0001)  MDS_WRITE_FIELD: it,rec,kS,kL,kH=      80     1  15   1  15 file=SALT_002_forecast.0000000080
(PID.TID 0000.0001)  MDS_WRITE_FIELD: it,rec,kS,kL,kH=      80     1  15   1  15 file=UVEL_002_forecast.0000000080
(PID.TID 0000.0001)  MDS_WRITE_FIELD: it,rec,kS,kL,kH=      80     1  15   1  15 file=VVEL_002_forecast.0000000080
(PID.TID 0000.0001)  MDS_WRITE_FIELD: it,rec,kS,kL,kH=      80     1   1   1   1 file=ETAN_003_forecast.0000000080
(PID.TID 0000.0001)  MDS_WRITE_FIELD: it,rec,kS,kL,kH=      80     1  15   1  15 file=THETA_003_forecast.0000000080
(PID.TID 0000.0001)  MDS_WRITE_FIELD: it,rec,kS,kL,kH=      80     1  15   1  15 file=SALT_003_forecast.0000000080
(PID.TID 0000.0001)  MDS_WRITE_FIELD: it,rec,kS,kL,kH=      80     1  15   1  15 file=UVEL_003_forecast.0000000080
(PID.TID 0000.0001)  MDS_WRITE_FIELD: it,rec,kS,kL,kH=      80     1  15   1  15 file=VVEL_003_forecast.0000000080
(PID.TID 0000.0001)  MDS_WRITE_FIELD: it,rec,kS,kL,kH=      80     1   1   1   1 file=ETAN_004_forecast.0000000080
(PID.TID 0000.0001)  MDS_WRITE_FIELD: it,rec,kS,kL,kH=      80     1  15   1  15 file=THETA_004_forecast.0000000080
(PID.TID 0000.0001)  MDS_WRITE_FIELD: it,rec,kS,kL,kH=      80     1  15   1  15 file=SALT_004_forecast.0000000080
(PID.TID 0000.0001)  MDS_WRITE_FIELD: it,rec,kS,kL,kH=      80     1  15   1  15 file=UVEL_004_forecast.0000000080
(PID.TID 0000.0001)  MDS_WRITE_FIELD: it,rec,kS,kL,kH=      80     1  15   1  15 file=VVEL_004_forecast.0000000080
(PID.TID 0000.0001)  MDS_WRITE_FIELD: it,rec,kS,kL,kH=      80     1   1   1   1 file=ETAN_analysis.0000000080
(PID.TID 0000.0001)  MDS_WRITE_FIELD: it,rec,kS,kL,kH=      80     1  15   1  15 file=THETA_analysis.0000000080
(PID.TID 0000.0001)  MDS_WRITE_FIELD: it,rec,kS,kL,kH=      80     1  15   1  15 file=SALT_analysis.0000000080
(PID.TID 0000.0001)  MDS_WRITE_FIELD: it,rec,kS,kL,kH=      80     1  15   1  15 file=UVEL_analysis.0000000080
(PID.TID 0000.0001)  MDS_WRITE_FIELD: it,rec,kS,kL,kH=      80     1  15   1  15 file=VVEL_analysis.0000000080
(PID.TID 0000.0001)  MDS_WRITE_FIELD: it,rec,kS,kL,kH=      80     1   1   1   1 file=ETAN_001_analysis.0000000080
(PID.TID 0000.0001)  MDS_WRITE_FIELD: it,rec,kS,kL,kH=      80     1  15   1  15 file=THETA_001_analysis.0000000080
(PID.TID 0000.0001)  MDS_WRITE_FIELD: it,rec,kS,kL,kH=      80     1  15   1  15 file=SALT_001_analysis.0000000080
(PID.TID 0000.0001)  MDS_WRITE_FIELD: it,rec,kS,kL,kH=      80     1  15   1  15 file=UVEL_001_analysis.0000000080
(PID.TID 0000.0001)  MDS_WRITE_FIELD: it,rec,kS,kL,kH=      80     1  15   1  15 file=VVEL_001_analysis.0000000080
(PID.TID 0000.0001)  MDS_WRITE_FIELD: it,rec,kS,kL,kH=      80     1   1   1   1 file=ETAN_002_analysis.0000000080
(PID.TID 0000.0001)  MDS_WRITE_FIELD: it,rec,kS,kL,kH=      80     1  15   1  15 file=THETA_002_analysis.0000000080
(PID.TID 0000.0001)  MDS_WRITE_FIELD: it,rec,kS,kL,kH=      80     1  15   1  15 file=SALT_002_analysis.0000000080
(PID.TID 0000.0001)  MDS_WRITE_FIELD: it,rec,kS,kL,kH=      80     1  15   1  15 file=UVEL_002_analysis.0000000080
(PID.TID 0000.0001)  MDS_WRITE_FIELD: it,rec,kS,kL,kH=      80     1  15   1  15 file=VVEL_002_analysis.0000000080
(PID.TID 0000.0001)  MDS_WRITE_FIELD: it,rec,kS,kL,kH=      80     1   1   1   1 file=ETAN_003_analysis.0000000080
(PID.TID 0000.0001)  MDS_WRITE_FIELD: it,rec,kS,kL,kH=      80     1  15   1  15 file=THETA_003_analysis.0000000080
(PID.TID 0000.0001)  MDS_WRITE_FIELD: it,rec,kS,kL,kH=      80     1  15   1  15 file=SALT_003_analysis.0000000080
(PID.TID 0000.0001)  MDS_WRITE_FIELD: it,rec,kS,kL,kH=      80     1  15   1  15 file=UVEL_003_analysis.0000000080
(PID.TID 0000.0001)  MDS_WRITE_FIELD: it,rec,kS,kL,kH=      80     1  15   1  15 file=VVEL_003_analysis.0000000080
(PID.TID 0000.0001)  MDS_WRITE_FIELD: it,rec,kS,kL,kH=      80     1   1   1   1 file=ETAN_004_analysis.0000000080
(PID.TID 0000.0001)  MDS_WRITE_FIELD: it,rec,kS,kL,kH=      80     1  15   1  15 file=THETA_004_analysis.0000000080
(PID.TID 0000.0001)  MDS_WRITE_FIELD: it,rec,kS,kL,kH=      80     1  15   1  15 file=SALT_004_analysis.0000000080
(PID.TID 0000.0001)  MDS_WRITE_FIELD: it,rec,kS,kL,kH=      80     1  15   1  15 file=UVEL_004_analysis.0000000080
(PID.TID 0000.0001)  MDS_WRITE_FIELD: it,rec,kS,kL,kH=      80     1  15   1  15 file=VVEL_004_analysis.0000000080
 EXTERNAL_FIELDS_LOAD,        80 : iP,iLd,i0,i1=    3    4    3    4 ; Wght=  0.8333333333  0.1666666667
 EXTERNAL_FIELDS_LOAD: (fu0,1),fu,fv= -2.7199E-02 -3.7252E-02 -2.8874E-02 -6.3511E-03
 EXTERNAL_FIELDS_LOAD: SST,SSS,Q,E-P= -1.4736E-01  3.4577E+01  1.9685E+02  8.8622E-06
DEBUG_STATS_RL:          Uvel (THERMODYNAMICS)  min= -1.28190575201591E-01
DEBUG_STATS_RL:          Uvel (THERMODYNAMICS)  max=  1.53180801032968E-01
DEBUG_STATS_RL:          Uvel (THERMODYNAMICS) mean=  6.38689602186262E-03
DEBUG_STATS_RL:          Uvel (THERMODYNAMICS) S.D.=  2.27280428720521E-02
DEBUG_STATS_RL:          Vvel (THERMODYNAMICS)  min= -7.88231268497940E-02
DEBUG_STATS_RL:          Vvel (THERMODYNAMICS)  max=  1.25551053496374E-01
DEBUG_STATS_RL:          Vvel (THERMODYNAMICS) mean=  8.96771366812470E-04
DEBUG_STATS_RL:          Vvel (THERMODYNAMICS) S.D.=  1.30676136255476E-02
DEBUG_STATS_RL:          Wvel (THERMODYNAMICS)  min= -7.06600535734753E-05
DEBUG_STATS_RL:          Wvel (THERMODYNAMICS)  max=  1.70693738872384E-04
DEBUG_STATS_RL:          Wvel (THERMODYNAMICS) mean= -5.25892177870195E-09
DEBUG_STATS_RL:          Wvel (THERMODYNAMICS) S.D.=  9.09017866201148E-06
DEBUG_STATS_RL:         Theta (THERMODYNAMICS)  min= -1.91925087796563E+00
DEBUG_STATS_RL:         Theta (THERMODYNAMICS)  max=  3.00675920840701E+01
DEBUG_STATS_RL:         Theta (THERMODYNAMICS) mean=  3.21084379011575E+00
DEBUG_STATS_RL:         Theta (THERMODYNAMICS) S.D.=  5.87214051672898E+00
DEBUG_STATS_RL:          Salt (THERMODYNAMICS)  min= -6.86350631975874E-04
DEBUG_STATS_RL:          Salt (THERMODYNAMICS)  max=  3.74447941650106E+01
DEBUG_STATS_RL:          Salt (THERMODYNAMICS) mean=  1.88441189526036E+01
DEBUG_STATS_RL:          Salt (THERMODYNAMICS) S.D.=  1.73003406495754E+01
DEBUG_STATS_RL:         GtNm1 (THERMODYNAMICS)  min= -2.46226249794204E-06
DEBUG_STATS_RL:         GtNm1 (THERMODYNAMICS)  max=  1.90259553547631E-06
DEBUG_STATS_RL:         GtNm1 (THERMODYNAMICS) mean= -1.69627556773929E-09
DEBUG_STATS_RL:         GtNm1 (THERMODYNAMICS) S.D.=  1.32644937546284E-07
DEBUG_STATS_RL:         GsNm1 (THERMODYNAMICS)  min= -3.31251341364446E-07
DEBUG_STATS_RL:         GsNm1 (THERMODYNAMICS)  max=  2.05487492349529E-07
DEBUG_STATS_RL:         GsNm1 (THERMODYNAMICS) mean=  1.05800507445261E-10
DEBUG_STATS_RL:         GsNm1 (THERMODYNAMICS) S.D.=  1.21930077189124E-08
DEBUG_STATS_RL:                EtaN (DYNAMICS)  min= -1.92486345637172E+00
DEBUG_STATS_RL:                EtaN (DYNAMICS)  max=  9.55915862312921E-01
DEBUG_STATS_RL:                EtaN (DYNAMICS) mean= -1.87533924873582E-01
DEBUG_STATS_RL:                EtaN (DYNAMICS) S.D.=  7.45426594835490E-01
DEBUG_STATS_RL:                Uvel (DYNAMICS)  min= -1.28190575201591E-01
DEBUG_STATS_RL:                Uvel (DYNAMICS)  max=  1.53180801032968E-01
DEBUG_STATS_RL:                Uvel (DYNAMICS) mean=  6.38689602186262E-03
DEBUG_STATS_RL:                Uvel (DYNAMICS) S.D.=  2.27280428720521E-02
DEBUG_STATS_RL:                Vvel (DYNAMICS)  min= -7.88231268497940E-02
DEBUG_STATS_RL:                Vvel (DYNAMICS)  max=  1.25551053496374E-01
DEBUG_STATS_RL:                Vvel (DYNAMICS) mean=  8.96771366812470E-04
DEBUG_STATS_RL:                Vvel (DYNAMICS) S.D.=  1.30676136255476E-02
DEBUG_STATS_RL:                Wvel (DYNAMICS)  min= -7.06600535734753E-05
DEBUG_STATS_RL:                Wvel (DYNAMICS)  max=  1.70693738872384E-04
DEBUG_STATS_RL:                Wvel (DYNAMICS) mean= -5.25892177870195E-09
DEBUG_STATS_RL:                Wvel (DYNAMICS) S.D.=  9.09017866201148E-06
DEBUG_STATS_RL:               Theta (DYNAMICS)  min= -1.91925087796563E+00
DEBUG_STATS_RL:               Theta (DYNAMICS)  max=  3.00675920840701E+01
DEBUG_STATS_RL:               Theta (DYNAMICS) mean=  3.21084379011575E+00
DEBUG_STATS_RL:               Theta (DYNAMICS) S.D.=  5.87214051672898E+00
DEBUG_STATS_RL:                Salt (DYNAMICS)  min= -6.86350631975874E-04
DEBUG_STATS_RL:                Salt (DYNAMICS)  max=  3.74447941650106E+01
DEBUG_STATS_RL:                Salt (DYNAMICS) mean=  1.88441189526036E+01
DEBUG_STATS_RL:                Salt (DYNAMICS) S.D.=  1.73003406495754E+01
DEBUG_STATS_RL:                  Gu (DYNAMICS)  min= -1.27331339793079E-01
DEBUG_STATS_RL:                  Gu (DYNAMICS)  max=  1.61293833832691E-01
DEBUG_STATS_RL:                  Gu (DYNAMICS) mean=  6.27855913992249E-03
DEBUG_STATS_RL:                  Gu (DYNAMICS) S.D.=  2.31442379356091E-02
DEBUG_STATS_RL:                  Gv (DYNAMICS)  min= -8.65235525392242E-02
DEBUG_STATS_RL:                  Gv (DYNAMICS)  max=  1.22986249983050E-01
DEBUG_STATS_RL:                  Gv (DYNAMICS) mean=  3.54780355867891E-03
DEBUG_STATS_RL:                  Gv (DYNAMICS) S.D.=  1.46795427724002E-02
DEBUG_STATS_RL:               GuNm1 (DYNAMICS)  min= -1.01893052482620E-05
DEBUG_STATS_RL:               GuNm1 (DYNAMICS)  max=  9.26510112026667E-06
DEBUG_STATS_RL:               GuNm1 (DYNAMICS) mean=  5.12196632975664E-09
DEBUG_STATS_RL:               GuNm1 (DYNAMICS) S.D.=  1.20944617115673E-06
DEBUG_STATS_RL:               GvNm1 (DYNAMICS)  min= -9.69499763010773E-06
DEBUG_STATS_RL:               GvNm1 (DYNAMICS)  max=  1.54306741107086E-05
DEBUG_STATS_RL:               GvNm1 (DYNAMICS) mean=  7.43024721465128E-07
DEBUG_STATS_RL:               GvNm1 (DYNAMICS) S.D.=  2.60307822252805E-06
DEBUG_STATS_RL:               GtNm1 (DYNAMICS)  min= -2.46226249794204E-06
DEBUG_STATS_RL:               GtNm1 (DYNAMICS)  max=  1.90259553547631E-06
DEBUG_STATS_RL:               GtNm1 (DYNAMICS) mean= -1.69627556773929E-09
DEBUG_STATS_RL:               GtNm1 (DYNAMICS) S.D.=  1.32644937546284E-07
DEBUG_STATS_RL:               GsNm1 (DYNAMICS)  min= -3.31251341364446E-07
DEBUG_STATS_RL:               GsNm1 (DYNAMICS)  max=  2.05487492349529E-07
DEBUG_STATS_RL:               GsNm1 (DYNAMICS) mean=  1.05800507445261E-10
DEBUG_STATS_RL:               GsNm1 (DYNAMICS) S.D.=  1.21930077189124E-08
DEBUG_STATS_RL:    cg2d_b (SOLVE_FOR_PRESSURE)  min= -2.43630646828120E+04
DEBUG_STATS_RL:    cg2d_b (SOLVE_FOR_PRESSURE)  max=  2.73612834589598E+04
DEBUG_STATS_RL:    cg2d_b (SOLVE_FOR_PRESSURE) mean=  5.27111961420649E+00
DEBUG_STATS_RL:    cg2d_b (SOLVE_FOR_PRESSURE) S.D.=  3.92489378125743E+03
 cg2d: Sum(rhs),rhsMax =   4.45982072631735E-01  1.79716235538832E+00
(PID.TID 0000.0001)  cg2d: iter=     1 ; resid.=  5.23915481066278E-01
(PID.TID 0000.0001)  cg2d: iter=     2 ; resid.=  4.17598420962156E-01
(PID.TID 0000.0001)  cg2d: iter=     3 ; resid.=  4.17183698088255E-01
(PID.TID 0000.0001)  cg2d: iter=     4 ; resid.=  3.62358049027643E-01
(PID.TID 0000.0001)  cg2d: iter=     5 ; resid.=  2.87793930175184E-01
(PID.TID 0000.0001)  cg2d: iter=     6 ; resid.=  2.36183806421454E-01
(PID.TID 0000.0001)  cg2d: iter=     7 ; resid.=  2.02801998885909E-01
(PID.TID 0000.0001)  cg2d: iter=     8 ; resid.=  1.64002849156100E-01
(PID.TID 0000.0001)  cg2d: iter=     9 ; resid.=  1.34030072126497E-01
(PID.TID 0000.0001)  cg2d: iter=    10 ; resid.=  1.30128031483833E-01
(PID.TID 0000.0001)  cg2d: iter=    11 ; resid.=  1.09500448518534E-01
(PID.TID 0000.0001)  cg2d: iter=    12 ; resid.=  8.52554449497654E-02
(PID.TID 0000.0001)  cg2d: iter=    13 ; resid.=  6.37535672110757E-02
(PID.TID 0000.0001)  cg2d: iter=    14 ; resid.=  5.32191375156341E-02
(PID.TID 0000.0001)  cg2d: iter=    15 ; resid.=  4.77759429272650E-02
(PID.TID 0000.0001)  cg2d: iter=    16 ; resid.=  4.08625838701592E-02
(PID.TID 0000.0001)  cg2d: iter=    17 ; resid.=  3.50516200368171E-02
(PID.TID 0000.0001)  cg2d: iter=    18 ; resid.=  2.90500796464867E-02
(PID.TID 0000.0001)  cg2d: iter=    19 ; resid.=  2.12608180038003E-02
(PID.TID 0000.0001)  cg2d: iter=    20 ; resid.=  1.67850418054060E-02
(PID.TID 0000.0001)  cg2d: iter=    21 ; resid.=  1.44116358237481E-02
(PID.TID 0000.0001)  cg2d: iter=    22 ; resid.=  1.30398552677790E-02
(PID.TID 0000.0001)  cg2d: iter=    23 ; resid.=  1.07186132189836E-02
(PID.TID 0000.0001)  cg2d: iter=    24 ; resid.=  9.17775160806183E-03
(PID.TID 0000.0001)  cg2d: iter=    25 ; resid.=  7.02235255895639E-03
(PID.TID 0000.0001)  cg2d: iter=    26 ; resid.=  6.57751471336492E-03
(PID.TID 0000.0001)  cg2d: iter=    27 ; resid.=  5.79611154015634E-03
(PID.TID 0000.0001)  cg2d: iter=    28 ; resid.=  5.12146329850994E-03
(PID.TID 0000.0001)  cg2d: iter=    29 ; resid.=  4.38773727683566E-03
(PID.TID 0000.0001)  cg2d: iter=    30 ; resid.=  3.61122580126662E-03
(PID.TID 0000.0001)  cg2d: iter=    31 ; resid.=  2.96457331544901E-03
(PID.TID 0000.0001)  cg2d: iter=    32 ; resid.=  2.32308464776751E-03
(PID.TID 0000.0001)  cg2d: iter=    33 ; resid.=  1.92617861867705E-03
(PID.TID 0000.0001)  cg2d: iter=    34 ; resid.=  1.64394393475192E-03
(PID.TID 0000.0001)  cg2d: iter=    35 ; resid.=  1.26163971458786E-03
(PID.TID 0000.0001)  cg2d: iter=    36 ; resid.=  1.00612706657314E-03
(PID.TID 0000.0001)  cg2d: iter=    37 ; resid.=  8.38192514601059E-04
(PID.TID 0000.0001)  cg2d: iter=    38 ; resid.=  7.22635992545148E-04
(PID.TID 0000.0001)  cg2d: iter=    39 ; resid.=  6.51472515069603E-04
(PID.TID 0000.0001)  cg2d: iter=    40 ; resid.=  5.82676713082441E-04
(PID.TID 0000.0001)  cg2d: iter=    41 ; resid.=  5.37011284439140E-04
(PID.TID 0000.0001)  cg2d: iter=    42 ; resid.=  4.61299120636326E-04
(PID.TID 0000.0001)  cg2d: iter=    43 ; resid.=  3.83502414917360E-04
(PID.TID 0000.0001)  cg2d: iter=    44 ; resid.=  2.82676452970708E-04
(PID.TID 0000.0001)  cg2d: iter=    45 ; resid.=  2.27935973041347E-04
(PID.TID 0000.0001)  cg2d: iter=    46 ; resid.=  2.02117064420965E-04
(PID.TID 0000.0001)  cg2d: iter=    47 ; resid.=  1.74933188098371E-04
(PID.TID 0000.0001)  cg2d: iter=    48 ; resid.=  1.35199751098526E-04
(PID.TID 0000.0001)  cg2d: iter=    49 ; resid.=  1.01458476987016E-04
(PID.TID 0000.0001)  cg2d: iter=    50 ; resid.=  7.76085901718139E-05
(PID.TID 0000.0001)  cg2d: iter=    51 ; resid.=  6.46001060416638E-05
(PID.TID 0000.0001)  cg2d: iter=    52 ; resid.=  5.65290210313420E-05
(PID.TID 0000.0001)  cg2d: iter=    53 ; resid.=  5.43031697084471E-05
(PID.TID 0000.0001)  cg2d: iter=    54 ; resid.=  4.65881628058718E-05
(PID.TID 0000.0001)  cg2d: iter=    55 ; resid.=  3.81258540553481E-05
(PID.TID 0000.0001)  cg2d: iter=    56 ; resid.=  3.02678415608245E-05
(PID.TID 0000.0001)  cg2d: iter=    57 ; resid.=  2.25593322111160E-05
(PID.TID 0000.0001)  cg2d: iter=    58 ; resid.=  1.75491706566707E-05
(PID.TID 0000.0001)  cg2d: iter=    59 ; resid.=  1.40431955719657E-05
(PID.TID 0000.0001)  cg2d: iter=    60 ; resid.=  1.11419467965195E-05
(PID.TID 0000.0001)  cg2d: iter=    61 ; resid.=  8.81527285671547E-06
(PID.TID 0000.0001)  cg2d: iter=    62 ; resid.=  7.16688081175280E-06
(PID.TID 0000.0001)  cg2d: iter=    63 ; resid.=  6.44117562063210E-06
(PID.TID 0000.0001)  cg2d: iter=    64 ; resid.=  5.32083836233288E-06
(PID.TID 0000.0001)  cg2d: iter=    65 ; resid.=  4.36480826643363E-06
(PID.TID 0000.0001)  cg2d: iter=    66 ; resid.=  3.54903899502747E-06
(PID.TID 0000.0001)  cg2d: iter=    67 ; resid.=  2.92796098390873E-06
(PID.TID 0000.0001)  cg2d: iter=    68 ; resid.=  2.46661867736503E-06
(PID.TID 0000.0001)  cg2d: iter=    69 ; resid.=  1.95243679504228E-06
(PID.TID 0000.0001)  cg2d: iter=    70 ; resid.=  1.59220014520894E-06
(PID.TID 0000.0001)  cg2d: iter=    71 ; resid.=  1.36499673772054E-06
(PID.TID 0000.0001)  cg2d: iter=    72 ; resid.=  1.18489933288787E-06
(PID.TID 0000.0001)  cg2d: iter=    73 ; resid.=  1.06060717039357E-06
(PID.TID 0000.0001)  cg2d: iter=    74 ; resid.=  8.72950218044397E-07
(PID.TID 0000.0001)  cg2d: iter=    75 ; resid.=  6.87118337586404E-07
(PID.TID 0000.0001)  cg2d: iter=    76 ; resid.=  6.17212989420542E-07
(PID.TID 0000.0001)  cg2d: iter=    77 ; resid.=  5.73226292943365E-07
(PID.TID 0000.0001)  cg2d: iter=    78 ; resid.=  4.79680897800996E-07
(PID.TID 0000.0001)  cg2d: iter=    79 ; resid.=  3.80123395054735E-07
(PID.TID 0000.0001)  cg2d: iter=    80 ; resid.=  2.93101460112057E-07
(PID.TID 0000.0001)  cg2d: iter=    81 ; resid.=  2.21065573168939E-07
(PID.TID 0000.0001)  cg2d: iter=    82 ; resid.=  1.61285985348797E-07
(PID.TID 0000.0001)  cg2d: iter=    83 ; resid.=  1.17359264928657E-07
(PID.TID 0000.0001)  cg2d: iter=    84 ; resid.=  8.51223617373639E-08
(PID.TID 0000.0001)  cg2d: iter=    85 ; resid.=  6.45771599681923E-08
(PID.TID 0000.0001)  cg2d: iter=    86 ; resid.=  5.15911553934280E-08
(PID.TID 0000.0001)  cg2d: iter=    87 ; resid.=  4.17700569009593E-08
(PID.TID 0000.0001)  cg2d: iter=    88 ; resid.=  3.33989924787616E-08
(PID.TID 0000.0001)  cg2d: iter=    89 ; resid.=  3.01245112644642E-08
(PID.TID 0000.0001)  cg2d: iter=    90 ; resid.=  2.65245232191988E-08
(PID.TID 0000.0001)  cg2d: iter=    91 ; resid.=  2.06941643398868E-08
(PID.TID 0000.0001)  cg2d: iter=    92 ; resid.=  1.53622692071599E-08
(PID.TID 0000.0001)  cg2d: iter=    93 ; resid.=  1.20604761302272E-08
(PID.TID 0000.0001)  cg2d: iter=    94 ; resid.=  9.46008044530986E-09
(PID.TID 0000.0001)  cg2d: iter=    95 ; resid.=  7.85616390145216E-09
(PID.TID 0000.0001)  cg2d: iter=    96 ; resid.=  6.06812236811971E-09
(PID.TID 0000.0001)  cg2d: iter=    97 ; resid.=  4.77857844738417E-09
(PID.TID 0000.0001)  cg2d: iter=    98 ; resid.=  4.07210302204691E-09
(PID.TID 0000.0001)  cg2d: iter=    99 ; resid.=  3.66621649417534E-09
(PID.TID 0000.0001)  cg2d: iter=   100 ; resid.=  3.17933630237796E-09
(PID.TID 0000.0001)  cg2d: iter=   101 ; resid.=  2.53141831224969E-09
(PID.TID 0000.0001)  cg2d: iter=   102 ; resid.=  1.97839735346684E-09
(PID.TID 0000.0001)  cg2d: iter=   103 ; resid.=  1.60982352817106E-09
(PID.TID 0000.0001)  cg2d: iter=   104 ; resid.=  1.27646010803065E-09
(PID.TID 0000.0001)  cg2d: iter=   105 ; resid.=  9.94019237105205E-10
(PID.TID 0000.0001)  cg2d: iter=   106 ; resid.=  7.01218352965034E-10
(PID.TID 0000.0001)  cg2d: iter=   107 ; resid.=  5.21567572364063E-10
(PID.TID 0000.0001)  cg2d: iter=   108 ; resid.=  3.99544554793399E-10
(PID.TID 0000.0001)  cg2d: iter=   109 ; resid.=  2.84681820622264E-10
(PID.TID 0000.0001)  cg2d: iter=   110 ; resid.=  2.26087879351796E-10
(PID.TID 0000.0001)  cg2d: iter=   111 ; resid.=  1.90059619216185E-10
(PID.TID 0000.0001)  cg2d: iter=   112 ; resid.=  1.39941848391834E-10
(PID.TID 0000.0001)  cg2d: iter=   113 ; resid.=  1.14127286950121E-10
(PID.TID 0000.0001)  cg2d: iter=   114 ; resid.=  9.27952723745085E-11
(PID.TID 0000.0001)  cg2d: iter=   115 ; resid.=  7.25499215021022E-11
(PID.TID 0000.0001)  cg2d: iter=   116 ; resid.=  5.20823439247507E-11
(PID.TID 0000.0001)  cg2d: iter=   117 ; resid.=  3.77247807286667E-11
(PID.TID 0000.0001)  cg2d: iter=   118 ; resid.=  2.73779240083337E-11
(PID.TID 0000.0001)  cg2d: iter=   119 ; resid.=  2.01073833418349E-11
(PID.TID 0000.0001)  cg2d: iter=   120 ; resid.=  1.36106547451347E-11
(PID.TID 0000.0001)  cg2d: iter=   121 ; resid.=  9.93637692967448E-12
(PID.TID 0000.0001)  cg2d: iter=   122 ; resid.=  7.94071601564058E-12
(PID.TID 0000.0001)  cg2d: iter=   123 ; resid.=  6.14298678001512E-12
(PID.TID 0000.0001)  cg2d: iter=   124 ; resid.=  4.65563147804925E-12
(PID.TID 0000.0001)  cg2d: iter=   125 ; resid.=  3.71782561474830E-12
(PID.TID 0000.0001)  cg2d: iter=   126 ; resid.=  2.76936349471248E-12
(PID.TID 0000.0001)  cg2d: iter=   127 ; resid.=  2.07641350338114E-12
(PID.TID 0000.0001)  cg2d: iter=   128 ; resid.=  1.43815526561398E-12
(PID.TID 0000.0001)  cg2d: iter=   129 ; resid.=  1.03312517240306E-12
(PID.TID 0000.0001)  cg2d: iter=   130 ; resid.=  8.73210124192306E-13
(PID.TID 0000.0001)  cg2d: iter=   131 ; resid.=  7.49831660140484E-13
(PID.TID 0000.0001)  cg2d: iter=   132 ; resid.=  5.73102997910015E-13
(PID.TID 0000.0001)  cg2d: iter=   133 ; resid.=  4.33952116258567E-13
(PID.TID 0000.0001)  cg2d: iter=   134 ; resid.=  3.26178653244015E-13
(PID.TID 0000.0001)  cg2d: iter=   135 ; resid.=  2.25710911193813E-13
(PID.TID 0000.0001)  cg2d: iter=   136 ; resid.=  1.57071291429358E-13
(PID.TID 0000.0001)  cg2d: iter=   137 ; resid.=  1.24429946438024E-13
(PID.TID 0000.0001)  cg2d: iter=   138 ; resid.=  8.93558736712945E-14
DEBUG_STATS_RL:    cg2d_x (SOLVE_FOR_PRESSURE)  min= -1.87452575470124E+01
DEBUG_STATS_RL:    cg2d_x (SOLVE_FOR_PRESSURE)  max=  1.03806976700561E+01
DEBUG_STATS_RL:    cg2d_x (SOLVE_FOR_PRESSURE) mean= -1.94113918295319E+00
DEBUG_STATS_RL:    cg2d_x (SOLVE_FOR_PRESSURE) S.D.=  7.48709664149872E+00
(PID.TID 0000.0001)      cg2d_init_res =   6.58617023274498E-01
(PID.TID 0000.0001)      cg2d_iters(min,last) =      -1     138
(PID.TID 0000.0001)      cg2d_last_res =   8.93558736712945E-14
(PID.TID 0000.0001) // =======================================================
(PID.TID 0000.0001) // Begin MONITOR dynamic field statistics
(PID.TID 0000.0001) // =======================================================
(PID.TID 0000.0001) %MON time_tsnumber                =                    81
(PID.TID 0000.0001) %MON time_secondsf                =   6.9984000000000E+06
(PID.TID 0000.0001) %MON dynstat_eta_max              =   1.0581750937877E+00
(PID.TID 0000.0001) %MON dynstat_eta_min              =  -1.9108315542315E+00
(PID.TID 0000.0001) %MON dynstat_eta_mean             =  -5.4997597201703E-03
(PID.TID 0000.0001) %MON dynstat_eta_sd               =   6.6325083422096E-01
(PID.TID 0000.0001) %MON dynstat_eta_del2             =   2.4792009058700E-03
(PID.TID 0000.0001) %MON dynstat_uvel_max             =   1.5361633241951E-01
(PID.TID 0000.0001) %MON dynstat_uvel_min             =  -1.2911090873575E-01
(PID.TID 0000.0001) %MON dynstat_uvel_mean            =   2.7117225515553E-03
(PID.TID 0000.0001) %MON dynstat_uvel_sd              =   1.4239128842483E-02
(PID.TID 0000.0001) %MON dynstat_uvel_del2            =   8.3658850302833E-05
(PID.TID 0000.0001) %MON dynstat_vvel_max             =   1.2523545205373E-01
(PID.TID 0000.0001) %MON dynstat_vvel_min             =  -8.0288685347917E-02
(PID.TID 0000.0001) %MON dynstat_vvel_mean            =  -7.1771161429618E-05
(PID.TID 0000.0001) %MON dynstat_vvel_sd              =   8.0602751685745E-03
(PID.TID 0000.0001) %MON dynstat_vvel_del2            =   7.3354998521201E-05
(PID.TID 0000.0001) %MON dynstat_wvel_max             =   1.3723481617799E-04
(PID.TID 0000.0001) %MON dynstat_wvel_min             =  -6.6037029099814E-05
(PID.TID 0000.0001) %MON dynstat_wvel_mean            =   2.4873657724970E-10
(PID.TID 0000.0001) %MON dynstat_wvel_sd              =   1.0102554894799E-05
(PID.TID 0000.0001) %MON dynstat_wvel_del2            =   1.0361968900800E-07
(PID.TID 0000.0001) %MON dynstat_theta_max            =   3.0067592084070E+01
(PID.TID 0000.0001) %MON dynstat_theta_min            =  -1.9192508779656E+00
(PID.TID 0000.0001) %MON dynstat_theta_mean           =   3.6216477827397E+00
(PID.TID 0000.0001) %MON dynstat_theta_sd             =   4.4226285406587E+00
(PID.TID 0000.0001) %MON dynstat_theta_del2           =   4.6446829127873E-03
(PID.TID 0000.0001) %MON dynstat_salt_max             =   3.7444794165011E+01
(PID.TID 0000.0001) %MON dynstat_salt_min             =   2.9881278565738E+01
(PID.TID 0000.0001) %MON dynstat_salt_mean            =   3.4717314542990E+01
(PID.TID 0000.0001) %MON dynstat_salt_sd              =   2.9627726668449E-01
(PID.TID 0000.0001) %MON dynstat_salt_del2            =   9.6216310616361E-04
(PID.TID 0000.0001) %MON dynstat_sst_max              =   3.0067592084070E+01
(PID.TID 0000.0001) %MON dynstat_sst_min              =  -1.9192508779656E+00
(PID.TID 0000.0001) %MON dynstat_sst_mean             =   1.8811364442226E+01
(PID.TID 0000.0001) %MON dynstat_sst_sd               =   9.2978836992135E+00
(PID.TID 0000.0001) %MON dynstat_sst_del2             =   2.3820283470069E-02
(PID.TID 0000.0001) %MON dynstat_sss_max              =   3.7406362290192E+01
(PID.TID 0000.0001) %MON dynstat_sss_min              =   2.9881278565738E+01
(PID.TID 0000.0001) %MON dynstat_sss_mean             =   3.4839196525892E+01
(PID.TID 0000.0001) %MON dynstat_sss_sd               =   9.8263139892294E-01
(PID.TID 0000.0001) %MON dynstat_sss_del2             =   7.6425113071411E-03
(PID.TID 0000.0001) %MON forcing_qnet_max             =   2.5098151652018E+02
(PID.TID 0000.0001) %MON forcing_qnet_min             =  -1.6171560923258E+02
(PID.TID 0000.0001) %MON forcing_qnet_mean            =  -5.2798838452964E+00
(PID.TID 0000.0001) %MON forcing_qnet_sd              =   4.2422430545569E+01
(PID.TID 0000.0001) %MON forcing_qnet_del2            =   8.1785036435017E-01
(PID.TID 0000.0001) %MON forcing_qsw_max              =   0.0000000000000E+00
(PID.TID 0000.0001) %MON forcing_qsw_min              =   0.0000000000000E+00
(PID.TID 0000.0001) %MON forcing_qsw_mean             =   0.0000000000000E+00
(PID.TID 0000.0001) %MON forcing_qsw_sd               =   0.0000000000000E+00
(PID.TID 0000.0001) %MON forcing_qsw_del2             =   0.0000000000000E+00
(PID.TID 0000.0001) %MON forcing_empmr_max            =   6.8627966716880E-05
(PID.TID 0000.0001) %MON forcing_empmr_min            =  -8.3338647982600E-05
(PID.TID 0000.0001) %MON forcing_empmr_mean           =   4.3848422954086E-07
(PID.TID 0000.0001) %MON forcing_empmr_sd             =   2.5959291357545E-05
(PID.TID 0000.0001) %MON forcing_empmr_del2           =   3.6379540965220E-07
(PID.TID 0000.0001) %MON forcing_fu_max               =   3.5326997439067E-01
(PID.TID 0000.0001) %MON forcing_fu_min               =  -3.9322178065777E-01
(PID.TID 0000.0001) %MON forcing_fu_mean              =   1.9820768815724E-02
(PID.TID 0000.0001) %MON forcing_fu_sd                =   1.0094744547946E-01
(PID.TID 0000.0001) %MON forcing_fu_del2              =   8.0814335674264E-04
(PID.TID 0000.0001) %MON forcing_fv_max               =   1.8282033999761E-01
(PID.TID 0000.0001) %MON forcing_fv_min               =  -1.7629306515058E-01
(PID.TID 0000.0001) %MON forcing_fv_mean              =  -7.3471920781794E-03
(PID.TID 0000.0001) %MON forcing_fv_sd                =   4.0771862552171E-02
(PID.TID 0000.0001) %MON forcing_fv_del2              =   4.6338645656999E-04
(PID.TID 0000.0001) %MON trAdv_CFL_u_max              =   4.2850728886432E-02
(PID.TID 0000.0001) %MON trAdv_CFL_v_max              =   2.4293155956208E-02
(PID.TID 0000.0001) %MON trAdv_CFL_w_max              =   3.7815228304036E-02
(PID.TID 0000.0001) %MON advcfl_uvel_max              =   4.2963837979265E-02
(PID.TID 0000.0001) %MON advcfl_vvel_max              =   2.4331239798866E-02
(PID.TID 0000.0001) %MON advcfl_wvel_max              =   3.2485172925421E-02
(PID.TID 0000.0001) %MON advcfl_W_hf_max              =   3.9059756675018E-02
(PID.TID 0000.0001) %MON pe_b_mean                    =   5.6294591333930E-04
(PID.TID 0000.0001) %MON ke_max                       =   1.2990959686724E-02
(PID.TID 0000.0001) %MON ke_mean                      =   1.2462375132997E-04
(PID.TID 0000.0001) %MON ke_vol                       =   1.3226782436723E+18
(PID.TID 0000.0001) %MON vort_r_min                   =  -3.5636616792594E-07
(PID.TID 0000.0001) %MON vort_r_max                   =   3.7898277471809E-07
(PID.TID 0000.0001) %MON vort_a_mean                  =  -2.5274806518004E-05
(PID.TID 0000.0001) %MON vort_a_sd                    =   7.3604717007588E-05
(PID.TID 0000.0001) %MON vort_p_mean                  =  -3.1845654691390E-05
(PID.TID 0000.0001) %MON vort_p_sd                    =   1.3162510069193E-04
(PID.TID 0000.0001) %MON surfExpan_theta_mean         =   5.9248095460525E-07
(PID.TID 0000.0001) %MON surfExpan_salt_mean          =  -1.2951782488176E-07
(PID.TID 0000.0001) // =======================================================
(PID.TID 0000.0001) // End MONITOR dynamic field statistics
(PID.TID 0000.0001) // =======================================================
 EXTERNAL_FIELDS_LOAD,        81 : iP,iLd,i0,i1=    3    4    3    4 ; Wght=  0.8000000000  0.2000000000
 EXTERNAL_FIELDS_LOAD: (fu0,1),fu,fv= -2.7199E-02 -3.7252E-02 -2.9210E-02 -7.5057E-03
 EXTERNAL_FIELDS_LOAD: SST,SSS,Q,E-P= -1.4006E-01  3.4577E+01  1.9314E+02  8.8184E-06
DEBUG_STATS_RL:          Uvel (THERMODYNAMICS)  min= -1.29110908735745E-01
DEBUG_STATS_RL:          Uvel (THERMODYNAMICS)  max=  1.53616332419510E-01
DEBUG_STATS_RL:          Uvel (THERMODYNAMICS) mean=  6.40082846434324E-03
DEBUG_STATS_RL:          Uvel (THERMODYNAMICS) S.D.=  2.26965743636290E-02
DEBUG_STATS_RL:          Vvel (THERMODYNAMICS)  min= -8.02886853479167E-02
DEBUG_STATS_RL:          Vvel (THERMODYNAMICS)  max=  1.25235452053729E-01
DEBUG_STATS_RL:          Vvel (THERMODYNAMICS) mean=  9.27059559400531E-04
DEBUG_STATS_RL:          Vvel (THERMODYNAMICS) S.D.=  1.30318100810518E-02
DEBUG_STATS_RL:          Wvel (THERMODYNAMICS)  min= -6.60370290998138E-05
DEBUG_STATS_RL:          Wvel (THERMODYNAMICS)  max=  1.37234816177992E-04
DEBUG_STATS_RL:          Wvel (THERMODYNAMICS) mean= -1.03668692372133E-08
DEBUG_STATS_RL:          Wvel (THERMODYNAMICS) S.D.=  9.03188335142289E-06
DEBUG_STATS_RL:         Theta (THERMODYNAMICS)  min= -1.92162664651556E+00
DEBUG_STATS_RL:         Theta (THERMODYNAMICS)  max=  3.00659335756035E+01
DEBUG_STATS_RL:         Theta (THERMODYNAMICS) mean=  3.21067715221553E+00
DEBUG_STATS_RL:         Theta (THERMODYNAMICS) S.D.=  5.87226753921843E+00
DEBUG_STATS_RL:          Salt (THERMODYNAMICS)  min= -6.86350631975874E-04
DEBUG_STATS_RL:          Salt (THERMODYNAMICS)  max=  3.74444708914355E+01
DEBUG_STATS_RL:          Salt (THERMODYNAMICS) mean=  1.88441299317606E+01
DEBUG_STATS_RL:          Salt (THERMODYNAMICS) S.D.=  1.73003514603106E+01
DEBUG_STATS_RL:         GtNm1 (THERMODYNAMICS)  min= -2.43979103436754E-06
DEBUG_STATS_RL:         GtNm1 (THERMODYNAMICS)  max=  1.72807103462227E-06
DEBUG_STATS_RL:         GtNm1 (THERMODYNAMICS) mean= -2.08322986712517E-09
DEBUG_STATS_RL:         GtNm1 (THERMODYNAMICS) S.D.=  1.32853155521046E-07
DEBUG_STATS_RL:         GsNm1 (THERMODYNAMICS)  min= -3.31210491352289E-07
DEBUG_STATS_RL:         GsNm1 (THERMODYNAMICS)  max=  2.18234414871203E-07
DEBUG_STATS_RL:         GsNm1 (THERMODYNAMICS) mean=  1.39406263776501E-10
DEBUG_STATS_RL:         GsNm1 (THERMODYNAMICS) S.D.=  1.23373079231950E-08
DEBUG_STATS_RL:                EtaN (DYNAMICS)  min= -1.91083155423146E+00
DEBUG_STATS_RL:                EtaN (DYNAMICS)  max=  1.05817509378766E+00
DEBUG_STATS_RL:                EtaN (DYNAMICS) mean= -1.97873515081875E-01
DEBUG_STATS_RL:                EtaN (DYNAMICS) S.D.=  7.63210666819443E-01
DEBUG_STATS_RL:                Uvel (DYNAMICS)  min= -1.29110908735745E-01
DEBUG_STATS_RL:                Uvel (DYNAMICS)  max=  1.53616332419510E-01
DEBUG_STATS_RL:                Uvel (DYNAMICS) mean=  6.40082846434324E-03
DEBUG_STATS_RL:                Uvel (DYNAMICS) S.D.=  2.26965743636290E-02
DEBUG_STATS_RL:                Vvel (DYNAMICS)  min= -8.02886853479167E-02
DEBUG_STATS_RL:                Vvel (DYNAMICS)  max=  1.25235452053729E-01
DEBUG_STATS_RL:                Vvel (DYNAMICS) mean=  9.27059559400531E-04
DEBUG_STATS_RL:                Vvel (DYNAMICS) S.D.=  1.30318100810518E-02
DEBUG_STATS_RL:                Wvel (DYNAMICS)  min= -6.60370290998138E-05
DEBUG_STATS_RL:                Wvel (DYNAMICS)  max=  1.37234816177992E-04
DEBUG_STATS_RL:                Wvel (DYNAMICS) mean= -1.03668692372133E-08
DEBUG_STATS_RL:                Wvel (DYNAMICS) S.D.=  9.03188335142289E-06
DEBUG_STATS_RL:               Theta (DYNAMICS)  min= -1.92162664651556E+00
DEBUG_STATS_RL:               Theta (DYNAMICS)  max=  3.00659335756035E+01
DEBUG_STATS_RL:               Theta (DYNAMICS) mean=  3.21067715221553E+00
DEBUG_STATS_RL:               Theta (DYNAMICS) S.D.=  5.87226753921843E+00
DEBUG_STATS_RL:                Salt (DYNAMICS)  min= -6.86350631975874E-04
DEBUG_STATS_RL:                Salt (DYNAMICS)  max=  3.74444708914355E+01
DEBUG_STATS_RL:                Salt (DYNAMICS) mean=  1.88441299317606E+01
DEBUG_STATS_RL:                Salt (DYNAMICS) S.D.=  1.73003514603106E+01
DEBUG_STATS_RL:                  Gu (DYNAMICS)  min= -1.28227825295249E-01
DEBUG_STATS_RL:                  Gu (DYNAMICS)  max=  1.60555280147956E-01
DEBUG_STATS_RL:                  Gu (DYNAMICS) mean=  6.28747906876527E-03
DEBUG_STATS_RL:                  Gu (DYNAMICS) S.D.=  2.30756825044964E-02
DEBUG_STATS_RL:                  Gv (DYNAMICS)  min= -8.67418979601089E-02
DEBUG_STATS_RL:                  Gv (DYNAMICS)  max=  1.20892709406204E-01
DEBUG_STATS_RL:                  Gv (DYNAMICS) mean=  3.56555707151431E-03
DEBUG_STATS_RL:                  Gv (DYNAMICS) S.D.=  1.46664036699155E-02
DEBUG_STATS_RL:               GuNm1 (DYNAMICS)  min= -1.01674081246306E-05
DEBUG_STATS_RL:               GuNm1 (DYNAMICS)  max=  9.25717234950224E-06
DEBUG_STATS_RL:               GuNm1 (DYNAMICS) mean=  5.11377171881423E-09
DEBUG_STATS_RL:               GuNm1 (DYNAMICS) S.D.=  1.20950368595507E-06
DEBUG_STATS_RL:               GvNm1 (DYNAMICS)  min= -9.66306071784432E-06
DEBUG_STATS_RL:               GvNm1 (DYNAMICS)  max=  1.54050286247782E-05
DEBUG_STATS_RL:               GvNm1 (DYNAMICS) mean=  7.42783176511272E-07
DEBUG_STATS_RL:               GvNm1 (DYNAMICS) S.D.=  2.60236788798539E-06
DEBUG_STATS_RL:               GtNm1 (DYNAMICS)  min= -2.43979103436754E-06
DEBUG_STATS_RL:               GtNm1 (DYNAMICS)  max=  1.72807103462227E-06
DEBUG_STATS_RL:               GtNm1 (DYNAMICS) mean= -2.08322986712517E-09
DEBUG_STATS_RL:               GtNm1 (DYNAMICS) S.D.=  1.32853155521046E-07
DEBUG_STATS_RL:               GsNm1 (DYNAMICS)  min= -3.31210491352289E-07
DEBUG_STATS_RL:               GsNm1 (DYNAMICS)  max=  2.18234414871203E-07
DEBUG_STATS_RL:               GsNm1 (DYNAMICS) mean=  1.39406263776501E-10
DEBUG_STATS_RL:               GsNm1 (DYNAMICS) S.D.=  1.23373079231950E-08
DEBUG_STATS_RL:    cg2d_b (SOLVE_FOR_PRESSURE)  min= -2.49908097211671E+04
DEBUG_STATS_RL:    cg2d_b (SOLVE_FOR_PRESSURE)  max=  2.74870385593016E+04
DEBUG_STATS_RL:    cg2d_b (SOLVE_FOR_PRESSURE) mean=  5.31880112166687E+00
DEBUG_STATS_RL:    cg2d_b (SOLVE_FOR_PRESSURE) S.D.=  3.92608263625879E+03
 cg2d: Sum(rhs),rhsMax =   4.47957482582075E-01  1.80542228707871E+00
(PID.TID 0000.0001)  cg2d: iter=     1 ; resid.=  1.11022537043889E-01
(PID.TID 0000.0001)  cg2d: iter=     2 ; resid.=  1.21979743050358E-01
(PID.TID 0000.0001)  cg2d: iter=     3 ; resid.=  1.30484062173798E-01
(PID.TID 0000.0001)  cg2d: iter=     4 ; resid.=  1.20184428540082E-01
(PID.TID 0000.0001)  cg2d: iter=     5 ; resid.=  1.04987294367696E-01
(PID.TID 0000.0001)  cg2d: iter=     6 ; resid.=  8.34813567249152E-02
(PID.TID 0000.0001)  cg2d: iter=     7 ; resid.=  6.80412476561070E-02
(PID.TID 0000.0001)  cg2d: iter=     8 ; resid.=  4.77588046234809E-02
(PID.TID 0000.0001)  cg2d: iter=     9 ; resid.=  3.64671025729401E-02
(PID.TID 0000.0001)  cg2d: iter=    10 ; resid.=  3.03462143078446E-02
(PID.TID 0000.0001)  cg2d: iter=    11 ; resid.=  2.67446598419305E-02
(PID.TID 0000.0001)  cg2d: iter=    12 ; resid.=  1.93304114447289E-02
(PID.TID 0000.0001)  cg2d: iter=    13 ; resid.=  1.44815821412510E-02
(PID.TID 0000.0001)  cg2d: iter=    14 ; resid.=  1.24563800559996E-02
(PID.TID 0000.0001)  cg2d: iter=    15 ; resid.=  1.15955975680539E-02
(PID.TID 0000.0001)  cg2d: iter=    16 ; resid.=  1.01030719862821E-02
(PID.TID 0000.0001)  cg2d: iter=    17 ; resid.=  9.66747522804227E-03
(PID.TID 0000.0001)  cg2d: iter=    18 ; resid.=  8.40692378072108E-03
(PID.TID 0000.0001)  cg2d: iter=    19 ; resid.=  6.21988857342704E-03
(PID.TID 0000.0001)  cg2d: iter=    20 ; resid.=  4.92775191518211E-03
(PID.TID 0000.0001)  cg2d: iter=    21 ; resid.=  4.31262277862436E-03
(PID.TID 0000.0001)  cg2d: iter=    22 ; resid.=  3.81950573026764E-03
(PID.TID 0000.0001)  cg2d: iter=    23 ; resid.=  3.16332629297227E-03
(PID.TID 0000.0001)  cg2d: iter=    24 ; resid.=  2.58249004927309E-03
(PID.TID 0000.0001)  cg2d: iter=    25 ; resid.=  1.92964488916588E-03
(PID.TID 0000.0001)  cg2d: iter=    26 ; resid.=  1.47222026141536E-03
(PID.TID 0000.0001)  cg2d: iter=    27 ; resid.=  1.21547570752180E-03
(PID.TID 0000.0001)  cg2d: iter=    28 ; resid.=  1.03788616182190E-03
(PID.TID 0000.0001)  cg2d: iter=    29 ; resid.=  8.12662159096463E-04
(PID.TID 0000.0001)  cg2d: iter=    30 ; resid.=  6.58659407045939E-04
(PID.TID 0000.0001)  cg2d: iter=    31 ; resid.=  5.51627760271480E-04
(PID.TID 0000.0001)  cg2d: iter=    32 ; resid.=  4.39291999994365E-04
(PID.TID 0000.0001)  cg2d: iter=    33 ; resid.=  3.75195204609912E-04
(PID.TID 0000.0001)  cg2d: iter=    34 ; resid.=  3.30791325570130E-04
(PID.TID 0000.0001)  cg2d: iter=    35 ; resid.=  2.71836342537566E-04
(PID.TID 0000.0001)  cg2d: iter=    36 ; resid.=  2.15362583034321E-04
(PID.TID 0000.0001)  cg2d: iter=    37 ; resid.=  1.98361183553333E-04
(PID.TID 0000.0001)  cg2d: iter=    38 ; resid.=  1.81009869845813E-04
(PID.TID 0000.0001)  cg2d: iter=    39 ; resid.=  1.45409617911900E-04
(PID.TID 0000.0001)  cg2d: iter=    40 ; resid.=  1.17178603211726E-04
(PID.TID 0000.0001)  cg2d: iter=    41 ; resid.=  9.54167421473529E-05
(PID.TID 0000.0001)  cg2d: iter=    42 ; resid.=  8.86884984458292E-05
(PID.TID 0000.0001)  cg2d: iter=    43 ; resid.=  6.98500328569224E-05
(PID.TID 0000.0001)  cg2d: iter=    44 ; resid.=  4.95977309086829E-05
(PID.TID 0000.0001)  cg2d: iter=    45 ; resid.=  3.83951005818221E-05
(PID.TID 0000.0001)  cg2d: iter=    46 ; resid.=  3.39517281733698E-05
(PID.TID 0000.0001)  cg2d: iter=    47 ; resid.=  3.19491602458934E-05
(PID.TID 0000.0001)  cg2d: iter=    48 ; resid.=  2.80820395098261E-05
(PID.TID 0000.0001)  cg2d: iter=    49 ; resid.=  2.33131429791612E-05
(PID.TID 0000.0001)  cg2d: iter=    50 ; resid.=  2.05542247815342E-05
(PID.TID 0000.0001)  cg2d: iter=    51 ; resid.=  1.88092471522811E-05
(PID.TID 0000.0001)  cg2d: iter=    52 ; resid.=  1.57858485458000E-05
(PID.TID 0000.0001)  cg2d: iter=    53 ; resid.=  1.31388905071278E-05
(PID.TID 0000.0001)  cg2d: iter=    54 ; resid.=  1.10465884009633E-05
(PID.TID 0000.0001)  cg2d: iter=    55 ; resid.=  9.22574166217023E-06
(PID.TID 0000.0001)  cg2d: iter=    56 ; resid.=  7.28876754869048E-06
(PID.TID 0000.0001)  cg2d: iter=    57 ; resid.=  5.45703422860965E-06
(PID.TID 0000.0001)  cg2d: iter=    58 ; resid.=  4.25608936417315E-06
(PID.TID 0000.0001)  cg2d: iter=    59 ; resid.=  3.32066857128832E-06
(PID.TID 0000.0001)  cg2d: iter=    60 ; resid.=  2.73215726671576E-06
(PID.TID 0000.0001)  cg2d: iter=    61 ; resid.=  2.25428342120475E-06
(PID.TID 0000.0001)  cg2d: iter=    62 ; resid.=  1.90412528023544E-06
(PID.TID 0000.0001)  cg2d: iter=    63 ; resid.=  1.72598644031753E-06
(PID.TID 0000.0001)  cg2d: iter=    64 ; resid.=  1.49796642377629E-06
(PID.TID 0000.0001)  cg2d: iter=    65 ; resid.=  1.24804814312421E-06
(PID.TID 0000.0001)  cg2d: iter=    66 ; resid.=  9.93074889309057E-07
(PID.TID 0000.0001)  cg2d: iter=    67 ; resid.=  8.64961691688863E-07
(PID.TID 0000.0001)  cg2d: iter=    68 ; resid.=  8.01862819690554E-07
(PID.TID 0000.0001)  cg2d: iter=    69 ; resid.=  6.71736486382726E-07
(PID.TID 0000.0001)  cg2d: iter=    70 ; resid.=  5.66815161073605E-07
(PID.TID 0000.0001)  cg2d: iter=    71 ; resid.=  4.33365412249304E-07
(PID.TID 0000.0001)  cg2d: iter=    72 ; resid.=  3.62743310723322E-07
(PID.TID 0000.0001)  cg2d: iter=    73 ; resid.=  3.20046859056244E-07
(PID.TID 0000.0001)  cg2d: iter=    74 ; resid.=  2.75607250800348E-07
(PID.TID 0000.0001)  cg2d: iter=    75 ; resid.=  2.16112164484939E-07
(PID.TID 0000.0001)  cg2d: iter=    76 ; resid.=  1.49327560137019E-07
(PID.TID 0000.0001)  cg2d: iter=    77 ; resid.=  1.09336763468834E-07
(PID.TID 0000.0001)  cg2d: iter=    78 ; resid.=  8.64090816203199E-08
(PID.TID 0000.0001)  cg2d: iter=    79 ; resid.=  7.25258089697102E-08
(PID.TID 0000.0001)  cg2d: iter=    80 ; resid.=  5.87705801753980E-08
(PID.TID 0000.0001)  cg2d: iter=    81 ; resid.=  4.29635228164341E-08
(PID.TID 0000.0001)  cg2d: iter=    82 ; resid.=  2.88382015959276E-08
(PID.TID 0000.0001)  cg2d: iter=    83 ; resid.=  2.18893545635249E-08
(PID.TID 0000.0001)  cg2d: iter=    84 ; resid.=  1.59810809582850E-08
(PID.TID 0000.0001)  cg2d: iter=    85 ; resid.=  1.17672247590668E-08
(PID.TID 0000.0001)  cg2d: iter=    86 ; resid.=  8.96266308765320E-09
(PID.TID 0000.0001)  cg2d: iter=    87 ; resid.=  6.04498008737277E-09
(PID.TID 0000.0001)  cg2d: iter=    88 ; resid.=  4.41054093970920E-09
(PID.TID 0000.0001)  cg2d: iter=    89 ; resid.=  3.61337262273882E-09
(PID.TID 0000.0001)  cg2d: iter=    90 ; resid.=  2.92100610035402E-09
(PID.TID 0000.0001)  cg2d: iter=    91 ; resid.=  2.31521419799262E-09
(PID.TID 0000.0001)  cg2d: iter=    92 ; resid.=  1.99723563682464E-09
(PID.TID 0000.0001)  cg2d: iter=    93 ; resid.=  1.57416090369870E-09
(PID.TID 0000.0001)  cg2d: iter=    94 ; resid.=  1.18549489847871E-09
(PID.TID 0000.0001)  cg2d: iter=    95 ; resid.=  9.49724153041494E-10
(PID.TID 0000.0001)  cg2d: iter=    96 ; resid.=  7.82506193139824E-10
(PID.TID 0000.0001)  cg2d: iter=    97 ; resid.=  6.23501248192773E-10
(PID.TID 0000.0001)  cg2d: iter=    98 ; resid.=  4.79824778883515E-10
(PID.TID 0000.0001)  cg2d: iter=    99 ; resid.=  3.99337318174875E-10
(PID.TID 0000.0001)  cg2d: iter=   100 ; resid.=  3.36304425148264E-10
(PID.TID 0000.0001)  cg2d: iter=   101 ; resid.=  2.74007771808703E-10
(PID.TID 0000.0001)  cg2d: iter=   102 ; resid.=  2.20935035780007E-10
(PID.TID 0000.0001)  cg2d: iter=   103 ; resid.=  1.86128254374588E-10
(PID.TID 0000.0001)  cg2d: iter=   104 ; resid.=  1.49986184471697E-10
(PID.TID 0000.0001)  cg2d: iter=   105 ; resid.=  1.23417030431212E-10
(PID.TID 0000.0001)  cg2d: iter=   106 ; resid.=  1.06993683499163E-10
(PID.TID 0000.0001)  cg2d: iter=   107 ; resid.=  9.16950477188997E-11
(PID.TID 0000.0001)  cg2d: iter=   108 ; resid.=  7.13919703818364E-11
(PID.TID 0000.0001)  cg2d: iter=   109 ; resid.=  5.27704420592161E-11
(PID.TID 0000.0001)  cg2d: iter=   110 ; resid.=  4.03403715769890E-11
(PID.TID 0000.0001)  cg2d: iter=   111 ; resid.=  3.40992403627625E-11
(PID.TID 0000.0001)  cg2d: iter=   112 ; resid.=  2.43776770647062E-11
(PID.TID 0000.0001)  cg2d: iter=   113 ; resid.=  1.71272770361506E-11
(PID.TID 0000.0001)  cg2d: iter=   114 ; resid.=  1.28848394459891E-11
(PID.TID 0000.0001)  cg2d: iter=   115 ; resid.=  9.81677868621698E-12
(PID.TID 0000.0001)  cg2d: iter=   116 ; resid.=  8.06037024152620E-12
(PID.TID 0000.0001)  cg2d: iter=   117 ; resid.=  6.49105256214367E-12
(PID.TID 0000.0001)  cg2d: iter=   118 ; resid.=  4.42036906459633E-12
(PID.TID 0000.0001)  cg2d: iter=   119 ; resid.=  3.36037659633266E-12
(PID.TID 0000.0001)  cg2d: iter=   120 ; resid.=  2.76469968866283E-12
(PID.TID 0000.0001)  cg2d: iter=   121 ; resid.=  2.28211806067339E-12
(PID.TID 0000.0001)  cg2d: iter=   122 ; resid.=  1.87382521768360E-12
(PID.TID 0000.0001)  cg2d: iter=   123 ; resid.=  1.45384155509516E-12
(PID.TID 0000.0001)  cg2d: iter=   124 ; resid.=  1.05054693381613E-12
(PID.TID 0000.0001)  cg2d: iter=   125 ; resid.=  7.84058371208563E-13
(PID.TID 0000.0001)  cg2d: iter=   126 ; resid.=  5.70940204879612E-13
(PID.TID 0000.0001)  cg2d: iter=   127 ; resid.=  3.80492352667828E-13
(PID.TID 0000.0001)  cg2d: iter=   128 ; resid.=  2.57514555168054E-13
(PID.TID 0000.0001)  cg2d: iter=   129 ; resid.=  1.80826609320611E-13
(PID.TID 0000.0001)  cg2d: iter=   130 ; resid.=  1.40822599964049E-13
(PID.TID 0000.0001)  cg2d: iter=   131 ; resid.=  1.16356609974237E-13
(PID.TID 0000.0001)  cg2d: iter=   132 ; resid.=  9.09494290250766E-14
DEBUG_STATS_RL:    cg2d_x (SOLVE_FOR_PRESSURE)  min= -1.89542516789552E+01
DEBUG_STATS_RL:    cg2d_x (SOLVE_FOR_PRESSURE)  max=  1.07524957832749E+01
DEBUG_STATS_RL:    cg2d_x (SOLVE_FOR_PRESSURE) mean= -1.96828016929172E+00
DEBUG_STATS_RL:    cg2d_x (SOLVE_FOR_PRESSURE) S.D.=  7.62313779091526E+00
(PID.TID 0000.0001)      cg2d_init_res =   2.52746427640146E-01
(PID.TID 0000.0001)      cg2d_iters(min,last) =      -1     132
(PID.TID 0000.0001)      cg2d_last_res =   9.09494290250766E-14
(PID.TID 0000.0001) // =======================================================
(PID.TID 0000.0001) // Begin MONITOR dynamic field statistics
(PID.TID 0000.0001) // =======================================================
(PID.TID 0000.0001) %MON time_tsnumber                =                    82
(PID.TID 0000.0001) %MON time_secondsf                =   7.0848000000000E+06
(PID.TID 0000.0001) %MON dynstat_eta_max              =   1.0960750033918E+00
(PID.TID 0000.0001) %MON dynstat_eta_min              =  -1.9321357470902E+00
(PID.TID 0000.0001) %MON dynstat_eta_mean             =  -5.5495094608941E-03
(PID.TID 0000.0001) %MON dynstat_eta_sd               =   6.7817740813239E-01
(PID.TID 0000.0001) %MON dynstat_eta_del2             =   2.4842186995629E-03
(PID.TID 0000.0001) %MON dynstat_uvel_max             =   1.5562203840392E-01
(PID.TID 0000.0001) %MON dynstat_uvel_min             =  -1.2994886861604E-01
(PID.TID 0000.0001) %MON dynstat_uvel_mean            =   2.7438111215677E-03
(PID.TID 0000.0001) %MON dynstat_uvel_sd              =   1.4228073069565E-02
(PID.TID 0000.0001) %MON dynstat_uvel_del2            =   8.3758215685880E-05
(PID.TID 0000.0001) %MON dynstat_vvel_max             =   1.2459428082419E-01
(PID.TID 0000.0001) %MON dynstat_vvel_min             =  -7.9908648713157E-02
(PID.TID 0000.0001) %MON dynstat_vvel_mean            =  -6.7269126168477E-05
(PID.TID 0000.0001) %MON dynstat_vvel_sd              =   8.0223604576578E-03
(PID.TID 0000.0001) %MON dynstat_vvel_del2            =   7.3400016324084E-05
(PID.TID 0000.0001) %MON dynstat_wvel_max             =   1.4320853433914E-04
(PID.TID 0000.0001) %MON dynstat_wvel_min             =  -6.4711981066064E-05
(PID.TID 0000.0001) %MON dynstat_wvel_mean            =  -9.3276216468516E-11
(PID.TID 0000.0001) %MON dynstat_wvel_sd              =   1.0016568948757E-05
(PID.TID 0000.0001) %MON dynstat_wvel_del2            =   1.0256287233147E-07
(PID.TID 0000.0001) %MON dynstat_theta_max            =   3.0065933575604E+01
(PID.TID 0000.0001) %MON dynstat_theta_min            =  -1.9216266465156E+00
(PID.TID 0000.0001) %MON dynstat_theta_mean           =   3.6216399351451E+00
(PID.TID 0000.0001) %MON dynstat_theta_sd             =   4.4226770322304E+00
(PID.TID 0000.0001) %MON dynstat_theta_del2           =   4.6403082456314E-03
(PID.TID 0000.0001) %MON dynstat_salt_max             =   3.7444470891436E+01
(PID.TID 0000.0001) %MON dynstat_salt_min             =   2.9881793190478E+01
(PID.TID 0000.0001) %MON dynstat_salt_mean            =   3.4717320221772E+01
(PID.TID 0000.0001) %MON dynstat_salt_sd              =   2.9628737906736E-01
(PID.TID 0000.0001) %MON dynstat_salt_del2            =   9.6251532323158E-04
(PID.TID 0000.0001) %MON dynstat_sst_max              =   3.0065933575604E+01
(PID.TID 0000.0001) %MON dynstat_sst_min              =  -1.9216266465156E+00
(PID.TID 0000.0001) %MON dynstat_sst_mean             =   1.8808784451832E+01
(PID.TID 0000.0001) %MON dynstat_sst_sd               =   9.3063364874954E+00
(PID.TID 0000.0001) %MON dynstat_sst_del2             =   2.3819221255248E-02
(PID.TID 0000.0001) %MON dynstat_sss_max              =   3.7407036040764E+01
(PID.TID 0000.0001) %MON dynstat_sss_min              =   2.9881793190478E+01
(PID.TID 0000.0001) %MON dynstat_sss_mean             =   3.4839267213456E+01
(PID.TID 0000.0001) %MON dynstat_sss_sd               =   9.8292170373941E-01
(PID.TID 0000.0001) %MON dynstat_sss_del2             =   7.6492179964141E-03
(PID.TID 0000.0001) %MON forcing_qnet_max             =   2.4627628173828E+02
(PID.TID 0000.0001) %MON forcing_qnet_min             =  -1.6128761291504E+02
(PID.TID 0000.0001) %MON forcing_qnet_mean            =  -4.8828474163268E+00
(PID.TID 0000.0001) %MON forcing_qnet_sd              =   4.1789417838572E+01
(PID.TID 0000.0001) %MON forcing_qnet_del2            =   8.1227755261188E-01
(PID.TID 0000.0001) %MON forcing_qsw_max              =   0.0000000000000E+00
(PID.TID 0000.0001) %MON forcing_qsw_min              =   0.0000000000000E+00
(PID.TID 0000.0001) %MON forcing_qsw_mean             =   0.0000000000000E+00
(PID.TID 0000.0001) %MON forcing_qsw_sd               =   0.0000000000000E+00
(PID.TID 0000.0001) %MON forcing_qsw_del2             =   0.0000000000000E+00
(PID.TID 0000.0001) %MON forcing_empmr_max            =   6.8531795704985E-05
(PID.TID 0000.0001) %MON forcing_empmr_min            =  -8.3353494062521E-05
(PID.TID 0000.0001) %MON forcing_empmr_mean           =   4.1603886471329E-07
(PID.TID 0000.0001) %MON forcing_empmr_sd             =   2.5903822702636E-05
(PID.TID 0000.0001) %MON forcing_empmr_del2           =   3.6347696662718E-07
(PID.TID 0000.0001) %MON forcing_fu_max               =   3.5241369009018E-01
(PID.TID 0000.0001) %MON forcing_fu_min               =  -3.9415485262871E-01
(PID.TID 0000.0001) %MON forcing_fu_mean              =   1.9693576718791E-02
(PID.TID 0000.0001) %MON forcing_fu_sd                =   1.0078027975270E-01
(PID.TID 0000.0001) %MON forcing_fu_del2              =   8.0191903414414E-04
(PID.TID 0000.0001) %MON forcing_fv_max               =   1.8272433876991E-01
(PID.TID 0000.0001) %MON forcing_fv_min               =  -1.7288535237312E-01
(PID.TID 0000.0001) %MON forcing_fv_mean              =  -7.3107154058064E-03
(PID.TID 0000.0001) %MON forcing_fv_sd                =   4.0457031472126E-02
(PID.TID 0000.0001) %MON forcing_fv_del2              =   4.5597816085300E-04
(PID.TID 0000.0001) %MON trAdv_CFL_u_max              =   4.2972564242041E-02
(PID.TID 0000.0001) %MON trAdv_CFL_v_max              =   2.4232089522652E-02
(PID.TID 0000.0001) %MON trAdv_CFL_w_max              =   3.2924847584540E-02
(PID.TID 0000.0001) %MON advcfl_uvel_max              =   4.2727471927283E-02
(PID.TID 0000.0001) %MON advcfl_vvel_max              =   2.4206670512116E-02
(PID.TID 0000.0001) %MON advcfl_wvel_max              =   3.3899225662744E-02
(PID.TID 0000.0001) %MON advcfl_W_hf_max              =   4.0151261798559E-02
(PID.TID 0000.0001) %MON pe_b_mean                    =   5.8856836629291E-04
(PID.TID 0000.0001) %MON ke_max                       =   1.3174799271675E-02
(PID.TID 0000.0001) %MON ke_mean                      =   1.2428626583225E-04
(PID.TID 0000.0001) %MON ke_vol                       =   1.3226782436723E+18
(PID.TID 0000.0001) %MON vort_r_min                   =  -3.6493250392727E-07
(PID.TID 0000.0001) %MON vort_r_max                   =   3.7647540360723E-07
(PID.TID 0000.0001) %MON vort_a_mean                  =  -2.5274806569504E-05
(PID.TID 0000.0001) %MON vort_a_sd                    =   7.3604722133258E-05
(PID.TID 0000.0001) %MON vort_p_mean                  =  -3.1845654756278E-05
(PID.TID 0000.0001) %MON vort_p_sd                    =   1.3162509980104E-04
(PID.TID 0000.0001) %MON surfExpan_theta_mean         =   6.4221448667414E-07
(PID.TID 0000.0001) %MON surfExpan_salt_mean          =  -1.3354327408029E-07
(PID.TID 0000.0001) // =======================================================
(PID.TID 0000.0001) // End MONITOR dynamic field statistics
(PID.TID 0000.0001) // =======================================================
 EXTERNAL_FIELDS_LOAD,        82 : iP,iLd,i0,i1=    3    4    3    4 ; Wght=  0.7666666667  0.2333333333
 EXTERNAL_FIELDS_LOAD: (fu0,1),fu,fv= -2.7199E-02 -3.7252E-02 -2.9545E-02 -8.6603E-03
 EXTERNAL_FIELDS_LOAD: SST,SSS,Q,E-P= -1.3275E-01  3.4577E+01  1.8943E+02  8.7747E-06
DEBUG_STATS_RL:          Uvel (THERMODYNAMICS)  min= -1.29948868616036E-01
DEBUG_STATS_RL:          Uvel (THERMODYNAMICS)  max=  1.55622038403916E-01
DEBUG_STATS_RL:          Uvel (THERMODYNAMICS) mean=  6.39959213418281E-03
DEBUG_STATS_RL:          Uvel (THERMODYNAMICS) S.D.=  2.26311514693754E-02
DEBUG_STATS_RL:          Vvel (THERMODYNAMICS)  min= -7.99086487131566E-02
DEBUG_STATS_RL:          Vvel (THERMODYNAMICS)  max=  1.24594280824185E-01
DEBUG_STATS_RL:          Vvel (THERMODYNAMICS) mean=  9.48153919585098E-04
DEBUG_STATS_RL:          Vvel (THERMODYNAMICS) S.D.=  1.29937117662740E-02
DEBUG_STATS_RL:          Wvel (THERMODYNAMICS)  min= -6.47119810660640E-05
DEBUG_STATS_RL:          Wvel (THERMODYNAMICS)  max=  1.43208534339138E-04
DEBUG_STATS_RL:          Wvel (THERMODYNAMICS) mean= -1.03923515653975E-08
DEBUG_STATS_RL:          Wvel (THERMODYNAMICS) S.D.=  8.95482219293245E-06
DEBUG_STATS_RL:         Theta (THERMODYNAMICS)  min= -1.91814658399774E+00
DEBUG_STATS_RL:         Theta (THERMODYNAMICS)  max=  3.00645359159154E+01
DEBUG_STATS_RL:         Theta (THERMODYNAMICS) mean=  3.21049710269670E+00
DEBUG_STATS_RL:         Theta (THERMODYNAMICS) S.D.=  5.87236378253497E+00
DEBUG_STATS_RL:          Salt (THERMODYNAMICS)  min= -6.86350631975874E-04
DEBUG_STATS_RL:          Salt (THERMODYNAMICS)  max=  3.74441495020100E+01
DEBUG_STATS_RL:          Salt (THERMODYNAMICS) mean=  1.88441377353387E+01
DEBUG_STATS_RL:          Salt (THERMODYNAMICS) S.D.=  1.73003593333132E+01
DEBUG_STATS_RL:         GtNm1 (THERMODYNAMICS)  min= -2.35223950679105E-06
DEBUG_STATS_RL:         GtNm1 (THERMODYNAMICS)  max=  1.67236996959375E-06
DEBUG_STATS_RL:         GtNm1 (THERMODYNAMICS) mean= -2.40706309666074E-09
DEBUG_STATS_RL:         GtNm1 (THERMODYNAMICS) S.D.=  1.32241978698398E-07
DEBUG_STATS_RL:         GsNm1 (THERMODYNAMICS)  min= -3.27386016924370E-07
DEBUG_STATS_RL:         GsNm1 (THERMODYNAMICS)  max=  2.18037280788251E-07
DEBUG_STATS_RL:         GsNm1 (THERMODYNAMICS) mean=  1.06745914669031E-10
DEBUG_STATS_RL:         GsNm1 (THERMODYNAMICS) S.D.=  1.22037519224971E-08
DEBUG_STATS_RL:                EtaN (DYNAMICS)  min= -1.93213574709021E+00
DEBUG_STATS_RL:                EtaN (DYNAMICS)  max=  1.09607500339182E+00
DEBUG_STATS_RL:                EtaN (DYNAMICS) mean= -2.00640180355935E-01
DEBUG_STATS_RL:                EtaN (DYNAMICS) S.D.=  7.77078266148350E-01
DEBUG_STATS_RL:                Uvel (DYNAMICS)  min= -1.29948868616036E-01
DEBUG_STATS_RL:                Uvel (DYNAMICS)  max=  1.55622038403916E-01
DEBUG_STATS_RL:                Uvel (DYNAMICS) mean=  6.39959213418281E-03
DEBUG_STATS_RL:                Uvel (DYNAMICS) S.D.=  2.26311514693754E-02
DEBUG_STATS_RL:                Vvel (DYNAMICS)  min= -7.99086487131566E-02
DEBUG_STATS_RL:                Vvel (DYNAMICS)  max=  1.24594280824185E-01
DEBUG_STATS_RL:                Vvel (DYNAMICS) mean=  9.48153919585098E-04
DEBUG_STATS_RL:                Vvel (DYNAMICS) S.D.=  1.29937117662740E-02
DEBUG_STATS_RL:                Wvel (DYNAMICS)  min= -6.47119810660640E-05
DEBUG_STATS_RL:                Wvel (DYNAMICS)  max=  1.43208534339138E-04
DEBUG_STATS_RL:                Wvel (DYNAMICS) mean= -1.03923515653975E-08
DEBUG_STATS_RL:                Wvel (DYNAMICS) S.D.=  8.95482219293245E-06
DEBUG_STATS_RL:               Theta (DYNAMICS)  min= -1.91814658399774E+00
DEBUG_STATS_RL:               Theta (DYNAMICS)  max=  3.00645359159154E+01
DEBUG_STATS_RL:               Theta (DYNAMICS) mean=  3.21049710269670E+00
DEBUG_STATS_RL:               Theta (DYNAMICS) S.D.=  5.87236378253497E+00
DEBUG_STATS_RL:                Salt (DYNAMICS)  min= -6.86350631975874E-04
DEBUG_STATS_RL:                Salt (DYNAMICS)  max=  3.74441495020100E+01
DEBUG_STATS_RL:                Salt (DYNAMICS) mean=  1.88441377353387E+01
DEBUG_STATS_RL:                Salt (DYNAMICS) S.D.=  1.73003593333132E+01
DEBUG_STATS_RL:                  Gu (DYNAMICS)  min= -1.29044039133054E-01
DEBUG_STATS_RL:                  Gu (DYNAMICS)  max=  1.63303093465398E-01
DEBUG_STATS_RL:                  Gu (DYNAMICS) mean=  6.28131754379214E-03
DEBUG_STATS_RL:                  Gu (DYNAMICS) S.D.=  2.29845651788313E-02
DEBUG_STATS_RL:                  Gv (DYNAMICS)  min= -8.52472687562237E-02
DEBUG_STATS_RL:                  Gv (DYNAMICS)  max=  1.20159524981443E-01
DEBUG_STATS_RL:                  Gv (DYNAMICS) mean=  3.57610161666157E-03
DEBUG_STATS_RL:                  Gv (DYNAMICS) S.D.=  1.46529475202362E-02
DEBUG_STATS_RL:               GuNm1 (DYNAMICS)  min= -1.01545324375573E-05
DEBUG_STATS_RL:               GuNm1 (DYNAMICS)  max=  9.24296854582652E-06
DEBUG_STATS_RL:               GuNm1 (DYNAMICS) mean=  5.05975030734729E-09
DEBUG_STATS_RL:               GuNm1 (DYNAMICS) S.D.=  1.20951238183421E-06
DEBUG_STATS_RL:               GvNm1 (DYNAMICS)  min= -9.63738944926303E-06
DEBUG_STATS_RL:               GvNm1 (DYNAMICS)  max=  1.53790007892799E-05
DEBUG_STATS_RL:               GvNm1 (DYNAMICS) mean=  7.42600093048633E-07
DEBUG_STATS_RL:               GvNm1 (DYNAMICS) S.D.=  2.60124599200689E-06
DEBUG_STATS_RL:               GtNm1 (DYNAMICS)  min= -2.35223950679105E-06
DEBUG_STATS_RL:               GtNm1 (DYNAMICS)  max=  1.67236996959375E-06
DEBUG_STATS_RL:               GtNm1 (DYNAMICS) mean= -2.40706309666074E-09
DEBUG_STATS_RL:               GtNm1 (DYNAMICS) S.D.=  1.32241978698398E-07
DEBUG_STATS_RL:               GsNm1 (DYNAMICS)  min= -3.27386016924370E-07
DEBUG_STATS_RL:               GsNm1 (DYNAMICS)  max=  2.18037280788251E-07
DEBUG_STATS_RL:               GsNm1 (DYNAMICS) mean=  1.06745914669031E-10
DEBUG_STATS_RL:               GsNm1 (DYNAMICS) S.D.=  1.22037519224971E-08
DEBUG_STATS_RL:    cg2d_b (SOLVE_FOR_PRESSURE)  min= -2.53732698422513E+04
DEBUG_STATS_RL:    cg2d_b (SOLVE_FOR_PRESSURE)  max=  2.78350825871738E+04
DEBUG_STATS_RL:    cg2d_b (SOLVE_FOR_PRESSURE) mean=  5.35029168761090E+00
DEBUG_STATS_RL:    cg2d_b (SOLVE_FOR_PRESSURE) S.D.=  3.93274675946807E+03
 cg2d: Sum(rhs),rhsMax =   4.44975337077880E-01  1.82828275069138E+00
(PID.TID 0000.0001)  cg2d: iter=     1 ; resid.=  9.54364349646606E-02
(PID.TID 0000.0001)  cg2d: iter=     2 ; resid.=  1.06266031402143E-01
(PID.TID 0000.0001)  cg2d: iter=     3 ; resid.=  1.08033614171782E-01
(PID.TID 0000.0001)  cg2d: iter=     4 ; resid.=  9.66906264972903E-02
(PID.TID 0000.0001)  cg2d: iter=     5 ; resid.=  8.17726297678647E-02
(PID.TID 0000.0001)  cg2d: iter=     6 ; resid.=  6.58270949891256E-02
(PID.TID 0000.0001)  cg2d: iter=     7 ; resid.=  5.48919297821657E-02
(PID.TID 0000.0001)  cg2d: iter=     8 ; resid.=  3.94771794382572E-02
(PID.TID 0000.0001)  cg2d: iter=     9 ; resid.=  3.12428419767464E-02
(PID.TID 0000.0001)  cg2d: iter=    10 ; resid.=  2.57643138654233E-02
(PID.TID 0000.0001)  cg2d: iter=    11 ; resid.=  2.21752218961166E-02
(PID.TID 0000.0001)  cg2d: iter=    12 ; resid.=  1.52118998160007E-02
(PID.TID 0000.0001)  cg2d: iter=    13 ; resid.=  1.10569346653692E-02
(PID.TID 0000.0001)  cg2d: iter=    14 ; resid.=  9.40184253515708E-03
(PID.TID 0000.0001)  cg2d: iter=    15 ; resid.=  8.68122020013264E-03
(PID.TID 0000.0001)  cg2d: iter=    16 ; resid.=  7.22572317217741E-03
(PID.TID 0000.0001)  cg2d: iter=    17 ; resid.=  6.92325920825325E-03
(PID.TID 0000.0001)  cg2d: iter=    18 ; resid.=  6.15974722766578E-03
(PID.TID 0000.0001)  cg2d: iter=    19 ; resid.=  4.77764993330325E-03
(PID.TID 0000.0001)  cg2d: iter=    20 ; resid.=  3.92553638828246E-03
(PID.TID 0000.0001)  cg2d: iter=    21 ; resid.=  3.56651419483331E-03
(PID.TID 0000.0001)  cg2d: iter=    22 ; resid.=  3.12083553025410E-03
(PID.TID 0000.0001)  cg2d: iter=    23 ; resid.=  2.48554246329120E-03
(PID.TID 0000.0001)  cg2d: iter=    24 ; resid.=  1.96359447338452E-03
(PID.TID 0000.0001)  cg2d: iter=    25 ; resid.=  1.52593371955992E-03
(PID.TID 0000.0001)  cg2d: iter=    26 ; resid.=  1.20313207046780E-03
(PID.TID 0000.0001)  cg2d: iter=    27 ; resid.=  1.02970388863651E-03
(PID.TID 0000.0001)  cg2d: iter=    28 ; resid.=  8.80442873526294E-04
(PID.TID 0000.0001)  cg2d: iter=    29 ; resid.=  6.80919890896180E-04
(PID.TID 0000.0001)  cg2d: iter=    30 ; resid.=  5.38882590385797E-04
(PID.TID 0000.0001)  cg2d: iter=    31 ; resid.=  4.43929711605147E-04
(PID.TID 0000.0001)  cg2d: iter=    32 ; resid.=  3.85021349629374E-04
(PID.TID 0000.0001)  cg2d: iter=    33 ; resid.=  3.32185870954543E-04
(PID.TID 0000.0001)  cg2d: iter=    34 ; resid.=  2.81761626859506E-04
(PID.TID 0000.0001)  cg2d: iter=    35 ; resid.=  2.18127511176442E-04
(PID.TID 0000.0001)  cg2d: iter=    36 ; resid.=  1.75192510159077E-04
(PID.TID 0000.0001)  cg2d: iter=    37 ; resid.=  1.66215811544481E-04
(PID.TID 0000.0001)  cg2d: iter=    38 ; resid.=  1.49065020895961E-04
(PID.TID 0000.0001)  cg2d: iter=    39 ; resid.=  1.20442125882474E-04
(PID.TID 0000.0001)  cg2d: iter=    40 ; resid.=  9.99383449967457E-05
(PID.TID 0000.0001)  cg2d: iter=    41 ; resid.=  8.06305887831718E-05
(PID.TID 0000.0001)  cg2d: iter=    42 ; resid.=  7.23123632190201E-05
(PID.TID 0000.0001)  cg2d: iter=    43 ; resid.=  5.67978666208619E-05
(PID.TID 0000.0001)  cg2d: iter=    44 ; resid.=  4.23444427827621E-05
(PID.TID 0000.0001)  cg2d: iter=    45 ; resid.=  3.56212029810653E-05
(PID.TID 0000.0001)  cg2d: iter=    46 ; resid.=  3.18991255244330E-05
(PID.TID 0000.0001)  cg2d: iter=    47 ; resid.=  2.81080607537358E-05
(PID.TID 0000.0001)  cg2d: iter=    48 ; resid.=  2.29267891755495E-05
(PID.TID 0000.0001)  cg2d: iter=    49 ; resid.=  1.86108065501208E-05
(PID.TID 0000.0001)  cg2d: iter=    50 ; resid.=  1.62987527767310E-05
(PID.TID 0000.0001)  cg2d: iter=    51 ; resid.=  1.52902214269091E-05
(PID.TID 0000.0001)  cg2d: iter=    52 ; resid.=  1.31811620158105E-05
(PID.TID 0000.0001)  cg2d: iter=    53 ; resid.=  1.15047164750167E-05
(PID.TID 0000.0001)  cg2d: iter=    54 ; resid.=  9.94698723307620E-06
(PID.TID 0000.0001)  cg2d: iter=    55 ; resid.=  8.10910542690183E-06
(PID.TID 0000.0001)  cg2d: iter=    56 ; resid.=  6.36675436466158E-06
(PID.TID 0000.0001)  cg2d: iter=    57 ; resid.=  4.86469341036443E-06
(PID.TID 0000.0001)  cg2d: iter=    58 ; resid.=  3.77528376704344E-06
(PID.TID 0000.0001)  cg2d: iter=    59 ; resid.=  2.79826934501311E-06
(PID.TID 0000.0001)  cg2d: iter=    60 ; resid.=  2.26303249530034E-06
(PID.TID 0000.0001)  cg2d: iter=    61 ; resid.=  1.88858040605341E-06
(PID.TID 0000.0001)  cg2d: iter=    62 ; resid.=  1.50785491093727E-06
(PID.TID 0000.0001)  cg2d: iter=    63 ; resid.=  1.33103096507156E-06
(PID.TID 0000.0001)  cg2d: iter=    64 ; resid.=  1.10848943206225E-06
(PID.TID 0000.0001)  cg2d: iter=    65 ; resid.=  9.26609313548727E-07
(PID.TID 0000.0001)  cg2d: iter=    66 ; resid.=  7.46428007757995E-07
(PID.TID 0000.0001)  cg2d: iter=    67 ; resid.=  6.60593379924535E-07
(PID.TID 0000.0001)  cg2d: iter=    68 ; resid.=  6.13070094240333E-07
(PID.TID 0000.0001)  cg2d: iter=    69 ; resid.=  5.37611615055111E-07
(PID.TID 0000.0001)  cg2d: iter=    70 ; resid.=  4.51018146041194E-07
(PID.TID 0000.0001)  cg2d: iter=    71 ; resid.=  3.59444469557449E-07
(PID.TID 0000.0001)  cg2d: iter=    72 ; resid.=  3.06789826656299E-07
(PID.TID 0000.0001)  cg2d: iter=    73 ; resid.=  2.69696326195648E-07
(PID.TID 0000.0001)  cg2d: iter=    74 ; resid.=  2.33225821222094E-07
(PID.TID 0000.0001)  cg2d: iter=    75 ; resid.=  1.75344872760832E-07
(PID.TID 0000.0001)  cg2d: iter=    76 ; resid.=  1.30848761283113E-07
(PID.TID 0000.0001)  cg2d: iter=    77 ; resid.=  9.78964778647462E-08
(PID.TID 0000.0001)  cg2d: iter=    78 ; resid.=  7.92306747577074E-08
(PID.TID 0000.0001)  cg2d: iter=    79 ; resid.=  6.41654623718068E-08
(PID.TID 0000.0001)  cg2d: iter=    80 ; resid.=  5.16634294854263E-08
(PID.TID 0000.0001)  cg2d: iter=    81 ; resid.=  3.71311710316841E-08
(PID.TID 0000.0001)  cg2d: iter=    82 ; resid.=  2.51080371542764E-08
(PID.TID 0000.0001)  cg2d: iter=    83 ; resid.=  2.04350008368061E-08
(PID.TID 0000.0001)  cg2d: iter=    84 ; resid.=  1.55973022308636E-08
(PID.TID 0000.0001)  cg2d: iter=    85 ; resid.=  1.10299688338284E-08
(PID.TID 0000.0001)  cg2d: iter=    86 ; resid.=  8.13863553727901E-09
(PID.TID 0000.0001)  cg2d: iter=    87 ; resid.=  5.54418131951378E-09
(PID.TID 0000.0001)  cg2d: iter=    88 ; resid.=  4.15749891301554E-09
(PID.TID 0000.0001)  cg2d: iter=    89 ; resid.=  3.69408877288016E-09
(PID.TID 0000.0001)  cg2d: iter=    90 ; resid.=  3.20833862208923E-09
(PID.TID 0000.0001)  cg2d: iter=    91 ; resid.=  2.46043260961737E-09
(PID.TID 0000.0001)  cg2d: iter=    92 ; resid.=  1.99106652578342E-09
(PID.TID 0000.0001)  cg2d: iter=    93 ; resid.=  1.43482804046592E-09
(PID.TID 0000.0001)  cg2d: iter=    94 ; resid.=  1.06453086473709E-09
(PID.TID 0000.0001)  cg2d: iter=    95 ; resid.=  8.56844007292457E-10
(PID.TID 0000.0001)  cg2d: iter=    96 ; resid.=  7.16137258977045E-10
(PID.TID 0000.0001)  cg2d: iter=    97 ; resid.=  5.66502793104009E-10
(PID.TID 0000.0001)  cg2d: iter=    98 ; resid.=  4.32199678165769E-10
(PID.TID 0000.0001)  cg2d: iter=    99 ; resid.=  3.21651121580306E-10
(PID.TID 0000.0001)  cg2d: iter=   100 ; resid.=  2.45658631803608E-10
(PID.TID 0000.0001)  cg2d: iter=   101 ; resid.=  1.86330952952909E-10
(PID.TID 0000.0001)  cg2d: iter=   102 ; resid.=  1.41656261035039E-10
(PID.TID 0000.0001)  cg2d: iter=   103 ; resid.=  1.14945806667116E-10
(PID.TID 0000.0001)  cg2d: iter=   104 ; resid.=  9.93413954955076E-11
(PID.TID 0000.0001)  cg2d: iter=   105 ; resid.=  8.79695777921797E-11
(PID.TID 0000.0001)  cg2d: iter=   106 ; resid.=  7.45585893792648E-11
(PID.TID 0000.0001)  cg2d: iter=   107 ; resid.=  6.53318265446275E-11
(PID.TID 0000.0001)  cg2d: iter=   108 ; resid.=  5.33128350861413E-11
(PID.TID 0000.0001)  cg2d: iter=   109 ; resid.=  4.15665308036500E-11
(PID.TID 0000.0001)  cg2d: iter=   110 ; resid.=  3.50513353375703E-11
(PID.TID 0000.0001)  cg2d: iter=   111 ; resid.=  3.11586647245944E-11
(PID.TID 0000.0001)  cg2d: iter=   112 ; resid.=  2.31780741634246E-11
(PID.TID 0000.0001)  cg2d: iter=   113 ; resid.=  1.59148301007648E-11
(PID.TID 0000.0001)  cg2d: iter=   114 ; resid.=  1.18606129365245E-11
(PID.TID 0000.0001)  cg2d: iter=   115 ; resid.=  8.42890268445580E-12
(PID.TID 0000.0001)  cg2d: iter=   116 ; resid.=  6.34815855128272E-12
(PID.TID 0000.0001)  cg2d: iter=   117 ; resid.=  4.73816361545856E-12
(PID.TID 0000.0001)  cg2d: iter=   118 ; resid.=  3.18729441939384E-12
(PID.TID 0000.0001)  cg2d: iter=   119 ; resid.=  2.42392524195569E-12
(PID.TID 0000.0001)  cg2d: iter=   120 ; resid.=  1.98922206300005E-12
(PID.TID 0000.0001)  cg2d: iter=   121 ; resid.=  1.68995999892721E-12
(PID.TID 0000.0001)  cg2d: iter=   122 ; resid.=  1.42312035269581E-12
(PID.TID 0000.0001)  cg2d: iter=   123 ; resid.=  1.10299817966136E-12
(PID.TID 0000.0001)  cg2d: iter=   124 ; resid.=  8.15333595931219E-13
(PID.TID 0000.0001)  cg2d: iter=   125 ; resid.=  6.08575717389515E-13
(PID.TID 0000.0001)  cg2d: iter=   126 ; resid.=  4.79934494735796E-13
(PID.TID 0000.0001)  cg2d: iter=   127 ; resid.=  3.33821786652563E-13
(PID.TID 0000.0001)  cg2d: iter=   128 ; resid.=  2.25892963547900E-13
(PID.TID 0000.0001)  cg2d: iter=   129 ; resid.=  1.49226417414583E-13
(PID.TID 0000.0001)  cg2d: iter=   130 ; resid.=  1.06956529943422E-13
(PID.TID 0000.0001)  cg2d: iter=   131 ; resid.=  7.79459229625722E-14
DEBUG_STATS_RL:    cg2d_x (SOLVE_FOR_PRESSURE)  min= -1.90747789265551E+01
DEBUG_STATS_RL:    cg2d_x (SOLVE_FOR_PRESSURE)  max=  1.10736577149756E+01
DEBUG_STATS_RL:    cg2d_x (SOLVE_FOR_PRESSURE) mean= -1.99288571831926E+00
DEBUG_STATS_RL:    cg2d_x (SOLVE_FOR_PRESSURE) S.D.=  7.74900368474142E+00
(PID.TID 0000.0001)      cg2d_init_res =   2.11251170003232E-01
(PID.TID 0000.0001)      cg2d_iters(min,last) =      -1     131
(PID.TID 0000.0001)      cg2d_last_res =   7.79459229625722E-14
(PID.TID 0000.0001) // =======================================================
(PID.TID 0000.0001) // Begin MONITOR dynamic field statistics
(PID.TID 0000.0001) // =======================================================
(PID.TID 0000.0001) %MON time_tsnumber                =                    83
(PID.TID 0000.0001) %MON time_secondsf                =   7.1712000000000E+06
(PID.TID 0000.0001) %MON dynstat_eta_max              =   1.1288132227295E+00
(PID.TID 0000.0001) %MON dynstat_eta_min              =  -1.9444219089251E+00
(PID.TID 0000.0001) %MON dynstat_eta_mean             =  -5.5823659617531E-03
(PID.TID 0000.0001) %MON dynstat_eta_sd               =   6.9200933245674E-01
(PID.TID 0000.0001) %MON dynstat_eta_del2             =   2.4877451242986E-03
(PID.TID 0000.0001) %MON dynstat_uvel_max             =   1.5856986802124E-01
(PID.TID 0000.0001) %MON dynstat_uvel_min             =  -1.3069218867670E-01
(PID.TID 0000.0001) %MON dynstat_uvel_mean            =   2.7619430864590E-03
(PID.TID 0000.0001) %MON dynstat_uvel_sd              =   1.4199456826411E-02
(PID.TID 0000.0001) %MON dynstat_uvel_del2            =   8.3837128565901E-05
(PID.TID 0000.0001) %MON dynstat_vvel_max             =   1.2361851809011E-01
(PID.TID 0000.0001) %MON dynstat_vvel_min             =  -7.9891496928071E-02
(PID.TID 0000.0001) %MON dynstat_vvel_mean            =  -6.1764167045543E-05
(PID.TID 0000.0001) %MON dynstat_vvel_sd              =   7.9878808753714E-03
(PID.TID 0000.0001) %MON dynstat_vvel_del2            =   7.3509220508766E-05
(PID.TID 0000.0001) %MON dynstat_wvel_max             =   1.5061962593683E-04
(PID.TID 0000.0001) %MON dynstat_wvel_min             =  -6.2793574585354E-05
(PID.TID 0000.0001) %MON dynstat_wvel_mean            =   1.0785227851252E-22
(PID.TID 0000.0001) %MON dynstat_wvel_sd              =   9.9240536707247E-06
(PID.TID 0000.0001) %MON dynstat_wvel_del2            =   1.0142199835653E-07
(PID.TID 0000.0001) %MON dynstat_theta_max            =   3.0064535915915E+01
(PID.TID 0000.0001) %MON dynstat_theta_min            =  -1.9181465839977E+00
(PID.TID 0000.0001) %MON dynstat_theta_mean           =   3.6216302085446E+00
(PID.TID 0000.0001) %MON dynstat_theta_sd             =   4.4227177462674E+00
(PID.TID 0000.0001) %MON dynstat_theta_del2           =   4.6358141952760E-03
(PID.TID 0000.0001) %MON dynstat_salt_max             =   3.7444149502010E+01
(PID.TID 0000.0001) %MON dynstat_salt_min             =   2.9882597035058E+01
(PID.TID 0000.0001) %MON dynstat_salt_mean            =   3.4717324168273E+01
(PID.TID 0000.0001) %MON dynstat_salt_sd              =   2.9629517784896E-01
(PID.TID 0000.0001) %MON dynstat_salt_del2            =   9.6279573702656E-04
(PID.TID 0000.0001) %MON dynstat_sst_max              =   3.0064535915915E+01
(PID.TID 0000.0001) %MON dynstat_sst_min              =  -1.9181465839977E+00
(PID.TID 0000.0001) %MON dynstat_sst_mean             =   1.8805846117741E+01
(PID.TID 0000.0001) %MON dynstat_sst_sd               =   9.3147823584637E+00
(PID.TID 0000.0001) %MON dynstat_sst_del2             =   2.3812892428528E-02
(PID.TID 0000.0001) %MON dynstat_sss_max              =   3.7407528245094E+01
(PID.TID 0000.0001) %MON dynstat_sss_min              =   2.9882597035058E+01
(PID.TID 0000.0001) %MON dynstat_sss_mean             =   3.4839317577318E+01
(PID.TID 0000.0001) %MON dynstat_sss_sd               =   9.8321931268787E-01
(PID.TID 0000.0001) %MON dynstat_sss_del2             =   7.6548695710118E-03
(PID.TID 0000.0001) %MON forcing_qnet_max             =   2.4157104695638E+02
(PID.TID 0000.0001) %MON forcing_qnet_min             =  -1.6085961659749E+02
(PID.TID 0000.0001) %MON forcing_qnet_mean            =  -4.4858109873572E+00
(PID.TID 0000.0001) %MON forcing_qnet_sd              =   4.1223620087480E+01
(PID.TID 0000.0001) %MON forcing_qnet_del2            =   8.0717282221424E-01
(PID.TID 0000.0001) %MON forcing_qsw_max              =   0.0000000000000E+00
(PID.TID 0000.0001) %MON forcing_qsw_min              =   0.0000000000000E+00
(PID.TID 0000.0001) %MON forcing_qsw_mean             =   0.0000000000000E+00
(PID.TID 0000.0001) %MON forcing_qsw_sd               =   0.0000000000000E+00
(PID.TID 0000.0001) %MON forcing_qsw_del2             =   0.0000000000000E+00
(PID.TID 0000.0001) %MON forcing_empmr_max            =   6.8435624693090E-05
(PID.TID 0000.0001) %MON forcing_empmr_min            =  -8.3368340142442E-05
(PID.TID 0000.0001) %MON forcing_empmr_mean           =   3.9359349988573E-07
(PID.TID 0000.0001) %MON forcing_empmr_sd             =   2.5851876556707E-05
(PID.TID 0000.0001) %MON forcing_empmr_del2           =   3.6323282010377E-07
(PID.TID 0000.0001) %MON forcing_fu_max               =   3.5182609558105E-01
(PID.TID 0000.0001) %MON forcing_fu_min               =  -3.9508792459965E-01
(PID.TID 0000.0001) %MON forcing_fu_mean              =   1.9566384621858E-02
(PID.TID 0000.0001) %MON forcing_fu_sd                =   1.0063685282734E-01
(PID.TID 0000.0001) %MON forcing_fu_del2              =   7.9634795376390E-04
(PID.TID 0000.0001) %MON forcing_fv_max               =   1.8262833754222E-01
(PID.TID 0000.0001) %MON forcing_fv_min               =  -1.6947763959567E-01
(PID.TID 0000.0001) %MON forcing_fv_mean              =  -7.2742387334334E-03
(PID.TID 0000.0001) %MON forcing_fv_sd                =   4.0166105631794E-02
(PID.TID 0000.0001) %MON forcing_fv_del2              =   4.4910941931624E-04
(PID.TID 0000.0001) %MON trAdv_CFL_u_max              =   4.2736150182423E-02
(PID.TID 0000.0001) %MON trAdv_CFL_v_max              =   2.4108027858172E-02
(PID.TID 0000.0001) %MON trAdv_CFL_w_max              =   3.3278697819739E-02
(PID.TID 0000.0001) %MON advcfl_uvel_max              =   4.2143466050053E-02
(PID.TID 0000.0001) %MON advcfl_vvel_max              =   2.4017095462239E-02
(PID.TID 0000.0001) %MON advcfl_wvel_max              =   3.5503658161447E-02
(PID.TID 0000.0001) %MON advcfl_W_hf_max              =   4.0316910143152E-02
(PID.TID 0000.0001) %MON pe_b_mean                    =   6.1282061124865E-04
(PID.TID 0000.0001) %MON ke_max                       =   1.3199298753887E-02
(PID.TID 0000.0001) %MON ke_mean                      =   1.2371389200247E-04
(PID.TID 0000.0001) %MON ke_vol                       =   1.3226782436723E+18
(PID.TID 0000.0001) %MON vort_r_min                   =  -3.7252367726368E-07
(PID.TID 0000.0001) %MON vort_r_max                   =   3.7482526400333E-07
(PID.TID 0000.0001) %MON vort_a_mean                  =  -2.5274806657867E-05
(PID.TID 0000.0001) %MON vort_a_sd                    =   7.3604724455699E-05
(PID.TID 0000.0001) %MON vort_p_mean                  =  -3.1845654867614E-05
(PID.TID 0000.0001) %MON vort_p_sd                    =   1.3162508418916E-04
(PID.TID 0000.0001) %MON surfExpan_theta_mean         =   6.3750903613117E-07
(PID.TID 0000.0001) %MON surfExpan_salt_mean          =  -1.0462009578412E-07
(PID.TID 0000.0001) // =======================================================
(PID.TID 0000.0001) // End MONITOR dynamic field statistics
(PID.TID 0000.0001) // =======================================================
 EXTERNAL_FIELDS_LOAD,        83 : iP,iLd,i0,i1=    3    4    3    4 ; Wght=  0.7333333333  0.2666666667
 EXTERNAL_FIELDS_LOAD: (fu0,1),fu,fv= -2.7199E-02 -3.7252E-02 -2.9880E-02 -9.8149E-03
 EXTERNAL_FIELDS_LOAD: SST,SSS,Q,E-P= -1.2544E-01  3.4576E+01  1.8572E+02  8.7310E-06
DEBUG_STATS_RL:          Uvel (THERMODYNAMICS)  min= -1.30692188676697E-01
DEBUG_STATS_RL:          Uvel (THERMODYNAMICS)  max=  1.58569868021235E-01
DEBUG_STATS_RL:          Uvel (THERMODYNAMICS) mean=  6.38306192441161E-03
DEBUG_STATS_RL:          Uvel (THERMODYNAMICS) S.D.=  2.25468417389622E-02
DEBUG_STATS_RL:          Vvel (THERMODYNAMICS)  min= -7.98914969280713E-02
DEBUG_STATS_RL:          Vvel (THERMODYNAMICS)  max=  1.23618518090114E-01
DEBUG_STATS_RL:          Vvel (THERMODYNAMICS) mean=  9.62574786888597E-04
DEBUG_STATS_RL:          Vvel (THERMODYNAMICS) S.D.=  1.29606860647538E-02
DEBUG_STATS_RL:          Wvel (THERMODYNAMICS)  min= -6.27935745853543E-05
DEBUG_STATS_RL:          Wvel (THERMODYNAMICS)  max=  1.50619625936832E-04
DEBUG_STATS_RL:          Wvel (THERMODYNAMICS) mean= -1.11223054213095E-08
DEBUG_STATS_RL:          Wvel (THERMODYNAMICS) S.D.=  8.86856182344707E-06
DEBUG_STATS_RL:         Theta (THERMODYNAMICS)  min= -1.91716001744894E+00
DEBUG_STATS_RL:         Theta (THERMODYNAMICS)  max=  3.00671235864139E+01
DEBUG_STATS_RL:         Theta (THERMODYNAMICS) mean=  3.21030498897263E+00
DEBUG_STATS_RL:         Theta (THERMODYNAMICS) S.D.=  5.87243230142516E+00
DEBUG_STATS_RL:          Salt (THERMODYNAMICS)  min= -6.86350631975874E-04
DEBUG_STATS_RL:          Salt (THERMODYNAMICS)  max=  3.74438799311028E+01
DEBUG_STATS_RL:          Salt (THERMODYNAMICS) mean=  1.88441438210847E+01
DEBUG_STATS_RL:          Salt (THERMODYNAMICS) S.D.=  1.73003656104062E+01
DEBUG_STATS_RL:         GtNm1 (THERMODYNAMICS)  min= -2.31892323930040E-06
DEBUG_STATS_RL:         GtNm1 (THERMODYNAMICS)  max=  1.47068014197437E-06
DEBUG_STATS_RL:         GtNm1 (THERMODYNAMICS) mean= -2.69755017803337E-09
DEBUG_STATS_RL:         GtNm1 (THERMODYNAMICS) S.D.=  1.31687231265882E-07
DEBUG_STATS_RL:         GsNm1 (THERMODYNAMICS)  min= -3.91666094862488E-07
DEBUG_STATS_RL:         GsNm1 (THERMODYNAMICS)  max=  2.87883408389935E-07
DEBUG_STATS_RL:         GsNm1 (THERMODYNAMICS) mean=  6.93112052114865E-11
DEBUG_STATS_RL:         GsNm1 (THERMODYNAMICS) S.D.=  1.22778639614011E-08
DEBUG_STATS_RL:                EtaN (DYNAMICS)  min= -1.94442190892513E+00
DEBUG_STATS_RL:                EtaN (DYNAMICS)  max=  1.12881322272945E+00
DEBUG_STATS_RL:                EtaN (DYNAMICS) mean= -2.03148391265978E-01
DEBUG_STATS_RL:                EtaN (DYNAMICS) S.D.=  7.89908632491479E-01
DEBUG_STATS_RL:                Uvel (DYNAMICS)  min= -1.30692188676697E-01
DEBUG_STATS_RL:                Uvel (DYNAMICS)  max=  1.58569868021235E-01
DEBUG_STATS_RL:                Uvel (DYNAMICS) mean=  6.38306192441161E-03
DEBUG_STATS_RL:                Uvel (DYNAMICS) S.D.=  2.25468417389622E-02
DEBUG_STATS_RL:                Vvel (DYNAMICS)  min= -7.98914969280713E-02
DEBUG_STATS_RL:                Vvel (DYNAMICS)  max=  1.23618518090114E-01
DEBUG_STATS_RL:                Vvel (DYNAMICS) mean=  9.62574786888597E-04
DEBUG_STATS_RL:                Vvel (DYNAMICS) S.D.=  1.29606860647538E-02
DEBUG_STATS_RL:                Wvel (DYNAMICS)  min= -6.27935745853543E-05
DEBUG_STATS_RL:                Wvel (DYNAMICS)  max=  1.50619625936832E-04
DEBUG_STATS_RL:                Wvel (DYNAMICS) mean= -1.11223054213095E-08
DEBUG_STATS_RL:                Wvel (DYNAMICS) S.D.=  8.86856182344707E-06
DEBUG_STATS_RL:               Theta (DYNAMICS)  min= -1.91716001744894E+00
DEBUG_STATS_RL:               Theta (DYNAMICS)  max=  3.00671235864139E+01
DEBUG_STATS_RL:               Theta (DYNAMICS) mean=  3.21030498897263E+00
DEBUG_STATS_RL:               Theta (DYNAMICS) S.D.=  5.87243230142516E+00
DEBUG_STATS_RL:                Salt (DYNAMICS)  min= -6.86350631975874E-04
DEBUG_STATS_RL:                Salt (DYNAMICS)  max=  3.74438799311028E+01
DEBUG_STATS_RL:                Salt (DYNAMICS) mean=  1.88441438210847E+01
DEBUG_STATS_RL:                Salt (DYNAMICS) S.D.=  1.73003656104062E+01
DEBUG_STATS_RL:                  Gu (DYNAMICS)  min= -1.29767294762661E-01
DEBUG_STATS_RL:                  Gu (DYNAMICS)  max=  1.65214965519006E-01
DEBUG_STATS_RL:                  Gu (DYNAMICS) mean=  6.26266322519441E-03
DEBUG_STATS_RL:                  Gu (DYNAMICS) S.D.=  2.28808351098579E-02
DEBUG_STATS_RL:                  Gv (DYNAMICS)  min= -8.55446746629943E-02
DEBUG_STATS_RL:                  Gv (DYNAMICS)  max=  1.24123906108759E-01
DEBUG_STATS_RL:                  Gv (DYNAMICS) mean=  3.58141460149360E-03
DEBUG_STATS_RL:                  Gv (DYNAMICS) S.D.=  1.46374343807558E-02
DEBUG_STATS_RL:               GuNm1 (DYNAMICS)  min= -1.01177593494455E-05
DEBUG_STATS_RL:               GuNm1 (DYNAMICS)  max=  9.22738099314636E-06
DEBUG_STATS_RL:               GuNm1 (DYNAMICS) mean=  5.13536882595858E-09
DEBUG_STATS_RL:               GuNm1 (DYNAMICS) S.D.=  1.20975844230698E-06
DEBUG_STATS_RL:               GvNm1 (DYNAMICS)  min= -9.61019297485124E-06
DEBUG_STATS_RL:               GvNm1 (DYNAMICS)  max=  1.53506314417916E-05
DEBUG_STATS_RL:               GvNm1 (DYNAMICS) mean=  7.42367536524665E-07
DEBUG_STATS_RL:               GvNm1 (DYNAMICS) S.D.=  2.60025835097878E-06
DEBUG_STATS_RL:               GtNm1 (DYNAMICS)  min= -2.31892323930040E-06
DEBUG_STATS_RL:               GtNm1 (DYNAMICS)  max=  1.47068014197437E-06
DEBUG_STATS_RL:               GtNm1 (DYNAMICS) mean= -2.69755017803337E-09
DEBUG_STATS_RL:               GtNm1 (DYNAMICS) S.D.=  1.31687231265882E-07
DEBUG_STATS_RL:               GsNm1 (DYNAMICS)  min= -3.91666094862488E-07
DEBUG_STATS_RL:               GsNm1 (DYNAMICS)  max=  2.87883408389935E-07
DEBUG_STATS_RL:               GsNm1 (DYNAMICS) mean=  6.93112052114865E-11
DEBUG_STATS_RL:               GsNm1 (DYNAMICS) S.D.=  1.22778639614011E-08
DEBUG_STATS_RL:    cg2d_b (SOLVE_FOR_PRESSURE)  min= -2.57653497611398E+04
DEBUG_STATS_RL:    cg2d_b (SOLVE_FOR_PRESSURE)  max=  2.81089292369280E+04
DEBUG_STATS_RL:    cg2d_b (SOLVE_FOR_PRESSURE) mean=  5.37998644838522E+00
DEBUG_STATS_RL:    cg2d_b (SOLVE_FOR_PRESSURE) S.D.=  3.93879444807450E+03
 cg2d: Sum(rhs),rhsMax =   4.43085843755691E-01  1.84626973185130E+00
(PID.TID 0000.0001)  cg2d: iter=     1 ; resid.=  8.43292741011521E-02
(PID.TID 0000.0001)  cg2d: iter=     2 ; resid.=  8.73987094294834E-02
(PID.TID 0000.0001)  cg2d: iter=     3 ; resid.=  8.97365985286532E-02
(PID.TID 0000.0001)  cg2d: iter=     4 ; resid.=  8.19434444979875E-02
(PID.TID 0000.0001)  cg2d: iter=     5 ; resid.=  6.76554887380584E-02
(PID.TID 0000.0001)  cg2d: iter=     6 ; resid.=  5.32135472361627E-02
(PID.TID 0000.0001)  cg2d: iter=     7 ; resid.=  4.53560892045905E-02
(PID.TID 0000.0001)  cg2d: iter=     8 ; resid.=  3.37576079023115E-02
(PID.TID 0000.0001)  cg2d: iter=     9 ; resid.=  2.59427996362055E-02
(PID.TID 0000.0001)  cg2d: iter=    10 ; resid.=  2.10710369062958E-02
(PID.TID 0000.0001)  cg2d: iter=    11 ; resid.=  1.89602437788307E-02
(PID.TID 0000.0001)  cg2d: iter=    12 ; resid.=  1.32589227160342E-02
(PID.TID 0000.0001)  cg2d: iter=    13 ; resid.=  9.21078435482186E-03
(PID.TID 0000.0001)  cg2d: iter=    14 ; resid.=  7.23405305869919E-03
(PID.TID 0000.0001)  cg2d: iter=    15 ; resid.=  6.64280890645694E-03
(PID.TID 0000.0001)  cg2d: iter=    16 ; resid.=  5.36003277303653E-03
(PID.TID 0000.0001)  cg2d: iter=    17 ; resid.=  4.93208589284233E-03
(PID.TID 0000.0001)  cg2d: iter=    18 ; resid.=  4.39764259027300E-03
(PID.TID 0000.0001)  cg2d: iter=    19 ; resid.=  3.55740703686236E-03
(PID.TID 0000.0001)  cg2d: iter=    20 ; resid.=  2.86684951036404E-03
(PID.TID 0000.0001)  cg2d: iter=    21 ; resid.=  2.53344975054106E-03
(PID.TID 0000.0001)  cg2d: iter=    22 ; resid.=  2.24820753307854E-03
(PID.TID 0000.0001)  cg2d: iter=    23 ; resid.=  1.87478243546453E-03
(PID.TID 0000.0001)  cg2d: iter=    24 ; resid.=  1.50354986004655E-03
(PID.TID 0000.0001)  cg2d: iter=    25 ; resid.=  1.17115843944251E-03
(PID.TID 0000.0001)  cg2d: iter=    26 ; resid.=  9.48292555614954E-04
(PID.TID 0000.0001)  cg2d: iter=    27 ; resid.=  8.49549149250480E-04
(PID.TID 0000.0001)  cg2d: iter=    28 ; resid.=  7.47934339161952E-04
(PID.TID 0000.0001)  cg2d: iter=    29 ; resid.=  5.86570542061295E-04
(PID.TID 0000.0001)  cg2d: iter=    30 ; resid.=  4.57625519259346E-04
(PID.TID 0000.0001)  cg2d: iter=    31 ; resid.=  3.69049404322744E-04
(PID.TID 0000.0001)  cg2d: iter=    32 ; resid.=  3.20023653001165E-04
(PID.TID 0000.0001)  cg2d: iter=    33 ; resid.=  2.78631638686206E-04
(PID.TID 0000.0001)  cg2d: iter=    34 ; resid.=  2.31404523953923E-04
(PID.TID 0000.0001)  cg2d: iter=    35 ; resid.=  1.76847123285029E-04
(PID.TID 0000.0001)  cg2d: iter=    36 ; resid.=  1.42493134818042E-04
(PID.TID 0000.0001)  cg2d: iter=    37 ; resid.=  1.34764100863811E-04
(PID.TID 0000.0001)  cg2d: iter=    38 ; resid.=  1.22291811261658E-04
(PID.TID 0000.0001)  cg2d: iter=    39 ; resid.=  9.96275253778819E-05
(PID.TID 0000.0001)  cg2d: iter=    40 ; resid.=  8.53804379895604E-05
(PID.TID 0000.0001)  cg2d: iter=    41 ; resid.=  7.06345195260079E-05
(PID.TID 0000.0001)  cg2d: iter=    42 ; resid.=  6.35243081531967E-05
(PID.TID 0000.0001)  cg2d: iter=    43 ; resid.=  5.17376137042210E-05
(PID.TID 0000.0001)  cg2d: iter=    44 ; resid.=  3.91307659106219E-05
(PID.TID 0000.0001)  cg2d: iter=    45 ; resid.=  3.21692148139269E-05
(PID.TID 0000.0001)  cg2d: iter=    46 ; resid.=  2.84900447263021E-05
(PID.TID 0000.0001)  cg2d: iter=    47 ; resid.=  2.46679536385367E-05
(PID.TID 0000.0001)  cg2d: iter=    48 ; resid.=  1.95298912354981E-05
(PID.TID 0000.0001)  cg2d: iter=    49 ; resid.=  1.48863142040109E-05
(PID.TID 0000.0001)  cg2d: iter=    50 ; resid.=  1.25494062895906E-05
(PID.TID 0000.0001)  cg2d: iter=    51 ; resid.=  1.17120857392812E-05
(PID.TID 0000.0001)  cg2d: iter=    52 ; resid.=  1.04842499252175E-05
(PID.TID 0000.0001)  cg2d: iter=    53 ; resid.=  9.24653520009975E-06
(PID.TID 0000.0001)  cg2d: iter=    54 ; resid.=  8.17576568567514E-06
(PID.TID 0000.0001)  cg2d: iter=    55 ; resid.=  7.08759834471964E-06
(PID.TID 0000.0001)  cg2d: iter=    56 ; resid.=  5.70224747187728E-06
(PID.TID 0000.0001)  cg2d: iter=    57 ; resid.=  4.35794991343250E-06
(PID.TID 0000.0001)  cg2d: iter=    58 ; resid.=  3.34601433804392E-06
(PID.TID 0000.0001)  cg2d: iter=    59 ; resid.=  2.41439162948649E-06
(PID.TID 0000.0001)  cg2d: iter=    60 ; resid.=  1.89576697362707E-06
(PID.TID 0000.0001)  cg2d: iter=    61 ; resid.=  1.51833001984239E-06
(PID.TID 0000.0001)  cg2d: iter=    62 ; resid.=  1.18627566335252E-06
(PID.TID 0000.0001)  cg2d: iter=    63 ; resid.=  1.00653569079114E-06
(PID.TID 0000.0001)  cg2d: iter=    64 ; resid.=  7.96058292071535E-07
(PID.TID 0000.0001)  cg2d: iter=    65 ; resid.=  6.36366799391511E-07
(PID.TID 0000.0001)  cg2d: iter=    66 ; resid.=  4.83015784362944E-07
(PID.TID 0000.0001)  cg2d: iter=    67 ; resid.=  4.00290074707133E-07
(PID.TID 0000.0001)  cg2d: iter=    68 ; resid.=  3.62102235015288E-07
(PID.TID 0000.0001)  cg2d: iter=    69 ; resid.=  3.22496112924049E-07
(PID.TID 0000.0001)  cg2d: iter=    70 ; resid.=  2.89121715643382E-07
(PID.TID 0000.0001)  cg2d: iter=    71 ; resid.=  2.37405189103180E-07
(PID.TID 0000.0001)  cg2d: iter=    72 ; resid.=  2.04398050032921E-07
(PID.TID 0000.0001)  cg2d: iter=    73 ; resid.=  1.84700478223034E-07
(PID.TID 0000.0001)  cg2d: iter=    74 ; resid.=  1.62938693533117E-07
(PID.TID 0000.0001)  cg2d: iter=    75 ; resid.=  1.30065766119742E-07
(PID.TID 0000.0001)  cg2d: iter=    76 ; resid.=  1.01385810397820E-07
(PID.TID 0000.0001)  cg2d: iter=    77 ; resid.=  8.08102552818357E-08
(PID.TID 0000.0001)  cg2d: iter=    78 ; resid.=  6.76347703308590E-08
(PID.TID 0000.0001)  cg2d: iter=    79 ; resid.=  5.57080505629568E-08
(PID.TID 0000.0001)  cg2d: iter=    80 ; resid.=  4.63119196242274E-08
(PID.TID 0000.0001)  cg2d: iter=    81 ; resid.=  3.47116565674014E-08
(PID.TID 0000.0001)  cg2d: iter=    82 ; resid.=  2.38470011693608E-08
(PID.TID 0000.0001)  cg2d: iter=    83 ; resid.=  2.01420874168600E-08
(PID.TID 0000.0001)  cg2d: iter=    84 ; resid.=  1.62352514169005E-08
(PID.TID 0000.0001)  cg2d: iter=    85 ; resid.=  1.15738314301117E-08
(PID.TID 0000.0001)  cg2d: iter=    86 ; resid.=  8.57423900283195E-09
(PID.TID 0000.0001)  cg2d: iter=    87 ; resid.=  6.21699553188364E-09
(PID.TID 0000.0001)  cg2d: iter=    88 ; resid.=  5.13667730662148E-09
(PID.TID 0000.0001)  cg2d: iter=    89 ; resid.=  4.64774088907042E-09
(PID.TID 0000.0001)  cg2d: iter=    90 ; resid.=  3.94343297643628E-09
(PID.TID 0000.0001)  cg2d: iter=    91 ; resid.=  2.94860945744192E-09
(PID.TID 0000.0001)  cg2d: iter=    92 ; resid.=  2.35129252667774E-09
(PID.TID 0000.0001)  cg2d: iter=    93 ; resid.=  1.73947810829271E-09
(PID.TID 0000.0001)  cg2d: iter=    94 ; resid.=  1.34264106653769E-09
(PID.TID 0000.0001)  cg2d: iter=    95 ; resid.=  1.14520480519888E-09
(PID.TID 0000.0001)  cg2d: iter=    96 ; resid.=  9.53804920257395E-10
(PID.TID 0000.0001)  cg2d: iter=    97 ; resid.=  7.63471017773465E-10
(PID.TID 0000.0001)  cg2d: iter=    98 ; resid.=  5.94521216372166E-10
(PID.TID 0000.0001)  cg2d: iter=    99 ; resid.=  4.69716249939937E-10
(PID.TID 0000.0001)  cg2d: iter=   100 ; resid.=  4.00630202724822E-10
(PID.TID 0000.0001)  cg2d: iter=   101 ; resid.=  3.34368892824539E-10
(PID.TID 0000.0001)  cg2d: iter=   102 ; resid.=  2.71863034679503E-10
(PID.TID 0000.0001)  cg2d: iter=   103 ; resid.=  2.34645447826552E-10
(PID.TID 0000.0001)  cg2d: iter=   104 ; resid.=  2.05081272779314E-10
(PID.TID 0000.0001)  cg2d: iter=   105 ; resid.=  1.71327484731756E-10
(PID.TID 0000.0001)  cg2d: iter=   106 ; resid.=  1.31030276591101E-10
(PID.TID 0000.0001)  cg2d: iter=   107 ; resid.=  9.98886979014776E-11
(PID.TID 0000.0001)  cg2d: iter=   108 ; resid.=  7.36964436393912E-11
(PID.TID 0000.0001)  cg2d: iter=   109 ; resid.=  5.41008871888137E-11
(PID.TID 0000.0001)  cg2d: iter=   110 ; resid.=  4.19671007658936E-11
(PID.TID 0000.0001)  cg2d: iter=   111 ; resid.=  3.43560633462124E-11
(PID.TID 0000.0001)  cg2d: iter=   112 ; resid.=  2.44512985044098E-11
(PID.TID 0000.0001)  cg2d: iter=   113 ; resid.=  1.63913335705638E-11
(PID.TID 0000.0001)  cg2d: iter=   114 ; resid.=  1.16758852763653E-11
(PID.TID 0000.0001)  cg2d: iter=   115 ; resid.=  8.30131084218064E-12
(PID.TID 0000.0001)  cg2d: iter=   116 ; resid.=  6.27466052168394E-12
(PID.TID 0000.0001)  cg2d: iter=   117 ; resid.=  4.66920169357662E-12
(PID.TID 0000.0001)  cg2d: iter=   118 ; resid.=  3.17860349200994E-12
(PID.TID 0000.0001)  cg2d: iter=   119 ; resid.=  2.42836480372372E-12
(PID.TID 0000.0001)  cg2d: iter=   120 ; resid.=  2.04017806005720E-12
(PID.TID 0000.0001)  cg2d: iter=   121 ; resid.=  1.74351014824727E-12
(PID.TID 0000.0001)  cg2d: iter=   122 ; resid.=  1.45878953198525E-12
(PID.TID 0000.0001)  cg2d: iter=   123 ; resid.=  1.13211960540393E-12
(PID.TID 0000.0001)  cg2d: iter=   124 ; resid.=  8.19342801776817E-13
(PID.TID 0000.0001)  cg2d: iter=   125 ; resid.=  6.08301663815842E-13
(PID.TID 0000.0001)  cg2d: iter=   126 ; resid.=  4.73076262681689E-13
(PID.TID 0000.0001)  cg2d: iter=   127 ; resid.=  3.22284681250865E-13
(PID.TID 0000.0001)  cg2d: iter=   128 ; resid.=  2.12921114316490E-13
(PID.TID 0000.0001)  cg2d: iter=   129 ; resid.=  1.33594137531987E-13
(PID.TID 0000.0001)  cg2d: iter=   130 ; resid.=  9.59503445204500E-14
DEBUG_STATS_RL:    cg2d_x (SOLVE_FOR_PRESSURE)  min= -1.91016459732940E+01
DEBUG_STATS_RL:    cg2d_x (SOLVE_FOR_PRESSURE)  max=  1.13317737254593E+01
DEBUG_STATS_RL:    cg2d_x (SOLVE_FOR_PRESSURE) mean= -2.01346213565587E+00
DEBUG_STATS_RL:    cg2d_x (SOLVE_FOR_PRESSURE) S.D.=  7.85195575343820E+00
(PID.TID 0000.0001)      cg2d_init_res =   2.03516703173208E-01
(PID.TID 0000.0001)      cg2d_iters(min,last) =      -1     130
(PID.TID 0000.0001)      cg2d_last_res =   9.59503445204500E-14
(PID.TID 0000.0001) // =======================================================
(PID.TID 0000.0001) // Begin MONITOR dynamic field statistics
(PID.TID 0000.0001) // =======================================================
(PID.TID 0000.0001) %MON time_tsnumber                =                    84
(PID.TID 0000.0001) %MON time_secondsf                =   7.2576000000000E+06
(PID.TID 0000.0001) %MON dynstat_eta_max              =   1.1551247426564E+00
(PID.TID 0000.0001) %MON dynstat_eta_min              =  -1.9471606496732E+00
(PID.TID 0000.0001) %MON dynstat_eta_mean             =  -5.6133487625936E-03
(PID.TID 0000.0001) %MON dynstat_eta_sd               =   7.0327284528027E-01
(PID.TID 0000.0001) %MON dynstat_eta_del2             =   2.4917974104297E-03
(PID.TID 0000.0001) %MON dynstat_uvel_max             =   1.6050238928476E-01
(PID.TID 0000.0001) %MON dynstat_uvel_min             =  -1.3132441719114E-01
(PID.TID 0000.0001) %MON dynstat_uvel_mean            =   2.7666154039772E-03
(PID.TID 0000.0001) %MON dynstat_uvel_sd              =   1.4158094828029E-02
(PID.TID 0000.0001) %MON dynstat_uvel_del2            =   8.3938004513679E-05
(PID.TID 0000.0001) %MON dynstat_vvel_max             =   1.2230145400795E-01
(PID.TID 0000.0001) %MON dynstat_vvel_min             =  -8.0297847870951E-02
(PID.TID 0000.0001) %MON dynstat_vvel_mean            =  -5.5571047241716E-05
(PID.TID 0000.0001) %MON dynstat_vvel_sd              =   7.9591974266334E-03
(PID.TID 0000.0001) %MON dynstat_vvel_del2            =   7.3593639726099E-05
(PID.TID 0000.0001) %MON dynstat_wvel_max             =   1.5776481366998E-04
(PID.TID 0000.0001) %MON dynstat_wvel_min             =  -6.0286984462793E-05
(PID.TID 0000.0001) %MON dynstat_wvel_mean            =   2.5088692961261E-23
(PID.TID 0000.0001) %MON dynstat_wvel_sd              =   9.8342407318373E-06
(PID.TID 0000.0001) %MON dynstat_wvel_del2            =   1.0030844678972E-07
(PID.TID 0000.0001) %MON dynstat_theta_max            =   3.0067123586414E+01
(PID.TID 0000.0001) %MON dynstat_theta_min            =  -1.9171600174489E+00
(PID.TID 0000.0001) %MON dynstat_theta_mean           =   3.6216192228948E+00
(PID.TID 0000.0001) %MON dynstat_theta_sd             =   4.4227523484565E+00
(PID.TID 0000.0001) %MON dynstat_theta_del2           =   4.6310914220372E-03
(PID.TID 0000.0001) %MON dynstat_salt_max             =   3.7443879931103E+01
(PID.TID 0000.0001) %MON dynstat_salt_min             =   2.9883503056706E+01
(PID.TID 0000.0001) %MON dynstat_salt_mean            =   3.4717327532695E+01
(PID.TID 0000.0001) %MON dynstat_salt_sd              =   2.9630168456169E-01
(PID.TID 0000.0001) %MON dynstat_salt_del2            =   9.6298257748395E-04
(PID.TID 0000.0001) %MON dynstat_sst_max              =   3.0067123586414E+01
(PID.TID 0000.0001) %MON dynstat_sst_min              =  -1.9171600174489E+00
(PID.TID 0000.0001) %MON dynstat_sst_mean             =   1.8802590362199E+01
(PID.TID 0000.0001) %MON dynstat_sst_sd               =   9.3232215778087E+00
(PID.TID 0000.0001) %MON dynstat_sst_del2             =   2.3798883068312E-02
(PID.TID 0000.0001) %MON dynstat_sss_max              =   3.7407873996438E+01
(PID.TID 0000.0001) %MON dynstat_sss_min              =   2.9883503056706E+01
(PID.TID 0000.0001) %MON dynstat_sss_mean             =   3.4839354205080E+01
(PID.TID 0000.0001) %MON dynstat_sss_sd               =   9.8351840763858E-01
(PID.TID 0000.0001) %MON dynstat_sss_del2             =   7.6595498511189E-03
(PID.TID 0000.0001) %MON forcing_qnet_max             =   2.3686581217448E+02
(PID.TID 0000.0001) %MON forcing_qnet_min             =  -1.6043162027995E+02
(PID.TID 0000.0001) %MON forcing_qnet_mean            =  -4.0887745583875E+00
(PID.TID 0000.0001) %MON forcing_qnet_sd              =   4.0727838671898E+01
(PID.TID 0000.0001) %MON forcing_qnet_del2            =   8.0254510514999E-01
(PID.TID 0000.0001) %MON forcing_qsw_max              =   0.0000000000000E+00
(PID.TID 0000.0001) %MON forcing_qsw_min              =   0.0000000000000E+00
(PID.TID 0000.0001) %MON forcing_qsw_mean             =   0.0000000000000E+00
(PID.TID 0000.0001) %MON forcing_qsw_sd               =   0.0000000000000E+00
(PID.TID 0000.0001) %MON forcing_qsw_del2             =   0.0000000000000E+00
(PID.TID 0000.0001) %MON forcing_empmr_max            =   6.8339453681195E-05
(PID.TID 0000.0001) %MON forcing_empmr_min            =  -8.3383186222363E-05
(PID.TID 0000.0001) %MON forcing_empmr_mean           =   3.7114813505816E-07
(PID.TID 0000.0001) %MON forcing_empmr_sd             =   2.5803474193734E-05
(PID.TID 0000.0001) %MON forcing_empmr_del2           =   3.6306311996696E-07
(PID.TID 0000.0001) %MON forcing_fu_max               =   3.5133404135704E-01
(PID.TID 0000.0001) %MON forcing_fu_min               =  -3.9602099657059E-01
(PID.TID 0000.0001) %MON forcing_fu_mean              =   1.9439192524925E-02
(PID.TID 0000.0001) %MON forcing_fu_sd                =   1.0051726632131E-01
(PID.TID 0000.0001) %MON forcing_fu_del2              =   7.9144391050227E-04
(PID.TID 0000.0001) %MON forcing_fv_max               =   1.8253233631452E-01
(PID.TID 0000.0001) %MON forcing_fv_min               =  -1.6606992681821E-01
(PID.TID 0000.0001) %MON forcing_fv_mean              =  -7.2377620610603E-03
(PID.TID 0000.0001) %MON forcing_fv_sd                =   3.9899607945901E-02
(PID.TID 0000.0001) %MON forcing_fv_del2              =   4.4280534116419E-04
(PID.TID 0000.0001) %MON trAdv_CFL_u_max              =   4.2152025689422E-02
(PID.TID 0000.0001) %MON trAdv_CFL_v_max              =   2.3919225330317E-02
(PID.TID 0000.0001) %MON trAdv_CFL_w_max              =   3.3480254072845E-02
(PID.TID 0000.0001) %MON advcfl_uvel_max              =   4.1960919352635E-02
(PID.TID 0000.0001) %MON advcfl_vvel_max              =   2.3761211034242E-02
(PID.TID 0000.0001) %MON advcfl_wvel_max              =   3.7031470347639E-02
(PID.TID 0000.0001) %MON advcfl_W_hf_max              =   3.9970342492129E-02
(PID.TID 0000.0001) %MON pe_b_mean                    =   6.3293128823223E-04
(PID.TID 0000.0001) %MON ke_max                       =   1.3079658761126E-02
(PID.TID 0000.0001) %MON ke_mean                      =   1.2298706904983E-04
(PID.TID 0000.0001) %MON ke_vol                       =   1.3226782436723E+18
(PID.TID 0000.0001) %MON vort_r_min                   =  -3.7893854071567E-07
(PID.TID 0000.0001) %MON vort_r_max                   =   3.7414608758937E-07
(PID.TID 0000.0001) %MON vort_a_mean                  =  -2.5274806748475E-05
(PID.TID 0000.0001) %MON vort_a_sd                    =   7.3604724351379E-05
(PID.TID 0000.0001) %MON vort_p_mean                  =  -3.1845654981778E-05
(PID.TID 0000.0001) %MON vort_p_sd                    =   1.3162506902325E-04
(PID.TID 0000.0001) %MON surfExpan_theta_mean         =   5.6331394937115E-07
(PID.TID 0000.0001) %MON surfExpan_salt_mean          =  -7.5857238405354E-08
(PID.TID 0000.0001) // =======================================================
(PID.TID 0000.0001) // End MONITOR dynamic field statistics
(PID.TID 0000.0001) // =======================================================
 EXTERNAL_FIELDS_LOAD,        84 : iP,iLd,i0,i1=    3    4    3    4 ; Wght=  0.7000000000  0.3000000000
 EXTERNAL_FIELDS_LOAD: (fu0,1),fu,fv= -2.7199E-02 -3.7252E-02 -3.0215E-02 -1.0969E-02
 EXTERNAL_FIELDS_LOAD: SST,SSS,Q,E-P= -1.1813E-01  3.4576E+01  1.8201E+02  8.6873E-06
DEBUG_STATS_RL:          Uvel (THERMODYNAMICS)  min= -1.31324417191135E-01
DEBUG_STATS_RL:          Uvel (THERMODYNAMICS)  max=  1.60502389284763E-01
DEBUG_STATS_RL:          Uvel (THERMODYNAMICS) mean=  6.35412708949121E-03
DEBUG_STATS_RL:          Uvel (THERMODYNAMICS) S.D.=  2.24520619467238E-02
DEBUG_STATS_RL:          Vvel (THERMODYNAMICS)  min= -8.02978478709506E-02
DEBUG_STATS_RL:          Vvel (THERMODYNAMICS)  max=  1.22301454007947E-01
DEBUG_STATS_RL:          Vvel (THERMODYNAMICS) mean=  9.70356748655567E-04
DEBUG_STATS_RL:          Vvel (THERMODYNAMICS) S.D.=  1.29340132376536E-02
DEBUG_STATS_RL:          Wvel (THERMODYNAMICS)  min= -6.02869844627929E-05
DEBUG_STATS_RL:          Wvel (THERMODYNAMICS)  max=  1.57764813669985E-04
DEBUG_STATS_RL:          Wvel (THERMODYNAMICS) mean= -1.21176000195422E-08
DEBUG_STATS_RL:          Wvel (THERMODYNAMICS) S.D.=  8.78144980784209E-06
DEBUG_STATS_RL:         Theta (THERMODYNAMICS)  min= -1.91566081302531E+00
DEBUG_STATS_RL:         Theta (THERMODYNAMICS)  max=  3.00689976934497E+01
DEBUG_STATS_RL:         Theta (THERMODYNAMICS) mean=  3.21010502894039E+00
DEBUG_STATS_RL:         Theta (THERMODYNAMICS) S.D.=  5.87247945269409E+00
DEBUG_STATS_RL:          Salt (THERMODYNAMICS)  min= -6.86350631975874E-04
DEBUG_STATS_RL:          Salt (THERMODYNAMICS)  max=  3.74436544519578E+01
DEBUG_STATS_RL:          Salt (THERMODYNAMICS) mean=  1.88441479436203E+01
DEBUG_STATS_RL:          Salt (THERMODYNAMICS) S.D.=  1.73003700464935E+01
DEBUG_STATS_RL:         GtNm1 (THERMODYNAMICS)  min= -2.44462334438256E-06
DEBUG_STATS_RL:         GtNm1 (THERMODYNAMICS)  max=  2.98519403415467E-06
DEBUG_STATS_RL:         GtNm1 (THERMODYNAMICS) mean= -2.91442788582311E-09
DEBUG_STATS_RL:         GtNm1 (THERMODYNAMICS) S.D.=  1.33743099440599E-07
DEBUG_STATS_RL:         GsNm1 (THERMODYNAMICS)  min= -8.05054638019944E-07
DEBUG_STATS_RL:         GsNm1 (THERMODYNAMICS)  max=  5.79758803297546E-07
DEBUG_STATS_RL:         GsNm1 (THERMODYNAMICS) mean=  2.39111085322571E-11
DEBUG_STATS_RL:         GsNm1 (THERMODYNAMICS) S.D.=  1.34232223085550E-08
DEBUG_STATS_RL:                EtaN (DYNAMICS)  min= -1.94716064967322E+00
DEBUG_STATS_RL:                EtaN (DYNAMICS)  max=  1.15512474265639E+00
DEBUG_STATS_RL:                EtaN (DYNAMICS) mean= -2.05245885387959E-01
DEBUG_STATS_RL:                EtaN (DYNAMICS) S.D.=  8.00403236843856E-01
DEBUG_STATS_RL:                Uvel (DYNAMICS)  min= -1.31324417191135E-01
DEBUG_STATS_RL:                Uvel (DYNAMICS)  max=  1.60502389284763E-01
DEBUG_STATS_RL:                Uvel (DYNAMICS) mean=  6.35412708949121E-03
DEBUG_STATS_RL:                Uvel (DYNAMICS) S.D.=  2.24520619467238E-02
DEBUG_STATS_RL:                Vvel (DYNAMICS)  min= -8.02978478709506E-02
DEBUG_STATS_RL:                Vvel (DYNAMICS)  max=  1.22301454007947E-01
DEBUG_STATS_RL:                Vvel (DYNAMICS) mean=  9.70356748655567E-04
DEBUG_STATS_RL:                Vvel (DYNAMICS) S.D.=  1.29340132376536E-02
DEBUG_STATS_RL:                Wvel (DYNAMICS)  min= -6.02869844627929E-05
DEBUG_STATS_RL:                Wvel (DYNAMICS)  max=  1.57764813669985E-04
DEBUG_STATS_RL:                Wvel (DYNAMICS) mean= -1.21176000195422E-08
DEBUG_STATS_RL:                Wvel (DYNAMICS) S.D.=  8.78144980784209E-06
DEBUG_STATS_RL:               Theta (DYNAMICS)  min= -1.91566081302531E+00
DEBUG_STATS_RL:               Theta (DYNAMICS)  max=  3.00689976934497E+01
DEBUG_STATS_RL:               Theta (DYNAMICS) mean=  3.21010502894039E+00
DEBUG_STATS_RL:               Theta (DYNAMICS) S.D.=  5.87247945269409E+00
DEBUG_STATS_RL:                Salt (DYNAMICS)  min= -6.86350631975874E-04
DEBUG_STATS_RL:                Salt (DYNAMICS)  max=  3.74436544519578E+01
DEBUG_STATS_RL:                Salt (DYNAMICS) mean=  1.88441479436203E+01
DEBUG_STATS_RL:                Salt (DYNAMICS) S.D.=  1.73003700464935E+01
DEBUG_STATS_RL:                  Gu (DYNAMICS)  min= -1.30381416252888E-01
DEBUG_STATS_RL:                  Gu (DYNAMICS)  max=  1.66084670254994E-01
DEBUG_STATS_RL:                  Gu (DYNAMICS) mean=  6.23447155520902E-03
DEBUG_STATS_RL:                  Gu (DYNAMICS) S.D.=  2.27738115576235E-02
DEBUG_STATS_RL:                  Gv (DYNAMICS)  min= -8.52667671918750E-02
DEBUG_STATS_RL:                  Gv (DYNAMICS)  max=  1.28538770750436E-01
DEBUG_STATS_RL:                  Gv (DYNAMICS) mean=  3.58174369574681E-03
DEBUG_STATS_RL:                  Gv (DYNAMICS) S.D.=  1.46213549249020E-02
DEBUG_STATS_RL:               GuNm1 (DYNAMICS)  min= -1.00674555053499E-05
DEBUG_STATS_RL:               GuNm1 (DYNAMICS)  max=  9.20926657137971E-06
DEBUG_STATS_RL:               GuNm1 (DYNAMICS) mean=  5.33173278121247E-09
DEBUG_STATS_RL:               GuNm1 (DYNAMICS) S.D.=  1.21001207936596E-06
DEBUG_STATS_RL:               GvNm1 (DYNAMICS)  min= -9.58348672176606E-06
DEBUG_STATS_RL:               GvNm1 (DYNAMICS)  max=  1.53205215812556E-05
DEBUG_STATS_RL:               GvNm1 (DYNAMICS) mean=  7.42135563082569E-07
DEBUG_STATS_RL:               GvNm1 (DYNAMICS) S.D.=  2.59923491377881E-06
DEBUG_STATS_RL:               GtNm1 (DYNAMICS)  min= -2.44462334438256E-06
DEBUG_STATS_RL:               GtNm1 (DYNAMICS)  max=  2.98519403415467E-06
DEBUG_STATS_RL:               GtNm1 (DYNAMICS) mean= -2.91442788582311E-09
DEBUG_STATS_RL:               GtNm1 (DYNAMICS) S.D.=  1.33743099440599E-07
DEBUG_STATS_RL:               GsNm1 (DYNAMICS)  min= -8.05054638019944E-07
DEBUG_STATS_RL:               GsNm1 (DYNAMICS)  max=  5.79758803297546E-07
DEBUG_STATS_RL:               GsNm1 (DYNAMICS) mean=  2.39111085322571E-11
DEBUG_STATS_RL:               GsNm1 (DYNAMICS) S.D.=  1.34232223085550E-08
DEBUG_STATS_RL:    cg2d_b (SOLVE_FOR_PRESSURE)  min= -2.61232018827232E+04
DEBUG_STATS_RL:    cg2d_b (SOLVE_FOR_PRESSURE)  max=  2.83398772362011E+04
DEBUG_STATS_RL:    cg2d_b (SOLVE_FOR_PRESSURE) mean=  5.40788540399190E+00
DEBUG_STATS_RL:    cg2d_b (SOLVE_FOR_PRESSURE) S.D.=  3.94419852854949E+03
 cg2d: Sum(rhs),rhsMax =   4.41754020523747E-01  1.86143901478967E+00
(PID.TID 0000.0001)  cg2d: iter=     1 ; resid.=  7.45703590953715E-02
(PID.TID 0000.0001)  cg2d: iter=     2 ; resid.=  6.78275164041756E-02
(PID.TID 0000.0001)  cg2d: iter=     3 ; resid.=  6.77643022873076E-02
(PID.TID 0000.0001)  cg2d: iter=     4 ; resid.=  6.44987914066538E-02
(PID.TID 0000.0001)  cg2d: iter=     5 ; resid.=  5.28930408543182E-02
(PID.TID 0000.0001)  cg2d: iter=     6 ; resid.=  4.12997210042139E-02
(PID.TID 0000.0001)  cg2d: iter=     7 ; resid.=  3.54542817147493E-02
(PID.TID 0000.0001)  cg2d: iter=     8 ; resid.=  2.76462621825880E-02
(PID.TID 0000.0001)  cg2d: iter=     9 ; resid.=  2.10549437266913E-02
(PID.TID 0000.0001)  cg2d: iter=    10 ; resid.=  1.68525870819745E-02
(PID.TID 0000.0001)  cg2d: iter=    11 ; resid.=  1.58288006162539E-02
(PID.TID 0000.0001)  cg2d: iter=    12 ; resid.=  1.17005465227448E-02
(PID.TID 0000.0001)  cg2d: iter=    13 ; resid.=  8.14004714521738E-03
(PID.TID 0000.0001)  cg2d: iter=    14 ; resid.=  6.10880998217548E-03
(PID.TID 0000.0001)  cg2d: iter=    15 ; resid.=  5.45613076632385E-03
(PID.TID 0000.0001)  cg2d: iter=    16 ; resid.=  4.32532133157416E-03
(PID.TID 0000.0001)  cg2d: iter=    17 ; resid.=  3.79352196631282E-03
(PID.TID 0000.0001)  cg2d: iter=    18 ; resid.=  3.35947373888951E-03
(PID.TID 0000.0001)  cg2d: iter=    19 ; resid.=  2.83015788227417E-03
(PID.TID 0000.0001)  cg2d: iter=    20 ; resid.=  2.21849130032420E-03
(PID.TID 0000.0001)  cg2d: iter=    21 ; resid.=  1.85193919602593E-03
(PID.TID 0000.0001)  cg2d: iter=    22 ; resid.=  1.59489836605538E-03
(PID.TID 0000.0001)  cg2d: iter=    23 ; resid.=  1.36318634996184E-03
(PID.TID 0000.0001)  cg2d: iter=    24 ; resid.=  1.13375254892936E-03
(PID.TID 0000.0001)  cg2d: iter=    25 ; resid.=  9.08876040364546E-04
(PID.TID 0000.0001)  cg2d: iter=    26 ; resid.=  7.39165648576283E-04
(PID.TID 0000.0001)  cg2d: iter=    27 ; resid.=  6.96909340005410E-04
(PID.TID 0000.0001)  cg2d: iter=    28 ; resid.=  6.32727671201757E-04
(PID.TID 0000.0001)  cg2d: iter=    29 ; resid.=  5.15931813303615E-04
(PID.TID 0000.0001)  cg2d: iter=    30 ; resid.=  4.03407883954977E-04
(PID.TID 0000.0001)  cg2d: iter=    31 ; resid.=  3.23022636412083E-04
(PID.TID 0000.0001)  cg2d: iter=    32 ; resid.=  2.77748635822614E-04
(PID.TID 0000.0001)  cg2d: iter=    33 ; resid.=  2.37334322127810E-04
(PID.TID 0000.0001)  cg2d: iter=    34 ; resid.=  1.97262671101239E-04
(PID.TID 0000.0001)  cg2d: iter=    35 ; resid.=  1.53208721164604E-04
(PID.TID 0000.0001)  cg2d: iter=    36 ; resid.=  1.24119959419253E-04
(PID.TID 0000.0001)  cg2d: iter=    37 ; resid.=  1.16110646379038E-04
(PID.TID 0000.0001)  cg2d: iter=    38 ; resid.=  1.02524554187536E-04
(PID.TID 0000.0001)  cg2d: iter=    39 ; resid.=  8.26088914918303E-05
(PID.TID 0000.0001)  cg2d: iter=    40 ; resid.=  7.20296487130184E-05
(PID.TID 0000.0001)  cg2d: iter=    41 ; resid.=  6.18074697520341E-05
(PID.TID 0000.0001)  cg2d: iter=    42 ; resid.=  5.73127821382709E-05
(PID.TID 0000.0001)  cg2d: iter=    43 ; resid.=  4.75303813789720E-05
(PID.TID 0000.0001)  cg2d: iter=    44 ; resid.=  3.60552034904727E-05
(PID.TID 0000.0001)  cg2d: iter=    45 ; resid.=  2.86983001149207E-05
(PID.TID 0000.0001)  cg2d: iter=    46 ; resid.=  2.49736554674674E-05
(PID.TID 0000.0001)  cg2d: iter=    47 ; resid.=  2.11969932778748E-05
(PID.TID 0000.0001)  cg2d: iter=    48 ; resid.=  1.65718117437819E-05
(PID.TID 0000.0001)  cg2d: iter=    49 ; resid.=  1.21107022637262E-05
(PID.TID 0000.0001)  cg2d: iter=    50 ; resid.=  9.44748791044331E-06
(PID.TID 0000.0001)  cg2d: iter=    51 ; resid.=  8.43456453210346E-06
(PID.TID 0000.0001)  cg2d: iter=    52 ; resid.=  7.56511952841436E-06
(PID.TID 0000.0001)  cg2d: iter=    53 ; resid.=  6.67893740277002E-06
(PID.TID 0000.0001)  cg2d: iter=    54 ; resid.=  6.02316221165039E-06
(PID.TID 0000.0001)  cg2d: iter=    55 ; resid.=  5.51761756333258E-06
(PID.TID 0000.0001)  cg2d: iter=    56 ; resid.=  4.75760038377359E-06
(PID.TID 0000.0001)  cg2d: iter=    57 ; resid.=  3.76995764939186E-06
(PID.TID 0000.0001)  cg2d: iter=    58 ; resid.=  2.93519103410076E-06
(PID.TID 0000.0001)  cg2d: iter=    59 ; resid.=  2.07590915163217E-06
(PID.TID 0000.0001)  cg2d: iter=    60 ; resid.=  1.58669535246909E-06
(PID.TID 0000.0001)  cg2d: iter=    61 ; resid.=  1.22983760886901E-06
(PID.TID 0000.0001)  cg2d: iter=    62 ; resid.=  9.50667867447267E-07
(PID.TID 0000.0001)  cg2d: iter=    63 ; resid.=  7.72929766774291E-07
(PID.TID 0000.0001)  cg2d: iter=    64 ; resid.=  6.03014393464399E-07
(PID.TID 0000.0001)  cg2d: iter=    65 ; resid.=  4.71012295170828E-07
(PID.TID 0000.0001)  cg2d: iter=    66 ; resid.=  3.44840276227934E-07
(PID.TID 0000.0001)  cg2d: iter=    67 ; resid.=  2.63237695602211E-07
(PID.TID 0000.0001)  cg2d: iter=    68 ; resid.=  2.15290516575865E-07
(PID.TID 0000.0001)  cg2d: iter=    69 ; resid.=  1.77501884453850E-07
(PID.TID 0000.0001)  cg2d: iter=    70 ; resid.=  1.59453323706943E-07
(PID.TID 0000.0001)  cg2d: iter=    71 ; resid.=  1.33844508021268E-07
(PID.TID 0000.0001)  cg2d: iter=    72 ; resid.=  1.14048302183274E-07
(PID.TID 0000.0001)  cg2d: iter=    73 ; resid.=  9.93467079297553E-08
(PID.TID 0000.0001)  cg2d: iter=    74 ; resid.=  8.59285989024621E-08
(PID.TID 0000.0001)  cg2d: iter=    75 ; resid.=  6.97401986032178E-08
(PID.TID 0000.0001)  cg2d: iter=    76 ; resid.=  5.65423737270133E-08
(PID.TID 0000.0001)  cg2d: iter=    77 ; resid.=  4.65606739293198E-08
(PID.TID 0000.0001)  cg2d: iter=    78 ; resid.=  4.12324093714620E-08
(PID.TID 0000.0001)  cg2d: iter=    79 ; resid.=  3.59771218283382E-08
(PID.TID 0000.0001)  cg2d: iter=    80 ; resid.=  3.27614733773948E-08
(PID.TID 0000.0001)  cg2d: iter=    81 ; resid.=  2.72960160842513E-08
(PID.TID 0000.0001)  cg2d: iter=    82 ; resid.=  1.97775964843885E-08
(PID.TID 0000.0001)  cg2d: iter=    83 ; resid.=  1.74011092606764E-08
(PID.TID 0000.0001)  cg2d: iter=    84 ; resid.=  1.50361097185361E-08
(PID.TID 0000.0001)  cg2d: iter=    85 ; resid.=  1.11602829665291E-08
(PID.TID 0000.0001)  cg2d: iter=    86 ; resid.=  8.29644111640976E-09
(PID.TID 0000.0001)  cg2d: iter=    87 ; resid.=  6.06843541059784E-09
(PID.TID 0000.0001)  cg2d: iter=    88 ; resid.=  4.99718542340042E-09
(PID.TID 0000.0001)  cg2d: iter=    89 ; resid.=  4.31227566746079E-09
(PID.TID 0000.0001)  cg2d: iter=    90 ; resid.=  3.53700375092621E-09
(PID.TID 0000.0001)  cg2d: iter=    91 ; resid.=  2.62884411218242E-09
(PID.TID 0000.0001)  cg2d: iter=    92 ; resid.=  2.14428602036347E-09
(PID.TID 0000.0001)  cg2d: iter=    93 ; resid.=  1.71076059293456E-09
(PID.TID 0000.0001)  cg2d: iter=    94 ; resid.=  1.40867166173965E-09
(PID.TID 0000.0001)  cg2d: iter=    95 ; resid.=  1.22392759809517E-09
(PID.TID 0000.0001)  cg2d: iter=    96 ; resid.=  9.95890257086901E-10
(PID.TID 0000.0001)  cg2d: iter=    97 ; resid.=  8.04689053975784E-10
(PID.TID 0000.0001)  cg2d: iter=    98 ; resid.=  6.57607239785139E-10
(PID.TID 0000.0001)  cg2d: iter=    99 ; resid.=  5.43695847405233E-10
(PID.TID 0000.0001)  cg2d: iter=   100 ; resid.=  4.60596669000301E-10
(PID.TID 0000.0001)  cg2d: iter=   101 ; resid.=  3.69703320215314E-10
(PID.TID 0000.0001)  cg2d: iter=   102 ; resid.=  2.89518140132113E-10
(PID.TID 0000.0001)  cg2d: iter=   103 ; resid.=  2.41360899921903E-10
(PID.TID 0000.0001)  cg2d: iter=   104 ; resid.=  2.07052285264921E-10
(PID.TID 0000.0001)  cg2d: iter=   105 ; resid.=  1.69431909762052E-10
(PID.TID 0000.0001)  cg2d: iter=   106 ; resid.=  1.24494655750827E-10
(PID.TID 0000.0001)  cg2d: iter=   107 ; resid.=  8.98358326954743E-11
(PID.TID 0000.0001)  cg2d: iter=   108 ; resid.=  6.51835045543776E-11
(PID.TID 0000.0001)  cg2d: iter=   109 ; resid.=  5.06655677043749E-11
(PID.TID 0000.0001)  cg2d: iter=   110 ; resid.=  4.03342452193075E-11
(PID.TID 0000.0001)  cg2d: iter=   111 ; resid.=  3.18359991871783E-11
(PID.TID 0000.0001)  cg2d: iter=   112 ; resid.=  2.19618120942171E-11
(PID.TID 0000.0001)  cg2d: iter=   113 ; resid.=  1.47014566801645E-11
(PID.TID 0000.0001)  cg2d: iter=   114 ; resid.=  1.04739955610339E-11
(PID.TID 0000.0001)  cg2d: iter=   115 ; resid.=  7.44463347355824E-12
(PID.TID 0000.0001)  cg2d: iter=   116 ; resid.=  5.70206183722895E-12
(PID.TID 0000.0001)  cg2d: iter=   117 ; resid.=  4.30046130533557E-12
(PID.TID 0000.0001)  cg2d: iter=   118 ; resid.=  2.90273383268397E-12
(PID.TID 0000.0001)  cg2d: iter=   119 ; resid.=  2.09029034062672E-12
(PID.TID 0000.0001)  cg2d: iter=   120 ; resid.=  1.72957752138727E-12
(PID.TID 0000.0001)  cg2d: iter=   121 ; resid.=  1.49151827461192E-12
(PID.TID 0000.0001)  cg2d: iter=   122 ; resid.=  1.25879026963784E-12
(PID.TID 0000.0001)  cg2d: iter=   123 ; resid.=  9.94162743161140E-13
(PID.TID 0000.0001)  cg2d: iter=   124 ; resid.=  7.37244960917334E-13
(PID.TID 0000.0001)  cg2d: iter=   125 ; resid.=  5.61403976076956E-13
(PID.TID 0000.0001)  cg2d: iter=   126 ; resid.=  4.41637725463153E-13
(PID.TID 0000.0001)  cg2d: iter=   127 ; resid.=  2.98580612054383E-13
(PID.TID 0000.0001)  cg2d: iter=   128 ; resid.=  1.97733571732837E-13
(PID.TID 0000.0001)  cg2d: iter=   129 ; resid.=  1.22596679267994E-13
(PID.TID 0000.0001)  cg2d: iter=   130 ; resid.=  8.56042497577686E-14
DEBUG_STATS_RL:    cg2d_x (SOLVE_FOR_PRESSURE)  min= -1.90566272011462E+01
DEBUG_STATS_RL:    cg2d_x (SOLVE_FOR_PRESSURE)  max=  1.15006331817039E+01
DEBUG_STATS_RL:    cg2d_x (SOLVE_FOR_PRESSURE) mean= -2.02821090541812E+00
DEBUG_STATS_RL:    cg2d_x (SOLVE_FOR_PRESSURE) S.D.=  7.92054491161826E+00
(PID.TID 0000.0001)      cg2d_init_res =   2.00181403356571E-01
(PID.TID 0000.0001)      cg2d_iters(min,last) =      -1     130
(PID.TID 0000.0001)      cg2d_last_res =   8.56042497577686E-14
(PID.TID 0000.0001) // =======================================================
(PID.TID 0000.0001) // Begin MONITOR dynamic field statistics
(PID.TID 0000.0001) // =======================================================
(PID.TID 0000.0001) %MON time_tsnumber                =                    85
(PID.TID 0000.0001) %MON time_secondsf                =   7.3440000000000E+06
(PID.TID 0000.0001) %MON dynstat_eta_max              =   1.1723377351381E+00
(PID.TID 0000.0001) %MON dynstat_eta_min              =  -1.9425715801372E+00
(PID.TID 0000.0001) %MON dynstat_eta_mean             =  -5.6424578634122E-03
(PID.TID 0000.0001) %MON dynstat_eta_sd               =   7.1071477324428E-01
(PID.TID 0000.0001) %MON dynstat_eta_del2             =   2.4959593195154E-03
(PID.TID 0000.0001) %MON dynstat_uvel_max             =   1.6142259153628E-01
(PID.TID 0000.0001) %MON dynstat_uvel_min             =  -1.3182966343127E-01
(PID.TID 0000.0001) %MON dynstat_uvel_mean            =   2.7582962560407E-03
(PID.TID 0000.0001) %MON dynstat_uvel_sd              =   1.4109304682677E-02
(PID.TID 0000.0001) %MON dynstat_uvel_del2            =   8.4106634817961E-05
(PID.TID 0000.0001) %MON dynstat_vvel_max             =   1.2354571742496E-01
(PID.TID 0000.0001) %MON dynstat_vvel_min             =  -8.0492417084748E-02
(PID.TID 0000.0001) %MON dynstat_vvel_mean            =  -4.8301359167061E-05
(PID.TID 0000.0001) %MON dynstat_vvel_sd              =   7.9390319990515E-03
(PID.TID 0000.0001) %MON dynstat_vvel_del2            =   7.3699274494043E-05
(PID.TID 0000.0001) %MON dynstat_wvel_max             =   1.6391552861582E-04
(PID.TID 0000.0001) %MON dynstat_wvel_min             =  -5.7447849141506E-05
(PID.TID 0000.0001) %MON dynstat_wvel_mean            =  -5.9381543008277E-23
(PID.TID 0000.0001) %MON dynstat_wvel_sd              =   9.7539282788751E-06
(PID.TID 0000.0001) %MON dynstat_wvel_del2            =   9.9336461254822E-08
(PID.TID 0000.0001) %MON dynstat_theta_max            =   3.0068997693450E+01
(PID.TID 0000.0001) %MON dynstat_theta_min            =  -1.9156608130253E+00
(PID.TID 0000.0001) %MON dynstat_theta_mean           =   3.6216088304015E+00
(PID.TID 0000.0001) %MON dynstat_theta_sd             =   4.4227866290981E+00
(PID.TID 0000.0001) %MON dynstat_theta_del2           =   4.6260238681513E-03
(PID.TID 0000.0001) %MON dynstat_salt_max             =   3.7443654451958E+01
(PID.TID 0000.0001) %MON dynstat_salt_min             =   2.9884505093675E+01
(PID.TID 0000.0001) %MON dynstat_salt_mean            =   3.4717330168620E+01
(PID.TID 0000.0001) %MON dynstat_salt_sd              =   2.9630651633180E-01
(PID.TID 0000.0001) %MON dynstat_salt_del2            =   9.6302668641970E-04
(PID.TID 0000.0001) %MON dynstat_sst_max              =   3.0068997693450E+01
(PID.TID 0000.0001) %MON dynstat_sst_min              =  -1.9156608130253E+00
(PID.TID 0000.0001) %MON dynstat_sst_mean             =   1.8799037485370E+01
(PID.TID 0000.0001) %MON dynstat_sst_sd               =   9.3316342088246E+00
(PID.TID 0000.0001) %MON dynstat_sst_del2             =   2.3776114158901E-02
(PID.TID 0000.0001) %MON dynstat_sss_max              =   3.7408070813783E+01
(PID.TID 0000.0001) %MON dynstat_sss_min              =   2.9884505093675E+01
(PID.TID 0000.0001) %MON dynstat_sss_mean             =   3.4839369639965E+01
(PID.TID 0000.0001) %MON dynstat_sss_sd               =   9.8381234723331E-01
(PID.TID 0000.0001) %MON dynstat_sss_del2             =   7.6626442837090E-03
(PID.TID 0000.0001) %MON forcing_qnet_max             =   2.3216057739258E+02
(PID.TID 0000.0001) %MON forcing_qnet_min             =  -1.6000362396240E+02
(PID.TID 0000.0001) %MON forcing_qnet_mean            =  -3.6917381294179E+00
(PID.TID 0000.0001) %MON forcing_qnet_sd              =   4.0304657455292E+01
(PID.TID 0000.0001) %MON forcing_qnet_del2            =   7.9840269608377E-01
(PID.TID 0000.0001) %MON forcing_qsw_max              =   0.0000000000000E+00
(PID.TID 0000.0001) %MON forcing_qsw_min              =   0.0000000000000E+00
(PID.TID 0000.0001) %MON forcing_qsw_mean             =   0.0000000000000E+00
(PID.TID 0000.0001) %MON forcing_qsw_sd               =   0.0000000000000E+00
(PID.TID 0000.0001) %MON forcing_qsw_del2             =   0.0000000000000E+00
(PID.TID 0000.0001) %MON forcing_empmr_max            =   6.8243282669300E-05
(PID.TID 0000.0001) %MON forcing_empmr_min            =  -8.3398032302284E-05
(PID.TID 0000.0001) %MON forcing_empmr_mean           =   3.4870277023059E-07
(PID.TID 0000.0001) %MON forcing_empmr_sd             =   2.5758635590810E-05
(PID.TID 0000.0001) %MON forcing_empmr_del2           =   3.6296797063557E-07
(PID.TID 0000.0001) %MON forcing_fu_max               =   3.5084198713303E-01
(PID.TID 0000.0001) %MON forcing_fu_min               =  -3.9695406854153E-01
(PID.TID 0000.0001) %MON forcing_fu_mean              =   1.9312000427992E-02
(PID.TID 0000.0001) %MON forcing_fu_sd                =   1.0042160540531E-01
(PID.TID 0000.0001) %MON forcing_fu_del2              =   7.8721937053415E-04
(PID.TID 0000.0001) %MON forcing_fv_max               =   1.8243633508682E-01
(PID.TID 0000.0001) %MON forcing_fv_min               =  -1.6266221404076E-01
(PID.TID 0000.0001) %MON forcing_fv_mean              =  -7.2012853886873E-03
(PID.TID 0000.0001) %MON forcing_fv_sd                =   3.9658030881186E-02
(PID.TID 0000.0001) %MON forcing_fv_del2              =   4.3709035920482E-04
(PID.TID 0000.0001) %MON trAdv_CFL_u_max              =   4.1969441915465E-02
(PID.TID 0000.0001) %MON trAdv_CFL_v_max              =   2.4566359512000E-02
(PID.TID 0000.0001) %MON trAdv_CFL_w_max              =   3.4657658145868E-02
(PID.TID 0000.0001) %MON advcfl_uvel_max              =   4.2201492297598E-02
(PID.TID 0000.0001) %MON advcfl_vvel_max              =   2.4002951460583E-02
(PID.TID 0000.0001) %MON advcfl_wvel_max              =   3.8347103902104E-02
(PID.TID 0000.0001) %MON advcfl_W_hf_max              =   4.1166743894906E-02
(PID.TID 0000.0001) %MON pe_b_mean                    =   6.4639689075924E-04
(PID.TID 0000.0001) %MON ke_max                       =   1.3458645829868E-02
(PID.TID 0000.0001) %MON ke_mean                      =   1.2219534154849E-04
(PID.TID 0000.0001) %MON ke_vol                       =   1.3226782436723E+18
(PID.TID 0000.0001) %MON vort_r_min                   =  -3.8405022589954E-07
(PID.TID 0000.0001) %MON vort_r_max                   =   3.7443985606763E-07
(PID.TID 0000.0001) %MON vort_a_mean                  =  -2.5274806871630E-05
(PID.TID 0000.0001) %MON vort_a_sd                    =   7.3604721532528E-05
(PID.TID 0000.0001) %MON vort_p_mean                  =  -3.1845655136950E-05
(PID.TID 0000.0001) %MON vort_p_sd                    =   1.3162505097065E-04
(PID.TID 0000.0001) %MON surfExpan_theta_mean         =   4.2817392546516E-07
(PID.TID 0000.0001) %MON surfExpan_salt_mean          =  -4.2099541248882E-08
(PID.TID 0000.0001) // =======================================================
(PID.TID 0000.0001) // End MONITOR dynamic field statistics
(PID.TID 0000.0001) // =======================================================
 EXTERNAL_FIELDS_LOAD,        85 : iP,iLd,i0,i1=    3    4    3    4 ; Wght=  0.6666666667  0.3333333333
 EXTERNAL_FIELDS_LOAD: (fu0,1),fu,fv= -2.7199E-02 -3.7252E-02 -3.0550E-02 -1.2124E-02
 EXTERNAL_FIELDS_LOAD: SST,SSS,Q,E-P= -1.1082E-01  3.4576E+01  1.7830E+02  8.6435E-06
DEBUG_STATS_RL:          Uvel (THERMODYNAMICS)  min= -1.31829663431272E-01
DEBUG_STATS_RL:          Uvel (THERMODYNAMICS)  max=  1.61422591536279E-01
DEBUG_STATS_RL:          Uvel (THERMODYNAMICS) mean=  6.31522040293407E-03
DEBUG_STATS_RL:          Uvel (THERMODYNAMICS) S.D.=  2.23558308533597E-02
DEBUG_STATS_RL:          Vvel (THERMODYNAMICS)  min= -8.04924170847477E-02
DEBUG_STATS_RL:          Vvel (THERMODYNAMICS)  max=  1.23545717424964E-01
DEBUG_STATS_RL:          Vvel (THERMODYNAMICS) mean=  9.72638139791863E-04
DEBUG_STATS_RL:          Vvel (THERMODYNAMICS) S.D.=  1.29157670378741E-02
DEBUG_STATS_RL:          Wvel (THERMODYNAMICS)  min= -5.74478491415060E-05
DEBUG_STATS_RL:          Wvel (THERMODYNAMICS)  max=  1.63915528615821E-04
DEBUG_STATS_RL:          Wvel (THERMODYNAMICS) mean= -1.27130539127134E-08
DEBUG_STATS_RL:          Wvel (THERMODYNAMICS) S.D.=  8.70162761809458E-06
DEBUG_STATS_RL:         Theta (THERMODYNAMICS)  min= -1.91417279671883E+00
DEBUG_STATS_RL:         Theta (THERMODYNAMICS)  max=  3.00699952173205E+01
DEBUG_STATS_RL:         Theta (THERMODYNAMICS) mean=  3.20990002332445E+00
DEBUG_STATS_RL:         Theta (THERMODYNAMICS) S.D.=  5.87251257615647E+00
DEBUG_STATS_RL:          Salt (THERMODYNAMICS)  min= -6.86350631975874E-04
DEBUG_STATS_RL:          Salt (THERMODYNAMICS)  max=  3.74434615289076E+01
DEBUG_STATS_RL:          Salt (THERMODYNAMICS) mean=  1.88441501025360E+01
DEBUG_STATS_RL:          Salt (THERMODYNAMICS) S.D.=  1.73003726336765E+01
DEBUG_STATS_RL:         GtNm1 (THERMODYNAMICS)  min= -2.20403849730742E-06
DEBUG_STATS_RL:         GtNm1 (THERMODYNAMICS)  max=  2.01346153701888E-06
DEBUG_STATS_RL:         GtNm1 (THERMODYNAMICS) mean= -3.08917925618843E-09
DEBUG_STATS_RL:         GtNm1 (THERMODYNAMICS) S.D.=  1.31279055112757E-07
DEBUG_STATS_RL:         GsNm1 (THERMODYNAMICS)  min= -6.82584433369263E-07
DEBUG_STATS_RL:         GsNm1 (THERMODYNAMICS)  max=  4.93053978796141E-07
DEBUG_STATS_RL:         GsNm1 (THERMODYNAMICS) mean= -2.19686817495672E-11
DEBUG_STATS_RL:         GsNm1 (THERMODYNAMICS) S.D.=  1.27945939479441E-08
DEBUG_STATS_RL:                EtaN (DYNAMICS)  min= -1.94257158013721E+00
DEBUG_STATS_RL:                EtaN (DYNAMICS)  max=  1.17233773513807E+00
DEBUG_STATS_RL:                EtaN (DYNAMICS) mean= -2.06749327769432E-01
DEBUG_STATS_RL:                EtaN (DYNAMICS) S.D.=  8.07394996087489E-01
DEBUG_STATS_RL:                Uvel (DYNAMICS)  min= -1.31829663431272E-01
DEBUG_STATS_RL:                Uvel (DYNAMICS)  max=  1.61422591536279E-01
DEBUG_STATS_RL:                Uvel (DYNAMICS) mean=  6.31522040293407E-03
DEBUG_STATS_RL:                Uvel (DYNAMICS) S.D.=  2.23558308533597E-02
DEBUG_STATS_RL:                Vvel (DYNAMICS)  min= -8.04924170847477E-02
DEBUG_STATS_RL:                Vvel (DYNAMICS)  max=  1.23545717424964E-01
DEBUG_STATS_RL:                Vvel (DYNAMICS) mean=  9.72638139791863E-04
DEBUG_STATS_RL:                Vvel (DYNAMICS) S.D.=  1.29157670378741E-02
DEBUG_STATS_RL:                Wvel (DYNAMICS)  min= -5.74478491415060E-05
DEBUG_STATS_RL:                Wvel (DYNAMICS)  max=  1.63915528615821E-04
DEBUG_STATS_RL:                Wvel (DYNAMICS) mean= -1.27130539127134E-08
DEBUG_STATS_RL:                Wvel (DYNAMICS) S.D.=  8.70162761809458E-06
DEBUG_STATS_RL:               Theta (DYNAMICS)  min= -1.91417279671883E+00
DEBUG_STATS_RL:               Theta (DYNAMICS)  max=  3.00699952173205E+01
DEBUG_STATS_RL:               Theta (DYNAMICS) mean=  3.20990002332445E+00
DEBUG_STATS_RL:               Theta (DYNAMICS) S.D.=  5.87251257615647E+00
DEBUG_STATS_RL:                Salt (DYNAMICS)  min= -6.86350631975874E-04
DEBUG_STATS_RL:                Salt (DYNAMICS)  max=  3.74434615289076E+01
DEBUG_STATS_RL:                Salt (DYNAMICS) mean=  1.88441501025360E+01
DEBUG_STATS_RL:                Salt (DYNAMICS) S.D.=  1.73003726336765E+01
DEBUG_STATS_RL:                  Gu (DYNAMICS)  min= -1.30870557542545E-01
DEBUG_STATS_RL:                  Gu (DYNAMICS)  max=  1.65945940442179E-01
DEBUG_STATS_RL:                  Gu (DYNAMICS) mean=  6.19863195164927E-03
DEBUG_STATS_RL:                  Gu (DYNAMICS) S.D.=  2.26724509327233E-02
DEBUG_STATS_RL:                  Gv (DYNAMICS)  min= -8.40498355622291E-02
DEBUG_STATS_RL:                  Gv (DYNAMICS)  max=  1.31854868482044E-01
DEBUG_STATS_RL:                  Gv (DYNAMICS) mean=  3.57841025935713E-03
DEBUG_STATS_RL:                  Gv (DYNAMICS) S.D.=  1.46055194471102E-02
DEBUG_STATS_RL:               GuNm1 (DYNAMICS)  min= -1.00062108979893E-05
DEBUG_STATS_RL:               GuNm1 (DYNAMICS)  max=  9.18884981042679E-06
DEBUG_STATS_RL:               GuNm1 (DYNAMICS) mean=  5.59594761142665E-09
DEBUG_STATS_RL:               GuNm1 (DYNAMICS) S.D.=  1.21038031737817E-06
DEBUG_STATS_RL:               GvNm1 (DYNAMICS)  min= -9.55781653688427E-06
DEBUG_STATS_RL:               GvNm1 (DYNAMICS)  max=  1.52888219934671E-05
DEBUG_STATS_RL:               GvNm1 (DYNAMICS) mean=  7.41927910702787E-07
DEBUG_STATS_RL:               GvNm1 (DYNAMICS) S.D.=  2.59824462716162E-06
DEBUG_STATS_RL:               GtNm1 (DYNAMICS)  min= -2.20403849730742E-06
DEBUG_STATS_RL:               GtNm1 (DYNAMICS)  max=  2.01346153701888E-06
DEBUG_STATS_RL:               GtNm1 (DYNAMICS) mean= -3.08917925618843E-09
DEBUG_STATS_RL:               GtNm1 (DYNAMICS) S.D.=  1.31279055112757E-07
DEBUG_STATS_RL:               GsNm1 (DYNAMICS)  min= -6.82584433369263E-07
DEBUG_STATS_RL:               GsNm1 (DYNAMICS)  max=  4.93053978796141E-07
DEBUG_STATS_RL:               GsNm1 (DYNAMICS) mean= -2.19686817495672E-11
DEBUG_STATS_RL:               GsNm1 (DYNAMICS) S.D.=  1.27945939479441E-08
DEBUG_STATS_RL:    cg2d_b (SOLVE_FOR_PRESSURE)  min= -2.64309708451786E+04
DEBUG_STATS_RL:    cg2d_b (SOLVE_FOR_PRESSURE)  max=  2.85175719931665E+04
DEBUG_STATS_RL:    cg2d_b (SOLVE_FOR_PRESSURE) mean=  5.43398855443039E+00
DEBUG_STATS_RL:    cg2d_b (SOLVE_FOR_PRESSURE) S.D.=  3.94882117582859E+03
 cg2d: Sum(rhs),rhsMax =   4.41120425908614E-01  1.87311048219167E+00
(PID.TID 0000.0001)  cg2d: iter=     1 ; resid.=  6.67592500739325E-02
(PID.TID 0000.0001)  cg2d: iter=     2 ; resid.=  5.19396280631438E-02
(PID.TID 0000.0001)  cg2d: iter=     3 ; resid.=  4.78862307952329E-02
(PID.TID 0000.0001)  cg2d: iter=     4 ; resid.=  4.67487240257316E-02
(PID.TID 0000.0001)  cg2d: iter=     5 ; resid.=  3.84584160781638E-02
(PID.TID 0000.0001)  cg2d: iter=     6 ; resid.=  3.02762782440379E-02
(PID.TID 0000.0001)  cg2d: iter=     7 ; resid.=  2.59008919539227E-02
(PID.TID 0000.0001)  cg2d: iter=     8 ; resid.=  2.14294953567755E-02
(PID.TID 0000.0001)  cg2d: iter=     9 ; resid.=  1.67635204352850E-02
(PID.TID 0000.0001)  cg2d: iter=    10 ; resid.=  1.33817209219211E-02
(PID.TID 0000.0001)  cg2d: iter=    11 ; resid.=  1.28961076895152E-02
(PID.TID 0000.0001)  cg2d: iter=    12 ; resid.=  1.04531034521875E-02
(PID.TID 0000.0001)  cg2d: iter=    13 ; resid.=  7.76443269438266E-03
(PID.TID 0000.0001)  cg2d: iter=    14 ; resid.=  6.08968910740910E-03
(PID.TID 0000.0001)  cg2d: iter=    15 ; resid.=  5.45793137552965E-03
(PID.TID 0000.0001)  cg2d: iter=    16 ; resid.=  4.38279286652150E-03
(PID.TID 0000.0001)  cg2d: iter=    17 ; resid.=  3.81975068191357E-03
(PID.TID 0000.0001)  cg2d: iter=    18 ; resid.=  3.40765583971846E-03
(PID.TID 0000.0001)  cg2d: iter=    19 ; resid.=  3.00836531111283E-03
(PID.TID 0000.0001)  cg2d: iter=    20 ; resid.=  2.36805394605131E-03
(PID.TID 0000.0001)  cg2d: iter=    21 ; resid.=  1.91211633071874E-03
(PID.TID 0000.0001)  cg2d: iter=    22 ; resid.=  1.57483543145043E-03
(PID.TID 0000.0001)  cg2d: iter=    23 ; resid.=  1.32937376207849E-03
(PID.TID 0000.0001)  cg2d: iter=    24 ; resid.=  1.12235503878159E-03
(PID.TID 0000.0001)  cg2d: iter=    25 ; resid.=  9.17318275880625E-04
(PID.TID 0000.0001)  cg2d: iter=    26 ; resid.=  7.41645724791659E-04
(PID.TID 0000.0001)  cg2d: iter=    27 ; resid.=  7.09401190325285E-04
(PID.TID 0000.0001)  cg2d: iter=    28 ; resid.=  6.41103171307614E-04
(PID.TID 0000.0001)  cg2d: iter=    29 ; resid.=  5.32827576448507E-04
(PID.TID 0000.0001)  cg2d: iter=    30 ; resid.=  4.12937292852297E-04
(PID.TID 0000.0001)  cg2d: iter=    31 ; resid.=  3.21870161497645E-04
(PID.TID 0000.0001)  cg2d: iter=    32 ; resid.=  2.65693301755342E-04
(PID.TID 0000.0001)  cg2d: iter=    33 ; resid.=  2.16013266590675E-04
(PID.TID 0000.0001)  cg2d: iter=    34 ; resid.=  1.77251073688728E-04
(PID.TID 0000.0001)  cg2d: iter=    35 ; resid.=  1.38242952678298E-04
(PID.TID 0000.0001)  cg2d: iter=    36 ; resid.=  1.09842185601091E-04
(PID.TID 0000.0001)  cg2d: iter=    37 ; resid.=  9.88289461395702E-05
(PID.TID 0000.0001)  cg2d: iter=    38 ; resid.=  8.18876320089477E-05
(PID.TID 0000.0001)  cg2d: iter=    39 ; resid.=  6.37820107658071E-05
(PID.TID 0000.0001)  cg2d: iter=    40 ; resid.=  5.45672094079937E-05
(PID.TID 0000.0001)  cg2d: iter=    41 ; resid.=  4.75363828157971E-05
(PID.TID 0000.0001)  cg2d: iter=    42 ; resid.=  4.53645028526924E-05
(PID.TID 0000.0001)  cg2d: iter=    43 ; resid.=  3.98362234240268E-05
(PID.TID 0000.0001)  cg2d: iter=    44 ; resid.=  3.20232624376879E-05
(PID.TID 0000.0001)  cg2d: iter=    45 ; resid.=  2.57224003121267E-05
(PID.TID 0000.0001)  cg2d: iter=    46 ; resid.=  2.21902651220810E-05
(PID.TID 0000.0001)  cg2d: iter=    47 ; resid.=  1.87480021150147E-05
(PID.TID 0000.0001)  cg2d: iter=    48 ; resid.=  1.51534177594538E-05
(PID.TID 0000.0001)  cg2d: iter=    49 ; resid.=  1.14337373536984E-05
(PID.TID 0000.0001)  cg2d: iter=    50 ; resid.=  8.92955435842837E-06
(PID.TID 0000.0001)  cg2d: iter=    51 ; resid.=  7.92892554833916E-06
(PID.TID 0000.0001)  cg2d: iter=    52 ; resid.=  7.22198435441833E-06
(PID.TID 0000.0001)  cg2d: iter=    53 ; resid.=  6.37336223592478E-06
(PID.TID 0000.0001)  cg2d: iter=    54 ; resid.=  5.57249402388968E-06
(PID.TID 0000.0001)  cg2d: iter=    55 ; resid.=  5.13615618097594E-06
(PID.TID 0000.0001)  cg2d: iter=    56 ; resid.=  4.62462188663776E-06
(PID.TID 0000.0001)  cg2d: iter=    57 ; resid.=  3.84011213960290E-06
(PID.TID 0000.0001)  cg2d: iter=    58 ; resid.=  3.04211429335333E-06
(PID.TID 0000.0001)  cg2d: iter=    59 ; resid.=  2.13299600362811E-06
(PID.TID 0000.0001)  cg2d: iter=    60 ; resid.=  1.62121189973212E-06
(PID.TID 0000.0001)  cg2d: iter=    61 ; resid.=  1.23513309550906E-06
(PID.TID 0000.0001)  cg2d: iter=    62 ; resid.=  9.41214073761686E-07
(PID.TID 0000.0001)  cg2d: iter=    63 ; resid.=  7.43620160882497E-07
(PID.TID 0000.0001)  cg2d: iter=    64 ; resid.=  5.81767375556193E-07
(PID.TID 0000.0001)  cg2d: iter=    65 ; resid.=  4.68749230690330E-07
(PID.TID 0000.0001)  cg2d: iter=    66 ; resid.=  3.55986049429737E-07
(PID.TID 0000.0001)  cg2d: iter=    67 ; resid.=  2.79046963403776E-07
(PID.TID 0000.0001)  cg2d: iter=    68 ; resid.=  2.30936238505499E-07
(PID.TID 0000.0001)  cg2d: iter=    69 ; resid.=  1.89051744709021E-07
(PID.TID 0000.0001)  cg2d: iter=    70 ; resid.=  1.67949957157042E-07
(PID.TID 0000.0001)  cg2d: iter=    71 ; resid.=  1.42248341035673E-07
(PID.TID 0000.0001)  cg2d: iter=    72 ; resid.=  1.22853106816208E-07
(PID.TID 0000.0001)  cg2d: iter=    73 ; resid.=  1.04600971838577E-07
(PID.TID 0000.0001)  cg2d: iter=    74 ; resid.=  8.66063299025647E-08
(PID.TID 0000.0001)  cg2d: iter=    75 ; resid.=  6.73922584271319E-08
(PID.TID 0000.0001)  cg2d: iter=    76 ; resid.=  5.24443733614563E-08
(PID.TID 0000.0001)  cg2d: iter=    77 ; resid.=  4.17230593899426E-08
(PID.TID 0000.0001)  cg2d: iter=    78 ; resid.=  3.57710152243440E-08
(PID.TID 0000.0001)  cg2d: iter=    79 ; resid.=  3.06316680142923E-08
(PID.TID 0000.0001)  cg2d: iter=    80 ; resid.=  2.86137504900251E-08
(PID.TID 0000.0001)  cg2d: iter=    81 ; resid.=  2.56015790552283E-08
(PID.TID 0000.0001)  cg2d: iter=    82 ; resid.=  1.93523242325055E-08
(PID.TID 0000.0001)  cg2d: iter=    83 ; resid.=  1.68795077695213E-08
(PID.TID 0000.0001)  cg2d: iter=    84 ; resid.=  1.41633157469712E-08
(PID.TID 0000.0001)  cg2d: iter=    85 ; resid.=  1.04116957180819E-08
(PID.TID 0000.0001)  cg2d: iter=    86 ; resid.=  7.69350879588897E-09
(PID.TID 0000.0001)  cg2d: iter=    87 ; resid.=  5.53126787018989E-09
(PID.TID 0000.0001)  cg2d: iter=    88 ; resid.=  4.20781202725710E-09
(PID.TID 0000.0001)  cg2d: iter=    89 ; resid.=  3.29302585193345E-09
(PID.TID 0000.0001)  cg2d: iter=    90 ; resid.=  2.58731772447532E-09
(PID.TID 0000.0001)  cg2d: iter=    91 ; resid.=  1.85535638489152E-09
(PID.TID 0000.0001)  cg2d: iter=    92 ; resid.=  1.44487615035951E-09
(PID.TID 0000.0001)  cg2d: iter=    93 ; resid.=  1.14884107482877E-09
(PID.TID 0000.0001)  cg2d: iter=    94 ; resid.=  9.86343997348080E-10
(PID.TID 0000.0001)  cg2d: iter=    95 ; resid.=  9.05027431074415E-10
(PID.TID 0000.0001)  cg2d: iter=    96 ; resid.=  7.56177465569959E-10
(PID.TID 0000.0001)  cg2d: iter=    97 ; resid.=  6.34804929750937E-10
(PID.TID 0000.0001)  cg2d: iter=    98 ; resid.=  5.57458528921720E-10
(PID.TID 0000.0001)  cg2d: iter=    99 ; resid.=  4.77814458246471E-10
(PID.TID 0000.0001)  cg2d: iter=   100 ; resid.=  3.84972358545738E-10
(PID.TID 0000.0001)  cg2d: iter=   101 ; resid.=  2.82665353310413E-10
(PID.TID 0000.0001)  cg2d: iter=   102 ; resid.=  2.03459137261124E-10
(PID.TID 0000.0001)  cg2d: iter=   103 ; resid.=  1.56350882620436E-10
(PID.TID 0000.0001)  cg2d: iter=   104 ; resid.=  1.27756595676484E-10
(PID.TID 0000.0001)  cg2d: iter=   105 ; resid.=  1.05454314394999E-10
(PID.TID 0000.0001)  cg2d: iter=   106 ; resid.=  7.90302498688412E-11
(PID.TID 0000.0001)  cg2d: iter=   107 ; resid.=  5.55792845207631E-11
(PID.TID 0000.0001)  cg2d: iter=   108 ; resid.=  3.83455826869702E-11
(PID.TID 0000.0001)  cg2d: iter=   109 ; resid.=  3.06925956641634E-11
(PID.TID 0000.0001)  cg2d: iter=   110 ; resid.=  2.70016076090111E-11
(PID.TID 0000.0001)  cg2d: iter=   111 ; resid.=  2.35639657534187E-11
(PID.TID 0000.0001)  cg2d: iter=   112 ; resid.=  1.76186575344313E-11
(PID.TID 0000.0001)  cg2d: iter=   113 ; resid.=  1.25374859534224E-11
(PID.TID 0000.0001)  cg2d: iter=   114 ; resid.=  9.31574542004097E-12
(PID.TID 0000.0001)  cg2d: iter=   115 ; resid.=  6.64278412261815E-12
(PID.TID 0000.0001)  cg2d: iter=   116 ; resid.=  4.96136510565395E-12
(PID.TID 0000.0001)  cg2d: iter=   117 ; resid.=  3.69121285903157E-12
(PID.TID 0000.0001)  cg2d: iter=   118 ; resid.=  2.43035685098665E-12
(PID.TID 0000.0001)  cg2d: iter=   119 ; resid.=  1.57942637875131E-12
(PID.TID 0000.0001)  cg2d: iter=   120 ; resid.=  1.15911682313275E-12
(PID.TID 0000.0001)  cg2d: iter=   121 ; resid.=  9.12844932978628E-13
(PID.TID 0000.0001)  cg2d: iter=   122 ; resid.=  7.40694227239414E-13
(PID.TID 0000.0001)  cg2d: iter=   123 ; resid.=  5.86033944553425E-13
(PID.TID 0000.0001)  cg2d: iter=   124 ; resid.=  4.55888874429729E-13
(PID.TID 0000.0001)  cg2d: iter=   125 ; resid.=  3.75375876717336E-13
(PID.TID 0000.0001)  cg2d: iter=   126 ; resid.=  3.26027448269925E-13
(PID.TID 0000.0001)  cg2d: iter=   127 ; resid.=  2.40246559237407E-13
(PID.TID 0000.0001)  cg2d: iter=   128 ; resid.=  1.74582665427891E-13
(PID.TID 0000.0001)  cg2d: iter=   129 ; resid.=  1.15337390269471E-13
(PID.TID 0000.0001)  cg2d: iter=   130 ; resid.=  8.15747254223548E-14
DEBUG_STATS_RL:    cg2d_x (SOLVE_FOR_PRESSURE)  min= -1.89630743835551E+01
DEBUG_STATS_RL:    cg2d_x (SOLVE_FOR_PRESSURE)  max=  1.15642911009681E+01
DEBUG_STATS_RL:    cg2d_x (SOLVE_FOR_PRESSURE) mean= -2.03599013399366E+00
DEBUG_STATS_RL:    cg2d_x (SOLVE_FOR_PRESSURE) S.D.=  7.94771140619612E+00
(PID.TID 0000.0001)      cg2d_init_res =   1.97504659858906E-01
(PID.TID 0000.0001)      cg2d_iters(min,last) =      -1     130
(PID.TID 0000.0001)      cg2d_last_res =   8.15747254223548E-14
(PID.TID 0000.0001) // =======================================================
(PID.TID 0000.0001) // Begin MONITOR dynamic field statistics
(PID.TID 0000.0001) // =======================================================
(PID.TID 0000.0001) %MON time_tsnumber                =                    86
(PID.TID 0000.0001) %MON time_secondsf                =   7.4304000000000E+06
(PID.TID 0000.0001) %MON dynstat_eta_max              =   1.1788268196705E+00
(PID.TID 0000.0001) %MON dynstat_eta_min              =  -1.9330351053573E+00
(PID.TID 0000.0001) %MON dynstat_eta_mean             =  -5.6696932642117E-03
(PID.TID 0000.0001) %MON dynstat_eta_sd               =   7.1357647307320E-01
(PID.TID 0000.0001) %MON dynstat_eta_del2             =   2.4998789930821E-03
(PID.TID 0000.0001) %MON dynstat_uvel_max             =   1.6135660440776E-01
(PID.TID 0000.0001) %MON dynstat_uvel_min             =  -1.3219965779025E-01
(PID.TID 0000.0001) %MON dynstat_uvel_mean            =   2.7378920040723E-03
(PID.TID 0000.0001) %MON dynstat_uvel_sd              =   1.4057940903667E-02
(PID.TID 0000.0001) %MON dynstat_uvel_del2            =   8.4374528135411E-05
(PID.TID 0000.0001) %MON dynstat_vvel_max             =   1.2513840025215E-01
(PID.TID 0000.0001) %MON dynstat_vvel_min             =  -8.0485064444758E-02
(PID.TID 0000.0001) %MON dynstat_vvel_mean            =  -3.8656143431230E-05
(PID.TID 0000.0001) %MON dynstat_vvel_sd              =   7.9286731838114E-03
(PID.TID 0000.0001) %MON dynstat_vvel_del2            =   7.3832051515349E-05
(PID.TID 0000.0001) %MON dynstat_wvel_max             =   1.6864339040745E-04
(PID.TID 0000.0001) %MON dynstat_wvel_min             =  -5.6709586513598E-05
(PID.TID 0000.0001) %MON dynstat_wvel_mean            =  -5.3349849068816E-23
(PID.TID 0000.0001) %MON dynstat_wvel_sd              =   9.6875380433012E-06
(PID.TID 0000.0001) %MON dynstat_wvel_del2            =   9.8566975191111E-08
(PID.TID 0000.0001) %MON dynstat_theta_max            =   3.0069995217321E+01
(PID.TID 0000.0001) %MON dynstat_theta_min            =  -1.9141727967188E+00
(PID.TID 0000.0001) %MON dynstat_theta_mean           =   3.6216003476730E+00
(PID.TID 0000.0001) %MON dynstat_theta_sd             =   4.4228248433847E+00
(PID.TID 0000.0001) %MON dynstat_theta_del2           =   4.6207481398915E-03
(PID.TID 0000.0001) %MON dynstat_salt_max             =   3.7443461528908E+01
(PID.TID 0000.0001) %MON dynstat_salt_min             =   2.9885669120415E+01
(PID.TID 0000.0001) %MON dynstat_salt_mean            =   3.4717331977221E+01
(PID.TID 0000.0001) %MON dynstat_salt_sd              =   2.9630935194676E-01
(PID.TID 0000.0001) %MON dynstat_salt_del2            =   9.6296337157532E-04
(PID.TID 0000.0001) %MON dynstat_sst_max              =   3.0069995217321E+01
(PID.TID 0000.0001) %MON dynstat_sst_min              =  -1.9141727967188E+00
(PID.TID 0000.0001) %MON dynstat_sst_mean             =   1.8795203685377E+01
(PID.TID 0000.0001) %MON dynstat_sst_sd               =   9.3400661791766E+00
(PID.TID 0000.0001) %MON dynstat_sst_del2             =   2.3745435289878E-02
(PID.TID 0000.0001) %MON dynstat_sss_max              =   3.7408120136376E+01
(PID.TID 0000.0001) %MON dynstat_sss_min              =   2.9885669120415E+01
(PID.TID 0000.0001) %MON dynstat_sss_mean             =   3.4839362221859E+01
(PID.TID 0000.0001) %MON dynstat_sss_sd               =   9.8410566940342E-01
(PID.TID 0000.0001) %MON dynstat_sss_del2             =   7.6644894550653E-03
(PID.TID 0000.0001) %MON forcing_qnet_max             =   2.2745534261068E+02
(PID.TID 0000.0001) %MON forcing_qnet_min             =  -1.5957562764486E+02
(PID.TID 0000.0001) %MON forcing_qnet_mean            =  -3.2947017004483E+00
(PID.TID 0000.0001) %MON forcing_qnet_sd              =   3.9956383247608E+01
(PID.TID 0000.0001) %MON forcing_qnet_del2            =   7.9475318361249E-01
(PID.TID 0000.0001) %MON forcing_qsw_max              =   0.0000000000000E+00
(PID.TID 0000.0001) %MON forcing_qsw_min              =   0.0000000000000E+00
(PID.TID 0000.0001) %MON forcing_qsw_mean             =   0.0000000000000E+00
(PID.TID 0000.0001) %MON forcing_qsw_sd               =   0.0000000000000E+00
(PID.TID 0000.0001) %MON forcing_qsw_del2             =   0.0000000000000E+00
(PID.TID 0000.0001) %MON forcing_empmr_max            =   6.8147111657405E-05
(PID.TID 0000.0001) %MON forcing_empmr_min            =  -8.3412878382205E-05
(PID.TID 0000.0001) %MON forcing_empmr_mean           =   3.2625740540304E-07
(PID.TID 0000.0001) %MON forcing_empmr_sd             =   2.5717379388333E-05
(PID.TID 0000.0001) %MON forcing_empmr_del2           =   3.6294743074173E-07
(PID.TID 0000.0001) %MON forcing_fu_max               =   3.5034993290901E-01
(PID.TID 0000.0001) %MON forcing_fu_min               =  -3.9788714051247E-01
(PID.TID 0000.0001) %MON forcing_fu_mean              =   1.9184808331060E-02
(PID.TID 0000.0001) %MON forcing_fu_sd                =   1.0034993850227E-01
(PID.TID 0000.0001) %MON forcing_fu_del2              =   7.8368532274322E-04
(PID.TID 0000.0001) %MON forcing_fv_max               =   1.8234033385913E-01
(PID.TID 0000.0001) %MON forcing_fv_min               =  -1.5925450126330E-01
(PID.TID 0000.0001) %MON forcing_fv_mean              =  -7.1648087163143E-03
(PID.TID 0000.0001) %MON forcing_fv_sd                =   3.9441832348840E-02
(PID.TID 0000.0001) %MON forcing_fv_del2              =   4.3198785440953E-04
(PID.TID 0000.0001) %MON trAdv_CFL_u_max              =   4.2210063722514E-02
(PID.TID 0000.0001) %MON trAdv_CFL_v_max              =   2.5146418535997E-02
(PID.TID 0000.0001) %MON trAdv_CFL_w_max              =   3.5888956216071E-02
(PID.TID 0000.0001) %MON advcfl_uvel_max              =   4.2184240962024E-02
(PID.TID 0000.0001) %MON advcfl_vvel_max              =   2.4312384190343E-02
(PID.TID 0000.0001) %MON advcfl_wvel_max              =   3.9351688642321E-02
(PID.TID 0000.0001) %MON advcfl_W_hf_max              =   4.2245195160139E-02
(PID.TID 0000.0001) %MON pe_b_mean                    =   6.5161288267119E-04
(PID.TID 0000.0001) %MON ke_max                       =   1.3833880416772E-02
(PID.TID 0000.0001) %MON ke_mean                      =   1.2141293007154E-04
(PID.TID 0000.0001) %MON ke_vol                       =   1.3226782436723E+18
(PID.TID 0000.0001) %MON vort_r_min                   =  -3.8778619428302E-07
(PID.TID 0000.0001) %MON vort_r_max                   =   3.7559282362021E-07
(PID.TID 0000.0001) %MON vort_a_mean                  =  -2.5274806996946E-05
(PID.TID 0000.0001) %MON vort_a_sd                    =   7.3604716414612E-05
(PID.TID 0000.0001) %MON vort_p_mean                  =  -3.1845655294846E-05
(PID.TID 0000.0001) %MON vort_p_sd                    =   1.3162503308486E-04
(PID.TID 0000.0001) %MON surfExpan_theta_mean         =   2.5936461180629E-07
(PID.TID 0000.0001) %MON surfExpan_salt_mean          =  -4.9816358437024E-09
(PID.TID 0000.0001) // =======================================================
(PID.TID 0000.0001) // End MONITOR dynamic field statistics
(PID.TID 0000.0001) // =======================================================
 EXTERNAL_FIELDS_LOAD,        86 : iP,iLd,i0,i1=    3    4    3    4 ; Wght=  0.6333333333  0.3666666667
 EXTERNAL_FIELDS_LOAD: (fu0,1),fu,fv= -2.7199E-02 -3.7252E-02 -3.0885E-02 -1.3279E-02
 EXTERNAL_FIELDS_LOAD: SST,SSS,Q,E-P= -1.0352E-01  3.4575E+01  1.7459E+02  8.5998E-06
DEBUG_STATS_RL:          Uvel (THERMODYNAMICS)  min= -1.32199657790246E-01
DEBUG_STATS_RL:          Uvel (THERMODYNAMICS)  max=  1.61356604407760E-01
DEBUG_STATS_RL:          Uvel (THERMODYNAMICS) mean=  6.26816908088901E-03
DEBUG_STATS_RL:          Uvel (THERMODYNAMICS) S.D.=  2.22662091020974E-02
DEBUG_STATS_RL:          Vvel (THERMODYNAMICS)  min= -8.04850644447584E-02
DEBUG_STATS_RL:          Vvel (THERMODYNAMICS)  max=  1.25138400252145E-01
DEBUG_STATS_RL:          Vvel (THERMODYNAMICS) mean=  9.71789291302524E-04
DEBUG_STATS_RL:          Vvel (THERMODYNAMICS) S.D.=  1.29059732300050E-02
DEBUG_STATS_RL:          Wvel (THERMODYNAMICS)  min= -5.67095865135980E-05
DEBUG_STATS_RL:          Wvel (THERMODYNAMICS)  max=  1.68643390407447E-04
DEBUG_STATS_RL:          Wvel (THERMODYNAMICS) mean= -1.30240381566961E-08
DEBUG_STATS_RL:          Wvel (THERMODYNAMICS) S.D.=  8.63488605045582E-06
DEBUG_STATS_RL:         Theta (THERMODYNAMICS)  min= -1.91286992121362E+00
DEBUG_STATS_RL:         Theta (THERMODYNAMICS)  max=  3.00701112349142E+01
DEBUG_STATS_RL:         Theta (THERMODYNAMICS) mean=  3.20969312784220E+00
DEBUG_STATS_RL:         Theta (THERMODYNAMICS) S.D.=  5.87253546261666E+00
DEBUG_STATS_RL:          Salt (THERMODYNAMICS)  min= -6.86350631975874E-04
DEBUG_STATS_RL:          Salt (THERMODYNAMICS)  max=  3.74432926203490E+01
DEBUG_STATS_RL:          Salt (THERMODYNAMICS) mean=  1.88441504395971E+01
DEBUG_STATS_RL:          Salt (THERMODYNAMICS) S.D.=  1.73003734887606E+01
DEBUG_STATS_RL:         GtNm1 (THERMODYNAMICS)  min= -2.15244604256749E-06
DEBUG_STATS_RL:         GtNm1 (THERMODYNAMICS)  max=  1.70474171522275E-06
DEBUG_STATS_RL:         GtNm1 (THERMODYNAMICS) mean= -3.15392768415489E-09
DEBUG_STATS_RL:         GtNm1 (THERMODYNAMICS) S.D.=  1.30783961075496E-07
DEBUG_STATS_RL:         GsNm1 (THERMODYNAMICS)  min= -4.76577153438276E-07
DEBUG_STATS_RL:         GsNm1 (THERMODYNAMICS)  max=  3.46882809704769E-07
DEBUG_STATS_RL:         GsNm1 (THERMODYNAMICS) mean= -6.04871444380597E-11
DEBUG_STATS_RL:         GsNm1 (THERMODYNAMICS) S.D.=  1.21959392584295E-08
DEBUG_STATS_RL:                EtaN (DYNAMICS)  min= -1.93303510535729E+00
DEBUG_STATS_RL:                EtaN (DYNAMICS)  max=  1.17882681967050E+00
DEBUG_STATS_RL:                EtaN (DYNAMICS) mean= -2.07542317430547E-01
DEBUG_STATS_RL:                EtaN (DYNAMICS) S.D.=  8.10164261589822E-01
DEBUG_STATS_RL:                Uvel (DYNAMICS)  min= -1.32199657790246E-01
DEBUG_STATS_RL:                Uvel (DYNAMICS)  max=  1.61356604407760E-01
DEBUG_STATS_RL:                Uvel (DYNAMICS) mean=  6.26816908088901E-03
DEBUG_STATS_RL:                Uvel (DYNAMICS) S.D.=  2.22662091020974E-02
DEBUG_STATS_RL:                Vvel (DYNAMICS)  min= -8.04850644447584E-02
DEBUG_STATS_RL:                Vvel (DYNAMICS)  max=  1.25138400252145E-01
DEBUG_STATS_RL:                Vvel (DYNAMICS) mean=  9.71789291302524E-04
DEBUG_STATS_RL:                Vvel (DYNAMICS) S.D.=  1.29059732300050E-02
DEBUG_STATS_RL:                Wvel (DYNAMICS)  min= -5.67095865135980E-05
DEBUG_STATS_RL:                Wvel (DYNAMICS)  max=  1.68643390407447E-04
DEBUG_STATS_RL:                Wvel (DYNAMICS) mean= -1.30240381566961E-08
DEBUG_STATS_RL:                Wvel (DYNAMICS) S.D.=  8.63488605045582E-06
DEBUG_STATS_RL:               Theta (DYNAMICS)  min= -1.91286992121362E+00
DEBUG_STATS_RL:               Theta (DYNAMICS)  max=  3.00701112349142E+01
DEBUG_STATS_RL:               Theta (DYNAMICS) mean=  3.20969312784220E+00
DEBUG_STATS_RL:               Theta (DYNAMICS) S.D.=  5.87253546261666E+00
DEBUG_STATS_RL:                Salt (DYNAMICS)  min= -6.86350631975874E-04
DEBUG_STATS_RL:                Salt (DYNAMICS)  max=  3.74432926203490E+01
DEBUG_STATS_RL:                Salt (DYNAMICS) mean=  1.88441504395971E+01
DEBUG_STATS_RL:                Salt (DYNAMICS) S.D.=  1.73003734887606E+01
DEBUG_STATS_RL:                  Gu (DYNAMICS)  min= -1.31226388547027E-01
DEBUG_STATS_RL:                  Gu (DYNAMICS)  max=  1.64855109104509E-01
DEBUG_STATS_RL:                  Gu (DYNAMICS) mean=  6.15660604668089E-03
DEBUG_STATS_RL:                  Gu (DYNAMICS) S.D.=  2.25837569605162E-02
DEBUG_STATS_RL:                  Gv (DYNAMICS)  min= -8.19306553232348E-02
DEBUG_STATS_RL:                  Gv (DYNAMICS)  max=  1.34021646913356E-01
DEBUG_STATS_RL:                  Gv (DYNAMICS) mean=  3.57393694525816E-03
DEBUG_STATS_RL:                  Gv (DYNAMICS) S.D.=  1.45900257807293E-02
DEBUG_STATS_RL:               GuNm1 (DYNAMICS)  min= -9.93630548208597E-06
DEBUG_STATS_RL:               GuNm1 (DYNAMICS)  max=  9.16616159511491E-06
DEBUG_STATS_RL:               GuNm1 (DYNAMICS) mean=  5.95405201924280E-09
DEBUG_STATS_RL:               GuNm1 (DYNAMICS) S.D.=  1.21079439422206E-06
DEBUG_STATS_RL:               GvNm1 (DYNAMICS)  min= -9.53338877181790E-06
DEBUG_STATS_RL:               GvNm1 (DYNAMICS)  max=  1.52555786795525E-05
DEBUG_STATS_RL:               GvNm1 (DYNAMICS) mean=  7.41769536585069E-07
DEBUG_STATS_RL:               GvNm1 (DYNAMICS) S.D.=  2.59728744218084E-06
DEBUG_STATS_RL:               GtNm1 (DYNAMICS)  min= -2.15244604256749E-06
DEBUG_STATS_RL:               GtNm1 (DYNAMICS)  max=  1.70474171522275E-06
DEBUG_STATS_RL:               GtNm1 (DYNAMICS) mean= -3.15392768415489E-09
DEBUG_STATS_RL:               GtNm1 (DYNAMICS) S.D.=  1.30783961075496E-07
DEBUG_STATS_RL:               GsNm1 (DYNAMICS)  min= -4.76577153438276E-07
DEBUG_STATS_RL:               GsNm1 (DYNAMICS)  max=  3.46882809704769E-07
DEBUG_STATS_RL:               GsNm1 (DYNAMICS) mean= -6.04871444380597E-11
DEBUG_STATS_RL:               GsNm1 (DYNAMICS) S.D.=  1.21959392584295E-08
DEBUG_STATS_RL:    cg2d_b (SOLVE_FOR_PRESSURE)  min= -2.66863767382839E+04
DEBUG_STATS_RL:    cg2d_b (SOLVE_FOR_PRESSURE)  max=  2.86402198418803E+04
DEBUG_STATS_RL:    cg2d_b (SOLVE_FOR_PRESSURE) mean=  5.45829589970072E+00
DEBUG_STATS_RL:    cg2d_b (SOLVE_FOR_PRESSURE) S.D.=  3.95261740519473E+03
 cg2d: Sum(rhs),rhsMax =   4.41196159721256E-01  1.88116632127569E+00
(PID.TID 0000.0001)  cg2d: iter=     1 ; resid.=  6.30502111205593E-02
(PID.TID 0000.0001)  cg2d: iter=     2 ; resid.=  4.50488261222469E-02
(PID.TID 0000.0001)  cg2d: iter=     3 ; resid.=  3.94526142127851E-02
(PID.TID 0000.0001)  cg2d: iter=     4 ; resid.=  3.95466227652459E-02
(PID.TID 0000.0001)  cg2d: iter=     5 ; resid.=  3.28475980228925E-02
(PID.TID 0000.0001)  cg2d: iter=     6 ; resid.=  2.69400209744697E-02
(PID.TID 0000.0001)  cg2d: iter=     7 ; resid.=  2.32988539559539E-02
(PID.TID 0000.0001)  cg2d: iter=     8 ; resid.=  2.03571171492840E-02
(PID.TID 0000.0001)  cg2d: iter=     9 ; resid.=  1.65602435523489E-02
(PID.TID 0000.0001)  cg2d: iter=    10 ; resid.=  1.33176406348872E-02
(PID.TID 0000.0001)  cg2d: iter=    11 ; resid.=  1.25715979509014E-02
(PID.TID 0000.0001)  cg2d: iter=    12 ; resid.=  1.09221032536410E-02
(PID.TID 0000.0001)  cg2d: iter=    13 ; resid.=  8.73527630222538E-03
(PID.TID 0000.0001)  cg2d: iter=    14 ; resid.=  7.26045576162325E-03
(PID.TID 0000.0001)  cg2d: iter=    15 ; resid.=  6.25412024135838E-03
(PID.TID 0000.0001)  cg2d: iter=    16 ; resid.=  4.91909226087716E-03
(PID.TID 0000.0001)  cg2d: iter=    17 ; resid.=  4.16283531592437E-03
(PID.TID 0000.0001)  cg2d: iter=    18 ; resid.=  3.60117504679632E-03
(PID.TID 0000.0001)  cg2d: iter=    19 ; resid.=  3.09004025218192E-03
(PID.TID 0000.0001)  cg2d: iter=    20 ; resid.=  2.35297068857581E-03
(PID.TID 0000.0001)  cg2d: iter=    21 ; resid.=  1.81577946182531E-03
(PID.TID 0000.0001)  cg2d: iter=    22 ; resid.=  1.42399873054866E-03
(PID.TID 0000.0001)  cg2d: iter=    23 ; resid.=  1.15363127280562E-03
(PID.TID 0000.0001)  cg2d: iter=    24 ; resid.=  9.68864233880815E-04
(PID.TID 0000.0001)  cg2d: iter=    25 ; resid.=  7.93170611462439E-04
(PID.TID 0000.0001)  cg2d: iter=    26 ; resid.=  6.15155819094095E-04
(PID.TID 0000.0001)  cg2d: iter=    27 ; resid.=  5.76759132869813E-04
(PID.TID 0000.0001)  cg2d: iter=    28 ; resid.=  5.34567248557237E-04
(PID.TID 0000.0001)  cg2d: iter=    29 ; resid.=  4.78585691456048E-04
(PID.TID 0000.0001)  cg2d: iter=    30 ; resid.=  3.89823165937954E-04
(PID.TID 0000.0001)  cg2d: iter=    31 ; resid.=  3.08029832306890E-04
(PID.TID 0000.0001)  cg2d: iter=    32 ; resid.=  2.46965504336880E-04
(PID.TID 0000.0001)  cg2d: iter=    33 ; resid.=  1.92914734276250E-04
(PID.TID 0000.0001)  cg2d: iter=    34 ; resid.=  1.57718012657909E-04
(PID.TID 0000.0001)  cg2d: iter=    35 ; resid.=  1.23659558679189E-04
(PID.TID 0000.0001)  cg2d: iter=    36 ; resid.=  9.42828309592125E-05
(PID.TID 0000.0001)  cg2d: iter=    37 ; resid.=  7.94718111866559E-05
(PID.TID 0000.0001)  cg2d: iter=    38 ; resid.=  6.13160465539328E-05
(PID.TID 0000.0001)  cg2d: iter=    39 ; resid.=  4.61133380227468E-05
(PID.TID 0000.0001)  cg2d: iter=    40 ; resid.=  3.72481750489807E-05
(PID.TID 0000.0001)  cg2d: iter=    41 ; resid.=  3.04306728108027E-05
(PID.TID 0000.0001)  cg2d: iter=    42 ; resid.=  2.77950064171059E-05
(PID.TID 0000.0001)  cg2d: iter=    43 ; resid.=  2.61492760151517E-05
(PID.TID 0000.0001)  cg2d: iter=    44 ; resid.=  2.41693685967488E-05
(PID.TID 0000.0001)  cg2d: iter=    45 ; resid.=  2.16861419481323E-05
(PID.TID 0000.0001)  cg2d: iter=    46 ; resid.=  1.97651633537575E-05
(PID.TID 0000.0001)  cg2d: iter=    47 ; resid.=  1.74038132353387E-05
(PID.TID 0000.0001)  cg2d: iter=    48 ; resid.=  1.49057491645686E-05
(PID.TID 0000.0001)  cg2d: iter=    49 ; resid.=  1.17223383429551E-05
(PID.TID 0000.0001)  cg2d: iter=    50 ; resid.=  8.93917600989747E-06
(PID.TID 0000.0001)  cg2d: iter=    51 ; resid.=  7.30459511684346E-06
(PID.TID 0000.0001)  cg2d: iter=    52 ; resid.=  6.09377588437972E-06
(PID.TID 0000.0001)  cg2d: iter=    53 ; resid.=  4.89332153269686E-06
(PID.TID 0000.0001)  cg2d: iter=    54 ; resid.=  3.65308900781377E-06
(PID.TID 0000.0001)  cg2d: iter=    55 ; resid.=  2.89445999440720E-06
(PID.TID 0000.0001)  cg2d: iter=    56 ; resid.=  2.38972917101968E-06
(PID.TID 0000.0001)  cg2d: iter=    57 ; resid.=  1.98124446347953E-06
(PID.TID 0000.0001)  cg2d: iter=    58 ; resid.=  1.66001803986801E-06
(PID.TID 0000.0001)  cg2d: iter=    59 ; resid.=  1.23581478187927E-06
(PID.TID 0000.0001)  cg2d: iter=    60 ; resid.=  1.00146934049564E-06
(PID.TID 0000.0001)  cg2d: iter=    61 ; resid.=  7.86462877284816E-07
(PID.TID 0000.0001)  cg2d: iter=    62 ; resid.=  6.03178202321406E-07
(PID.TID 0000.0001)  cg2d: iter=    63 ; resid.=  4.64120608174694E-07
(PID.TID 0000.0001)  cg2d: iter=    64 ; resid.=  3.68247239188218E-07
(PID.TID 0000.0001)  cg2d: iter=    65 ; resid.=  3.12879680734029E-07
(PID.TID 0000.0001)  cg2d: iter=    66 ; resid.=  2.54153544737766E-07
(PID.TID 0000.0001)  cg2d: iter=    67 ; resid.=  2.07230232202847E-07
(PID.TID 0000.0001)  cg2d: iter=    68 ; resid.=  1.76340635601227E-07
(PID.TID 0000.0001)  cg2d: iter=    69 ; resid.=  1.45304077080814E-07
(PID.TID 0000.0001)  cg2d: iter=    70 ; resid.=  1.25046822003759E-07
(PID.TID 0000.0001)  cg2d: iter=    71 ; resid.=  1.05476269690752E-07
(PID.TID 0000.0001)  cg2d: iter=    72 ; resid.=  9.32800457189224E-08
(PID.TID 0000.0001)  cg2d: iter=    73 ; resid.=  8.13595607980462E-08
(PID.TID 0000.0001)  cg2d: iter=    74 ; resid.=  6.96959503176710E-08
(PID.TID 0000.0001)  cg2d: iter=    75 ; resid.=  5.56105469494516E-08
(PID.TID 0000.0001)  cg2d: iter=    76 ; resid.=  4.28730710363166E-08
(PID.TID 0000.0001)  cg2d: iter=    77 ; resid.=  3.26569855537984E-08
(PID.TID 0000.0001)  cg2d: iter=    78 ; resid.=  2.56534686551534E-08
(PID.TID 0000.0001)  cg2d: iter=    79 ; resid.=  1.91060948093562E-08
(PID.TID 0000.0001)  cg2d: iter=    80 ; resid.=  1.58855658037128E-08
(PID.TID 0000.0001)  cg2d: iter=    81 ; resid.=  1.40197487288620E-08
(PID.TID 0000.0001)  cg2d: iter=    82 ; resid.=  1.08334526546480E-08
(PID.TID 0000.0001)  cg2d: iter=    83 ; resid.=  9.22483523742864E-09
(PID.TID 0000.0001)  cg2d: iter=    84 ; resid.=  7.52061951028799E-09
(PID.TID 0000.0001)  cg2d: iter=    85 ; resid.=  5.63776385851002E-09
(PID.TID 0000.0001)  cg2d: iter=    86 ; resid.=  4.48698119882101E-09
(PID.TID 0000.0001)  cg2d: iter=    87 ; resid.=  3.60093739094345E-09
(PID.TID 0000.0001)  cg2d: iter=    88 ; resid.=  2.93534592496242E-09
(PID.TID 0000.0001)  cg2d: iter=    89 ; resid.=  2.49773471878409E-09
(PID.TID 0000.0001)  cg2d: iter=    90 ; resid.=  2.32156800165593E-09
(PID.TID 0000.0001)  cg2d: iter=    91 ; resid.=  1.92583682980540E-09
(PID.TID 0000.0001)  cg2d: iter=    92 ; resid.=  1.60914784702605E-09
(PID.TID 0000.0001)  cg2d: iter=    93 ; resid.=  1.29865865830614E-09
(PID.TID 0000.0001)  cg2d: iter=    94 ; resid.=  1.05660292969260E-09
(PID.TID 0000.0001)  cg2d: iter=    95 ; resid.=  8.51071378872457E-10
(PID.TID 0000.0001)  cg2d: iter=    96 ; resid.=  6.17088493066825E-10
(PID.TID 0000.0001)  cg2d: iter=    97 ; resid.=  4.54557973431973E-10
(PID.TID 0000.0001)  cg2d: iter=    98 ; resid.=  3.56683876261664E-10
(PID.TID 0000.0001)  cg2d: iter=    99 ; resid.=  2.78931869374887E-10
(PID.TID 0000.0001)  cg2d: iter=   100 ; resid.=  2.09348655886169E-10
(PID.TID 0000.0001)  cg2d: iter=   101 ; resid.=  1.45555819678696E-10
(PID.TID 0000.0001)  cg2d: iter=   102 ; resid.=  1.00013422307307E-10
(PID.TID 0000.0001)  cg2d: iter=   103 ; resid.=  7.13343117836244E-11
(PID.TID 0000.0001)  cg2d: iter=   104 ; resid.=  5.47309700476234E-11
(PID.TID 0000.0001)  cg2d: iter=   105 ; resid.=  4.68654251525007E-11
(PID.TID 0000.0001)  cg2d: iter=   106 ; resid.=  4.04782530464347E-11
(PID.TID 0000.0001)  cg2d: iter=   107 ; resid.=  3.27928975259709E-11
(PID.TID 0000.0001)  cg2d: iter=   108 ; resid.=  2.33107085087092E-11
(PID.TID 0000.0001)  cg2d: iter=   109 ; resid.=  1.78207691319796E-11
(PID.TID 0000.0001)  cg2d: iter=   110 ; resid.=  1.51363029335158E-11
(PID.TID 0000.0001)  cg2d: iter=   111 ; resid.=  1.36646387293815E-11
(PID.TID 0000.0001)  cg2d: iter=   112 ; resid.=  1.10433172787078E-11
(PID.TID 0000.0001)  cg2d: iter=   113 ; resid.=  8.33632399104248E-12
(PID.TID 0000.0001)  cg2d: iter=   114 ; resid.=  6.41825067479557E-12
(PID.TID 0000.0001)  cg2d: iter=   115 ; resid.=  4.79170366815853E-12
(PID.TID 0000.0001)  cg2d: iter=   116 ; resid.=  3.67179272254300E-12
(PID.TID 0000.0001)  cg2d: iter=   117 ; resid.=  2.91131432871299E-12
(PID.TID 0000.0001)  cg2d: iter=   118 ; resid.=  2.09850056653475E-12
(PID.TID 0000.0001)  cg2d: iter=   119 ; resid.=  1.47583014004527E-12
(PID.TID 0000.0001)  cg2d: iter=   120 ; resid.=  1.19830453729987E-12
(PID.TID 0000.0001)  cg2d: iter=   121 ; resid.=  1.03488519679770E-12
(PID.TID 0000.0001)  cg2d: iter=   122 ; resid.=  9.23520779433935E-13
(PID.TID 0000.0001)  cg2d: iter=   123 ; resid.=  7.81273529670123E-13
(PID.TID 0000.0001)  cg2d: iter=   124 ; resid.=  6.14367678974487E-13
(PID.TID 0000.0001)  cg2d: iter=   125 ; resid.=  4.69712579884855E-13
(PID.TID 0000.0001)  cg2d: iter=   126 ; resid.=  3.57981163775171E-13
(PID.TID 0000.0001)  cg2d: iter=   127 ; resid.=  2.35401196321090E-13
(PID.TID 0000.0001)  cg2d: iter=   128 ; resid.=  1.62558406008586E-13
(PID.TID 0000.0001)  cg2d: iter=   129 ; resid.=  1.05099118498427E-13
(PID.TID 0000.0001)  cg2d: iter=   130 ; resid.=  7.25014384610720E-14
DEBUG_STATS_RL:    cg2d_x (SOLVE_FOR_PRESSURE)  min= -1.88418263404535E+01
DEBUG_STATS_RL:    cg2d_x (SOLVE_FOR_PRESSURE)  max=  1.15168687931761E+01
DEBUG_STATS_RL:    cg2d_x (SOLVE_FOR_PRESSURE) mean= -2.03641799327128E+00
DEBUG_STATS_RL:    cg2d_x (SOLVE_FOR_PRESSURE) S.D.=  7.93121136897993E+00
(PID.TID 0000.0001)      cg2d_init_res =   1.96258343012056E-01
(PID.TID 0000.0001)      cg2d_iters(min,last) =      -1     130
(PID.TID 0000.0001)      cg2d_last_res =   7.25014384610720E-14
(PID.TID 0000.0001) // =======================================================
(PID.TID 0000.0001) // Begin MONITOR dynamic field statistics
(PID.TID 0000.0001) // =======================================================
(PID.TID 0000.0001) %MON time_tsnumber                =                    87
(PID.TID 0000.0001) %MON time_secondsf                =   7.5168000000000E+06
(PID.TID 0000.0001) %MON dynstat_eta_max              =   1.1739927414043E+00
(PID.TID 0000.0001) %MON dynstat_eta_min              =  -1.9206754679361E+00
(PID.TID 0000.0001) %MON dynstat_eta_mean             =  -5.6950549649901E-03
(PID.TID 0000.0001) %MON dynstat_eta_sd               =   7.1164080197170E-01
(PID.TID 0000.0001) %MON dynstat_eta_del2             =   2.5035167984058E-03
(PID.TID 0000.0001) %MON dynstat_uvel_max             =   1.6151434385756E-01
(PID.TID 0000.0001) %MON dynstat_uvel_min             =  -1.3243395721094E-01
(PID.TID 0000.0001) %MON dynstat_uvel_mean            =   2.7068859282457E-03
(PID.TID 0000.0001) %MON dynstat_uvel_sd              =   1.4007723793449E-02
(PID.TID 0000.0001) %MON dynstat_uvel_del2            =   8.4751852748941E-05
(PID.TID 0000.0001) %MON dynstat_vvel_max             =   1.2549776352185E-01
(PID.TID 0000.0001) %MON dynstat_vvel_min             =  -8.0287657903072E-02
(PID.TID 0000.0001) %MON dynstat_vvel_mean            =  -2.5135553971591E-05
(PID.TID 0000.0001) %MON dynstat_vvel_sd              =   7.9278000166864E-03
(PID.TID 0000.0001) %MON dynstat_vvel_del2            =   7.3993798389022E-05
(PID.TID 0000.0001) %MON dynstat_wvel_max             =   1.7169084130029E-04
(PID.TID 0000.0001) %MON dynstat_wvel_min             =  -5.6379707946593E-05
(PID.TID 0000.0001) %MON dynstat_wvel_mean            =  -5.5830620634410E-23
(PID.TID 0000.0001) %MON dynstat_wvel_sd              =   9.6361869560525E-06
(PID.TID 0000.0001) %MON dynstat_wvel_del2            =   9.7986088649134E-08
(PID.TID 0000.0001) %MON dynstat_theta_max            =   3.0070111234914E+01
(PID.TID 0000.0001) %MON dynstat_theta_min            =  -1.9128699212136E+00
(PID.TID 0000.0001) %MON dynstat_theta_mean           =   3.6215942239119E+00
(PID.TID 0000.0001) %MON dynstat_theta_sd             =   4.4228684604154E+00
(PID.TID 0000.0001) %MON dynstat_theta_del2           =   4.6151331359693E-03
(PID.TID 0000.0001) %MON dynstat_salt_max             =   3.7443292620349E+01
(PID.TID 0000.0001) %MON dynstat_salt_min             =   2.9887072883221E+01
(PID.TID 0000.0001) %MON dynstat_salt_mean            =   3.4717332906602E+01
(PID.TID 0000.0001) %MON dynstat_salt_sd              =   2.9631003640229E-01
(PID.TID 0000.0001) %MON dynstat_salt_del2            =   9.6274001141519E-04
(PID.TID 0000.0001) %MON dynstat_sst_max              =   3.0070111234914E+01
(PID.TID 0000.0001) %MON dynstat_sst_min              =  -1.9128699212136E+00
(PID.TID 0000.0001) %MON dynstat_sst_mean             =   1.8791173800802E+01
(PID.TID 0000.0001) %MON dynstat_sst_sd               =   9.3484427785773E+00
(PID.TID 0000.0001) %MON dynstat_sst_del2             =   2.3704260842277E-02
(PID.TID 0000.0001) %MON dynstat_sss_max              =   3.7408025836493E+01
(PID.TID 0000.0001) %MON dynstat_sss_min              =   2.9887072883221E+01
(PID.TID 0000.0001) %MON dynstat_sss_mean             =   3.4839339739614E+01
(PID.TID 0000.0001) %MON dynstat_sss_sd               =   9.8439131411147E-01
(PID.TID 0000.0001) %MON dynstat_sss_del2             =   7.6639294149859E-03
(PID.TID 0000.0001) %MON forcing_qnet_max             =   2.2275010782878E+02
(PID.TID 0000.0001) %MON forcing_qnet_min             =  -1.5914763132731E+02
(PID.TID 0000.0001) %MON forcing_qnet_mean            =  -2.8976652714786E+00
(PID.TID 0000.0001) %MON forcing_qnet_sd              =   3.9684988242510E+01
(PID.TID 0000.0001) %MON forcing_qnet_del2            =   7.9160338493799E-01
(PID.TID 0000.0001) %MON forcing_qsw_max              =   0.0000000000000E+00
(PID.TID 0000.0001) %MON forcing_qsw_min              =   0.0000000000000E+00
(PID.TID 0000.0001) %MON forcing_qsw_mean             =   0.0000000000000E+00
(PID.TID 0000.0001) %MON forcing_qsw_sd               =   0.0000000000000E+00
(PID.TID 0000.0001) %MON forcing_qsw_del2             =   0.0000000000000E+00
(PID.TID 0000.0001) %MON forcing_empmr_max            =   6.8050940645511E-05
(PID.TID 0000.0001) %MON forcing_empmr_min            =  -8.3427724462126E-05
(PID.TID 0000.0001) %MON forcing_empmr_mean           =   3.0381204057547E-07
(PID.TID 0000.0001) %MON forcing_empmr_sd             =   2.5679722852412E-05
(PID.TID 0000.0001) %MON forcing_empmr_del2           =   3.6300151295043E-07
(PID.TID 0000.0001) %MON forcing_fu_max               =   3.4985787868500E-01
(PID.TID 0000.0001) %MON forcing_fu_min               =  -3.9882021248341E-01
(PID.TID 0000.0001) %MON forcing_fu_mean              =   1.9057616234127E-02
(PID.TID 0000.0001) %MON forcing_fu_sd                =   1.0030231704399E-01
(PID.TID 0000.0001) %MON forcing_fu_del2              =   7.8085114246442E-04
(PID.TID 0000.0001) %MON forcing_fv_max               =   1.8224433263143E-01
(PID.TID 0000.0001) %MON forcing_fv_min               =  -1.5584678848584E-01
(PID.TID 0000.0001) %MON forcing_fv_mean              =  -7.1283320439412E-03
(PID.TID 0000.0001) %MON forcing_fv_sd                =   3.9251431709163E-02
(PID.TID 0000.0001) %MON forcing_fv_del2              =   4.2751975732847E-04
(PID.TID 0000.0001) %MON trAdv_CFL_u_max              =   4.2192808883070E-02
(PID.TID 0000.0001) %MON trAdv_CFL_v_max              =   2.5470592208724E-02
(PID.TID 0000.0001) %MON trAdv_CFL_w_max              =   3.6829144498583E-02
(PID.TID 0000.0001) %MON advcfl_uvel_max              =   4.2225479552683E-02
(PID.TID 0000.0001) %MON advcfl_vvel_max              =   2.4382202710152E-02
(PID.TID 0000.0001) %MON advcfl_wvel_max              =   3.9985787221994E-02
(PID.TID 0000.0001) %MON advcfl_W_hf_max              =   4.2925918635376E-02
(PID.TID 0000.0001) %MON pe_b_mean                    =   6.4808309592854E-04
(PID.TID 0000.0001) %MON ke_max                       =   1.4069241827589E-02
(PID.TID 0000.0001) %MON ke_mean                      =   1.2068932794257E-04
(PID.TID 0000.0001) %MON ke_vol                       =   1.3226782436723E+18
(PID.TID 0000.0001) %MON vort_r_min                   =  -3.9013032471201E-07
(PID.TID 0000.0001) %MON vort_r_max                   =   3.7739484434502E-07
(PID.TID 0000.0001) %MON vort_a_mean                  =  -2.5274807130351E-05
(PID.TID 0000.0001) %MON vort_a_sd                    =   7.3604709183615E-05
(PID.TID 0000.0001) %MON vort_p_mean                  =  -3.1845655462932E-05
(PID.TID 0000.0001) %MON vort_p_sd                    =   1.3162501537510E-04
(PID.TID 0000.0001) %MON surfExpan_theta_mean         =   8.4863605864443E-08
(PID.TID 0000.0001) %MON surfExpan_salt_mean          =   3.3311046652873E-08
(PID.TID 0000.0001) // =======================================================
(PID.TID 0000.0001) // End MONITOR dynamic field statistics
(PID.TID 0000.0001) // =======================================================
 EXTERNAL_FIELDS_LOAD,        87 : iP,iLd,i0,i1=    3    4    3    4 ; Wght=  0.6000000000  0.4000000000
 EXTERNAL_FIELDS_LOAD: (fu0,1),fu,fv= -2.7199E-02 -3.7252E-02 -3.1220E-02 -1.4433E-02
 EXTERNAL_FIELDS_LOAD: SST,SSS,Q,E-P= -9.6208E-02  3.4575E+01  1.7088E+02  8.5561E-06
DEBUG_STATS_RL:          Uvel (THERMODYNAMICS)  min= -1.32433957210944E-01
DEBUG_STATS_RL:          Uvel (THERMODYNAMICS)  max=  1.61514343857556E-01
DEBUG_STATS_RL:          Uvel (THERMODYNAMICS) mean=  6.21500117365938E-03
DEBUG_STATS_RL:          Uvel (THERMODYNAMICS) S.D.=  2.21890576098230E-02
DEBUG_STATS_RL:          Vvel (THERMODYNAMICS)  min= -8.02876579030721E-02
DEBUG_STATS_RL:          Vvel (THERMODYNAMICS)  max=  1.25497763521848E-01
DEBUG_STATS_RL:          Vvel (THERMODYNAMICS) mean=  9.70599555984883E-04
DEBUG_STATS_RL:          Vvel (THERMODYNAMICS) S.D.=  1.29030711172990E-02
DEBUG_STATS_RL:          Wvel (THERMODYNAMICS)  min= -5.63797079465926E-05
DEBUG_STATS_RL:          Wvel (THERMODYNAMICS)  max=  1.71690841300290E-04
DEBUG_STATS_RL:          Wvel (THERMODYNAMICS) mean= -1.32928040056838E-08
DEBUG_STATS_RL:          Wvel (THERMODYNAMICS) S.D.=  8.58315651827959E-06
DEBUG_STATS_RL:         Theta (THERMODYNAMICS)  min= -1.91150466165050E+00
DEBUG_STATS_RL:         Theta (THERMODYNAMICS)  max=  3.00743574133826E+01
DEBUG_STATS_RL:         Theta (THERMODYNAMICS) mean=  3.20948489720881E+00
DEBUG_STATS_RL:         Theta (THERMODYNAMICS) S.D.=  5.87254878848338E+00
DEBUG_STATS_RL:          Salt (THERMODYNAMICS)  min= -6.86350631975874E-04
DEBUG_STATS_RL:          Salt (THERMODYNAMICS)  max=  3.74431425718501E+01
DEBUG_STATS_RL:          Salt (THERMODYNAMICS) mean=  1.88441489563892E+01
DEBUG_STATS_RL:          Salt (THERMODYNAMICS) S.D.=  1.73003726064589E+01
DEBUG_STATS_RL:         GtNm1 (THERMODYNAMICS)  min= -2.22759796205098E-06
DEBUG_STATS_RL:         GtNm1 (THERMODYNAMICS)  max=  1.80159335518731E-06
DEBUG_STATS_RL:         GtNm1 (THERMODYNAMICS) mean= -3.18160362268563E-09
DEBUG_STATS_RL:         GtNm1 (THERMODYNAMICS) S.D.=  1.30852524612906E-07
DEBUG_STATS_RL:         GsNm1 (THERMODYNAMICS)  min= -4.21471533847123E-07
DEBUG_STATS_RL:         GsNm1 (THERMODYNAMICS)  max=  2.99065419967206E-07
DEBUG_STATS_RL:         GsNm1 (THERMODYNAMICS) mean= -9.58992165601808E-11
DEBUG_STATS_RL:         GsNm1 (THERMODYNAMICS) S.D.=  1.23055707200216E-08
DEBUG_STATS_RL:                EtaN (DYNAMICS)  min= -1.92067546793608E+00
DEBUG_STATS_RL:                EtaN (DYNAMICS)  max=  1.17399274140429E+00
DEBUG_STATS_RL:                EtaN (DYNAMICS) mean= -2.07585932035809E-01
DEBUG_STATS_RL:                EtaN (DYNAMICS) S.D.=  8.08482300609576E-01
DEBUG_STATS_RL:                Uvel (DYNAMICS)  min= -1.32433957210944E-01
DEBUG_STATS_RL:                Uvel (DYNAMICS)  max=  1.61514343857556E-01
DEBUG_STATS_RL:                Uvel (DYNAMICS) mean=  6.21500117365938E-03
DEBUG_STATS_RL:                Uvel (DYNAMICS) S.D.=  2.21890576098230E-02
DEBUG_STATS_RL:                Vvel (DYNAMICS)  min= -8.02876579030721E-02
DEBUG_STATS_RL:                Vvel (DYNAMICS)  max=  1.25497763521848E-01
DEBUG_STATS_RL:                Vvel (DYNAMICS) mean=  9.70599555984883E-04
DEBUG_STATS_RL:                Vvel (DYNAMICS) S.D.=  1.29030711172990E-02
DEBUG_STATS_RL:                Wvel (DYNAMICS)  min= -5.63797079465926E-05
DEBUG_STATS_RL:                Wvel (DYNAMICS)  max=  1.71690841300290E-04
DEBUG_STATS_RL:                Wvel (DYNAMICS) mean= -1.32928040056838E-08
DEBUG_STATS_RL:                Wvel (DYNAMICS) S.D.=  8.58315651827959E-06
DEBUG_STATS_RL:               Theta (DYNAMICS)  min= -1.91150466165050E+00
DEBUG_STATS_RL:               Theta (DYNAMICS)  max=  3.00743574133826E+01
DEBUG_STATS_RL:               Theta (DYNAMICS) mean=  3.20948489720881E+00
DEBUG_STATS_RL:               Theta (DYNAMICS) S.D.=  5.87254878848338E+00
DEBUG_STATS_RL:                Salt (DYNAMICS)  min= -6.86350631975874E-04
DEBUG_STATS_RL:                Salt (DYNAMICS)  max=  3.74431425718501E+01
DEBUG_STATS_RL:                Salt (DYNAMICS) mean=  1.88441489563892E+01
DEBUG_STATS_RL:                Salt (DYNAMICS) S.D.=  1.73003726064589E+01
DEBUG_STATS_RL:                  Gu (DYNAMICS)  min= -1.31448359189620E-01
DEBUG_STATS_RL:                  Gu (DYNAMICS)  max=  1.62889225535948E-01
DEBUG_STATS_RL:                  Gu (DYNAMICS) mean=  6.10985971709079E-03
DEBUG_STATS_RL:                  Gu (DYNAMICS) S.D.=  2.25120978107952E-02
DEBUG_STATS_RL:                  Gv (DYNAMICS)  min= -7.89774854821692E-02
DEBUG_STATS_RL:                  Gv (DYNAMICS)  max=  1.35026082045105E-01
DEBUG_STATS_RL:                  Gv (DYNAMICS) mean=  3.57113676817762E-03
DEBUG_STATS_RL:                  Gv (DYNAMICS) S.D.=  1.45738006176973E-02
DEBUG_STATS_RL:               GuNm1 (DYNAMICS)  min= -9.86061219214453E-06
DEBUG_STATS_RL:               GuNm1 (DYNAMICS)  max=  9.14131176259452E-06
DEBUG_STATS_RL:               GuNm1 (DYNAMICS) mean=  6.37389289106910E-09
DEBUG_STATS_RL:               GuNm1 (DYNAMICS) S.D.=  1.21129300823268E-06
DEBUG_STATS_RL:               GvNm1 (DYNAMICS)  min= -9.51056807957708E-06
DEBUG_STATS_RL:               GvNm1 (DYNAMICS)  max=  1.52209297378821E-05
DEBUG_STATS_RL:               GvNm1 (DYNAMICS) mean=  7.41676227798101E-07
DEBUG_STATS_RL:               GvNm1 (DYNAMICS) S.D.=  2.59637419892890E-06
DEBUG_STATS_RL:               GtNm1 (DYNAMICS)  min= -2.22759796205098E-06
DEBUG_STATS_RL:               GtNm1 (DYNAMICS)  max=  1.80159335518731E-06
DEBUG_STATS_RL:               GtNm1 (DYNAMICS) mean= -3.18160362268563E-09
DEBUG_STATS_RL:               GtNm1 (DYNAMICS) S.D.=  1.30852524612906E-07
DEBUG_STATS_RL:               GsNm1 (DYNAMICS)  min= -4.21471533847123E-07
DEBUG_STATS_RL:               GsNm1 (DYNAMICS)  max=  2.99065419967206E-07
DEBUG_STATS_RL:               GsNm1 (DYNAMICS) mean= -9.58992165601808E-11
DEBUG_STATS_RL:               GsNm1 (DYNAMICS) S.D.=  1.23055707200216E-08
DEBUG_STATS_RL:    cg2d_b (SOLVE_FOR_PRESSURE)  min= -2.68899748109561E+04
DEBUG_STATS_RL:    cg2d_b (SOLVE_FOR_PRESSURE)  max=  2.87119483899171E+04
DEBUG_STATS_RL:    cg2d_b (SOLVE_FOR_PRESSURE) mean=  5.48080743980340E+00
DEBUG_STATS_RL:    cg2d_b (SOLVE_FOR_PRESSURE) S.D.=  3.95577071590670E+03
 cg2d: Sum(rhs),rhsMax =   4.41909028632816E-01  1.88587764435861E+00
(PID.TID 0000.0001)  cg2d: iter=     1 ; resid.=  6.44894289067460E-02
(PID.TID 0000.0001)  cg2d: iter=     2 ; resid.=  5.11975921957497E-02
(PID.TID 0000.0001)  cg2d: iter=     3 ; resid.=  5.03044673929024E-02
(PID.TID 0000.0001)  cg2d: iter=     4 ; resid.=  5.29021272002203E-02
(PID.TID 0000.0001)  cg2d: iter=     5 ; resid.=  4.39381709851206E-02
(PID.TID 0000.0001)  cg2d: iter=     6 ; resid.=  3.83047684701158E-02
(PID.TID 0000.0001)  cg2d: iter=     7 ; resid.=  3.26574919719407E-02
(PID.TID 0000.0001)  cg2d: iter=     8 ; resid.=  2.69415365028067E-02
(PID.TID 0000.0001)  cg2d: iter=     9 ; resid.=  2.05885260460089E-02
(PID.TID 0000.0001)  cg2d: iter=    10 ; resid.=  1.56595333076744E-02
(PID.TID 0000.0001)  cg2d: iter=    11 ; resid.=  1.33931715769844E-02
(PID.TID 0000.0001)  cg2d: iter=    12 ; resid.=  1.14755123538991E-02
(PID.TID 0000.0001)  cg2d: iter=    13 ; resid.=  9.34038593803036E-03
(PID.TID 0000.0001)  cg2d: iter=    14 ; resid.=  7.91335188859932E-03
(PID.TID 0000.0001)  cg2d: iter=    15 ; resid.=  6.47765459429542E-03
(PID.TID 0000.0001)  cg2d: iter=    16 ; resid.=  5.21003028688764E-03
(PID.TID 0000.0001)  cg2d: iter=    17 ; resid.=  4.58737792515416E-03
(PID.TID 0000.0001)  cg2d: iter=    18 ; resid.=  4.04246486638958E-03
(PID.TID 0000.0001)  cg2d: iter=    19 ; resid.=  3.44415097728234E-03
(PID.TID 0000.0001)  cg2d: iter=    20 ; resid.=  2.67151072663035E-03
(PID.TID 0000.0001)  cg2d: iter=    21 ; resid.=  2.16387151285934E-03
(PID.TID 0000.0001)  cg2d: iter=    22 ; resid.=  1.82322312317036E-03
(PID.TID 0000.0001)  cg2d: iter=    23 ; resid.=  1.56030263337501E-03
(PID.TID 0000.0001)  cg2d: iter=    24 ; resid.=  1.35446493071354E-03
(PID.TID 0000.0001)  cg2d: iter=    25 ; resid.=  1.09691589735025E-03
(PID.TID 0000.0001)  cg2d: iter=    26 ; resid.=  8.26883197011329E-04
(PID.TID 0000.0001)  cg2d: iter=    27 ; resid.=  7.30067700041171E-04
(PID.TID 0000.0001)  cg2d: iter=    28 ; resid.=  6.24778462644473E-04
(PID.TID 0000.0001)  cg2d: iter=    29 ; resid.=  5.17472406772703E-04
(PID.TID 0000.0001)  cg2d: iter=    30 ; resid.=  4.03033026025252E-04
(PID.TID 0000.0001)  cg2d: iter=    31 ; resid.=  3.16689303313927E-04
(PID.TID 0000.0001)  cg2d: iter=    32 ; resid.=  2.45408621147586E-04
(PID.TID 0000.0001)  cg2d: iter=    33 ; resid.=  1.84648418088951E-04
(PID.TID 0000.0001)  cg2d: iter=    34 ; resid.=  1.51655287955567E-04
(PID.TID 0000.0001)  cg2d: iter=    35 ; resid.=  1.22575089765071E-04
(PID.TID 0000.0001)  cg2d: iter=    36 ; resid.=  9.74961257776461E-05
(PID.TID 0000.0001)  cg2d: iter=    37 ; resid.=  8.56744221825428E-05
(PID.TID 0000.0001)  cg2d: iter=    38 ; resid.=  6.93225311419435E-05
(PID.TID 0000.0001)  cg2d: iter=    39 ; resid.=  5.86459575628050E-05
(PID.TID 0000.0001)  cg2d: iter=    40 ; resid.=  5.10707224144529E-05
(PID.TID 0000.0001)  cg2d: iter=    41 ; resid.=  4.21534378507033E-05
(PID.TID 0000.0001)  cg2d: iter=    42 ; resid.=  3.59365118234008E-05
(PID.TID 0000.0001)  cg2d: iter=    43 ; resid.=  3.08222122657434E-05
(PID.TID 0000.0001)  cg2d: iter=    44 ; resid.=  2.56706139495524E-05
(PID.TID 0000.0001)  cg2d: iter=    45 ; resid.=  2.04080153825627E-05
(PID.TID 0000.0001)  cg2d: iter=    46 ; resid.=  1.63849720174737E-05
(PID.TID 0000.0001)  cg2d: iter=    47 ; resid.=  1.32248146626587E-05
(PID.TID 0000.0001)  cg2d: iter=    48 ; resid.=  1.11010945181612E-05
(PID.TID 0000.0001)  cg2d: iter=    49 ; resid.=  9.24124556923805E-06
(PID.TID 0000.0001)  cg2d: iter=    50 ; resid.=  7.68957886159823E-06
(PID.TID 0000.0001)  cg2d: iter=    51 ; resid.=  6.87928813149977E-06
(PID.TID 0000.0001)  cg2d: iter=    52 ; resid.=  6.40055097880457E-06
(PID.TID 0000.0001)  cg2d: iter=    53 ; resid.=  5.76032595523897E-06
(PID.TID 0000.0001)  cg2d: iter=    54 ; resid.=  4.70782908781479E-06
(PID.TID 0000.0001)  cg2d: iter=    55 ; resid.=  4.03040791641934E-06
(PID.TID 0000.0001)  cg2d: iter=    56 ; resid.=  3.46248531073350E-06
(PID.TID 0000.0001)  cg2d: iter=    57 ; resid.=  2.94327751651881E-06
(PID.TID 0000.0001)  cg2d: iter=    58 ; resid.=  2.50140039270977E-06
(PID.TID 0000.0001)  cg2d: iter=    59 ; resid.=  1.93141282287850E-06
(PID.TID 0000.0001)  cg2d: iter=    60 ; resid.=  1.61635231188512E-06
(PID.TID 0000.0001)  cg2d: iter=    61 ; resid.=  1.27263019670775E-06
(PID.TID 0000.0001)  cg2d: iter=    62 ; resid.=  9.76201649293211E-07
(PID.TID 0000.0001)  cg2d: iter=    63 ; resid.=  7.82079425986949E-07
(PID.TID 0000.0001)  cg2d: iter=    64 ; resid.=  6.58060101184946E-07
(PID.TID 0000.0001)  cg2d: iter=    65 ; resid.=  5.66700881557227E-07
(PID.TID 0000.0001)  cg2d: iter=    66 ; resid.=  4.54385452554801E-07
(PID.TID 0000.0001)  cg2d: iter=    67 ; resid.=  3.68455640781716E-07
(PID.TID 0000.0001)  cg2d: iter=    68 ; resid.=  3.22032843875200E-07
(PID.TID 0000.0001)  cg2d: iter=    69 ; resid.=  2.69870665301927E-07
(PID.TID 0000.0001)  cg2d: iter=    70 ; resid.=  2.27937707762620E-07
(PID.TID 0000.0001)  cg2d: iter=    71 ; resid.=  1.95669849765133E-07
(PID.TID 0000.0001)  cg2d: iter=    72 ; resid.=  1.77638067044176E-07
(PID.TID 0000.0001)  cg2d: iter=    73 ; resid.=  1.56605817522086E-07
(PID.TID 0000.0001)  cg2d: iter=    74 ; resid.=  1.32525198673892E-07
(PID.TID 0000.0001)  cg2d: iter=    75 ; resid.=  1.04101608507264E-07
(PID.TID 0000.0001)  cg2d: iter=    76 ; resid.=  8.25610808297346E-08
(PID.TID 0000.0001)  cg2d: iter=    77 ; resid.=  6.68091678549923E-08
(PID.TID 0000.0001)  cg2d: iter=    78 ; resid.=  5.58792410780466E-08
(PID.TID 0000.0001)  cg2d: iter=    79 ; resid.=  4.30967126445812E-08
(PID.TID 0000.0001)  cg2d: iter=    80 ; resid.=  3.49890759402975E-08
(PID.TID 0000.0001)  cg2d: iter=    81 ; resid.=  2.90257015477829E-08
(PID.TID 0000.0001)  cg2d: iter=    82 ; resid.=  2.14264824873522E-08
(PID.TID 0000.0001)  cg2d: iter=    83 ; resid.=  1.69260745294581E-08
(PID.TID 0000.0001)  cg2d: iter=    84 ; resid.=  1.22045279157064E-08
(PID.TID 0000.0001)  cg2d: iter=    85 ; resid.=  8.97384595020154E-09
(PID.TID 0000.0001)  cg2d: iter=    86 ; resid.=  7.43184760890090E-09
(PID.TID 0000.0001)  cg2d: iter=    87 ; resid.=  6.14477497525591E-09
(PID.TID 0000.0001)  cg2d: iter=    88 ; resid.=  4.87316298168896E-09
(PID.TID 0000.0001)  cg2d: iter=    89 ; resid.=  4.00641660328557E-09
(PID.TID 0000.0001)  cg2d: iter=    90 ; resid.=  3.50496766624020E-09
(PID.TID 0000.0001)  cg2d: iter=    91 ; resid.=  2.73815273944815E-09
(PID.TID 0000.0001)  cg2d: iter=    92 ; resid.=  2.19234291515886E-09
(PID.TID 0000.0001)  cg2d: iter=    93 ; resid.=  1.72362890217437E-09
(PID.TID 0000.0001)  cg2d: iter=    94 ; resid.=  1.35986550524767E-09
(PID.TID 0000.0001)  cg2d: iter=    95 ; resid.=  1.06419739698400E-09
(PID.TID 0000.0001)  cg2d: iter=    96 ; resid.=  8.01598140776480E-10
(PID.TID 0000.0001)  cg2d: iter=    97 ; resid.=  6.53455523668483E-10
(PID.TID 0000.0001)  cg2d: iter=    98 ; resid.=  5.78212545134810E-10
(PID.TID 0000.0001)  cg2d: iter=    99 ; resid.=  5.01810670068881E-10
(PID.TID 0000.0001)  cg2d: iter=   100 ; resid.=  4.23818040104980E-10
(PID.TID 0000.0001)  cg2d: iter=   101 ; resid.=  3.32782172657769E-10
(PID.TID 0000.0001)  cg2d: iter=   102 ; resid.=  2.68190019619388E-10
(PID.TID 0000.0001)  cg2d: iter=   103 ; resid.=  2.20887858247028E-10
(PID.TID 0000.0001)  cg2d: iter=   104 ; resid.=  1.83346927626635E-10
(PID.TID 0000.0001)  cg2d: iter=   105 ; resid.=  1.51113619621664E-10
(PID.TID 0000.0001)  cg2d: iter=   106 ; resid.=  1.11117881817473E-10
(PID.TID 0000.0001)  cg2d: iter=   107 ; resid.=  7.70960400364855E-11
(PID.TID 0000.0001)  cg2d: iter=   108 ; resid.=  5.10780877812493E-11
(PID.TID 0000.0001)  cg2d: iter=   109 ; resid.=  3.71715707619532E-11
(PID.TID 0000.0001)  cg2d: iter=   110 ; resid.=  2.93568032739070E-11
(PID.TID 0000.0001)  cg2d: iter=   111 ; resid.=  2.31559254480641E-11
(PID.TID 0000.0001)  cg2d: iter=   112 ; resid.=  1.66962406870433E-11
(PID.TID 0000.0001)  cg2d: iter=   113 ; resid.=  1.15505674717667E-11
(PID.TID 0000.0001)  cg2d: iter=   114 ; resid.=  8.53034672592840E-12
(PID.TID 0000.0001)  cg2d: iter=   115 ; resid.=  6.28876770830556E-12
(PID.TID 0000.0001)  cg2d: iter=   116 ; resid.=  4.73511276239390E-12
(PID.TID 0000.0001)  cg2d: iter=   117 ; resid.=  3.81673257175884E-12
(PID.TID 0000.0001)  cg2d: iter=   118 ; resid.=  2.86312702604754E-12
(PID.TID 0000.0001)  cg2d: iter=   119 ; resid.=  2.08317366093682E-12
(PID.TID 0000.0001)  cg2d: iter=   120 ; resid.=  1.66619020015651E-12
(PID.TID 0000.0001)  cg2d: iter=   121 ; resid.=  1.32955217389985E-12
(PID.TID 0000.0001)  cg2d: iter=   122 ; resid.=  1.11644758013538E-12
(PID.TID 0000.0001)  cg2d: iter=   123 ; resid.=  9.28257933967738E-13
(PID.TID 0000.0001)  cg2d: iter=   124 ; resid.=  7.07868182869183E-13
(PID.TID 0000.0001)  cg2d: iter=   125 ; resid.=  5.16504581273191E-13
(PID.TID 0000.0001)  cg2d: iter=   126 ; resid.=  3.83304464524229E-13
(PID.TID 0000.0001)  cg2d: iter=   127 ; resid.=  2.56563563230654E-13
(PID.TID 0000.0001)  cg2d: iter=   128 ; resid.=  1.86537603166136E-13
(PID.TID 0000.0001)  cg2d: iter=   129 ; resid.=  1.23720532774110E-13
(PID.TID 0000.0001)  cg2d: iter=   130 ; resid.=  8.56332035636846E-14
DEBUG_STATS_RL:    cg2d_x (SOLVE_FOR_PRESSURE)  min= -1.87096705269734E+01
DEBUG_STATS_RL:    cg2d_x (SOLVE_FOR_PRESSURE)  max=  1.13602506542709E+01
DEBUG_STATS_RL:    cg2d_x (SOLVE_FOR_PRESSURE) mean= -2.02974196164770E+00
DEBUG_STATS_RL:    cg2d_x (SOLVE_FOR_PRESSURE) S.D.=  7.87349116663809E+00
(PID.TID 0000.0001)      cg2d_init_res =   1.95969976288201E-01
(PID.TID 0000.0001)      cg2d_iters(min,last) =      -1     130
(PID.TID 0000.0001)      cg2d_last_res =   8.56332035636846E-14
(PID.TID 0000.0001) // =======================================================
(PID.TID 0000.0001) // Begin MONITOR dynamic field statistics
(PID.TID 0000.0001) // =======================================================
(PID.TID 0000.0001) %MON time_tsnumber                =                    88
(PID.TID 0000.0001) %MON time_secondsf                =   7.6032000000000E+06
(PID.TID 0000.0001) %MON dynstat_eta_max              =   1.1580275896301E+00
(PID.TID 0000.0001) %MON dynstat_eta_min              =  -1.9072039273164E+00
(PID.TID 0000.0001) %MON dynstat_eta_mean             =  -5.7185429657480E-03
(PID.TID 0000.0001) %MON dynstat_eta_sd               =   7.0520524485332E-01
(PID.TID 0000.0001) %MON dynstat_eta_del2             =   2.5069469724055E-03
(PID.TID 0000.0001) %MON dynstat_uvel_max             =   1.6098213253943E-01
(PID.TID 0000.0001) %MON dynstat_uvel_min             =  -1.3253556603893E-01
(PID.TID 0000.0001) %MON dynstat_uvel_mean            =   2.6673696330288E-03
(PID.TID 0000.0001) %MON dynstat_uvel_sd              =   1.3961023520986E-02
(PID.TID 0000.0001) %MON dynstat_uvel_del2            =   8.5226835764608E-05
(PID.TID 0000.0001) %MON dynstat_vvel_max             =   1.2468725292834E-01
(PID.TID 0000.0001) %MON dynstat_vvel_min             =  -7.9912542113133E-02
(PID.TID 0000.0001) %MON dynstat_vvel_mean            =  -6.9395475490472E-06
(PID.TID 0000.0001) %MON dynstat_vvel_sd              =   7.9340967803583E-03
(PID.TID 0000.0001) %MON dynstat_vvel_del2            =   7.4171915898056E-05
(PID.TID 0000.0001) %MON dynstat_wvel_max             =   1.7294169009694E-04
(PID.TID 0000.0001) %MON dynstat_wvel_min             =  -5.5867865028030E-05
(PID.TID 0000.0001) %MON dynstat_wvel_mean            =   1.4103340457853E-23
(PID.TID 0000.0001) %MON dynstat_wvel_sd              =   9.5977619461128E-06
(PID.TID 0000.0001) %MON dynstat_wvel_del2            =   9.7548379066079E-08
(PID.TID 0000.0001) %MON dynstat_theta_max            =   3.0074357413383E+01
(PID.TID 0000.0001) %MON dynstat_theta_min            =  -1.9115046616505E+00
(PID.TID 0000.0001) %MON dynstat_theta_mean           =   3.6215902408834E+00
(PID.TID 0000.0001) %MON dynstat_theta_sd             =   4.4229168291726E+00
(PID.TID 0000.0001) %MON dynstat_theta_del2           =   4.6091098111357E-03
(PID.TID 0000.0001) %MON dynstat_salt_max             =   3.7443142571850E+01
(PID.TID 0000.0001) %MON dynstat_salt_min             =   2.9888791569184E+01
(PID.TID 0000.0001) %MON dynstat_salt_mean            =   3.4717332960593E+01
(PID.TID 0000.0001) %MON dynstat_salt_sd              =   2.9630854414309E-01
(PID.TID 0000.0001) %MON dynstat_salt_del2            =   9.6230941017406E-04
(PID.TID 0000.0001) %MON dynstat_sst_max              =   3.0074357413383E+01
(PID.TID 0000.0001) %MON dynstat_sst_min              =  -1.9115046616505E+00
(PID.TID 0000.0001) %MON dynstat_sst_mean             =   1.8786933190046E+01
(PID.TID 0000.0001) %MON dynstat_sst_sd               =   9.3568083602124E+00
(PID.TID 0000.0001) %MON dynstat_sst_del2             =   2.3649697504215E-02
(PID.TID 0000.0001) %MON dynstat_sss_max              =   3.7407793115331E+01
(PID.TID 0000.0001) %MON dynstat_sss_min              =   2.9888791569184E+01
(PID.TID 0000.0001) %MON dynstat_sss_mean             =   3.4839295914148E+01
(PID.TID 0000.0001) %MON dynstat_sss_sd               =   9.8466873963711E-01
(PID.TID 0000.0001) %MON dynstat_sss_del2             =   7.6607427042761E-03
(PID.TID 0000.0001) %MON forcing_qnet_max             =   2.1804487304688E+02
(PID.TID 0000.0001) %MON forcing_qnet_min             =  -1.5871963500977E+02
(PID.TID 0000.0001) %MON forcing_qnet_mean            =  -2.5006288425090E+00
(PID.TID 0000.0001) %MON forcing_qnet_sd              =   3.9492057446070E+01
(PID.TID 0000.0001) %MON forcing_qnet_del2            =   7.8895928517454E-01
(PID.TID 0000.0001) %MON forcing_qsw_max              =   0.0000000000000E+00
(PID.TID 0000.0001) %MON forcing_qsw_min              =   0.0000000000000E+00
(PID.TID 0000.0001) %MON forcing_qsw_mean             =   0.0000000000000E+00
(PID.TID 0000.0001) %MON forcing_qsw_sd               =   0.0000000000000E+00
(PID.TID 0000.0001) %MON forcing_qsw_del2             =   0.0000000000000E+00
(PID.TID 0000.0001) %MON forcing_empmr_max            =   6.7954769633616E-05
(PID.TID 0000.0001) %MON forcing_empmr_min            =  -8.3442570542047E-05
(PID.TID 0000.0001) %MON forcing_empmr_mean           =   2.8136667574790E-07
(PID.TID 0000.0001) %MON forcing_empmr_sd             =   2.5645681839636E-05
(PID.TID 0000.0001) %MON forcing_empmr_del2           =   3.6313018392051E-07
(PID.TID 0000.0001) %MON forcing_fu_max               =   3.4936582446098E-01
(PID.TID 0000.0001) %MON forcing_fu_min               =  -3.9975328445435E-01
(PID.TID 0000.0001) %MON forcing_fu_mean              =   1.8930424137194E-02
(PID.TID 0000.0001) %MON forcing_fu_sd                =   1.0027877528737E-01
(PID.TID 0000.0001) %MON forcing_fu_del2              =   7.7872447127255E-04
(PID.TID 0000.0001) %MON forcing_fv_max               =   1.8214833140373E-01
(PID.TID 0000.0001) %MON forcing_fv_min               =  -1.5243907570839E-01
(PID.TID 0000.0001) %MON forcing_fv_mean              =  -7.0918553715682E-03
(PID.TID 0000.0001) %MON forcing_fv_sd                =   3.9087205962164E-02
(PID.TID 0000.0001) %MON forcing_fv_del2              =   4.2370613844542E-04
(PID.TID 0000.0001) %MON trAdv_CFL_u_max              =   4.2234055849582E-02
(PID.TID 0000.0001) %MON trAdv_CFL_v_max              =   2.5543736785280E-02
(PID.TID 0000.0001) %MON trAdv_CFL_w_max              =   3.7422595733404E-02
(PID.TID 0000.0001) %MON advcfl_uvel_max              =   4.2086340962299E-02
(PID.TID 0000.0001) %MON advcfl_vvel_max              =   2.4224733500861E-02
(PID.TID 0000.0001) %MON advcfl_wvel_max              =   4.0222058014330E-02
(PID.TID 0000.0001) %MON advcfl_W_hf_max              =   4.3179562280089E-02
(PID.TID 0000.0001) %MON pe_b_mean                    =   6.3641561113994E-04
(PID.TID 0000.0001) %MON ke_max                       =   1.4158727775130E-02
(PID.TID 0000.0001) %MON ke_mean                      =   1.2004401974790E-04
(PID.TID 0000.0001) %MON ke_vol                       =   1.3226782436723E+18
(PID.TID 0000.0001) %MON vort_r_min                   =  -3.9111843178010E-07
(PID.TID 0000.0001) %MON vort_r_max                   =   3.7957290012411E-07
(PID.TID 0000.0001) %MON vort_a_mean                  =  -2.5274807250606E-05
(PID.TID 0000.0001) %MON vort_a_sd                    =   7.3604700443070E-05
(PID.TID 0000.0001) %MON vort_p_mean                  =  -3.1845655614450E-05
(PID.TID 0000.0001) %MON vort_p_sd                    =   1.3162499997463E-04
(PID.TID 0000.0001) %MON surfExpan_theta_mean         =  -7.6110703006411E-08
(PID.TID 0000.0001) %MON surfExpan_salt_mean          =   7.0265669993445E-08
(PID.TID 0000.0001) // =======================================================
(PID.TID 0000.0001) // End MONITOR dynamic field statistics
(PID.TID 0000.0001) // =======================================================
 EXTERNAL_FIELDS_LOAD,        88 : iP,iLd,i0,i1=    3    4    3    4 ; Wght=  0.5666666667  0.4333333333
 EXTERNAL_FIELDS_LOAD: (fu0,1),fu,fv= -2.7199E-02 -3.7252E-02 -3.1555E-02 -1.5588E-02
 EXTERNAL_FIELDS_LOAD: SST,SSS,Q,E-P= -8.8900E-02  3.4575E+01  1.6717E+02  8.5124E-06
DEBUG_STATS_RL:          Uvel (THERMODYNAMICS)  min= -1.32535566038927E-01
DEBUG_STATS_RL:          Uvel (THERMODYNAMICS)  max=  1.60982132539430E-01
DEBUG_STATS_RL:          Uvel (THERMODYNAMICS) mean=  6.15792948554825E-03
DEBUG_STATS_RL:          Uvel (THERMODYNAMICS) S.D.=  2.21277412784776E-02
DEBUG_STATS_RL:          Vvel (THERMODYNAMICS)  min= -7.99125421131332E-02
DEBUG_STATS_RL:          Vvel (THERMODYNAMICS)  max=  1.24687252928344E-01
DEBUG_STATS_RL:          Vvel (THERMODYNAMICS) mean=  9.71185763567612E-04
DEBUG_STATS_RL:          Vvel (THERMODYNAMICS) S.D.=  1.29036949696291E-02
DEBUG_STATS_RL:          Wvel (THERMODYNAMICS)  min= -5.58678650280298E-05
DEBUG_STATS_RL:          Wvel (THERMODYNAMICS)  max=  1.72941690096945E-04
DEBUG_STATS_RL:          Wvel (THERMODYNAMICS) mean= -1.36728074989067E-08
DEBUG_STATS_RL:          Wvel (THERMODYNAMICS) S.D.=  8.54517537462459E-06
DEBUG_STATS_RL:         Theta (THERMODYNAMICS)  min= -1.91017868652177E+00
DEBUG_STATS_RL:         Theta (THERMODYNAMICS)  max=  3.00848800034413E+01
DEBUG_STATS_RL:         Theta (THERMODYNAMICS) mean=  3.20927728881981E+00
DEBUG_STATS_RL:         Theta (THERMODYNAMICS) S.D.=  5.87255293562923E+00
DEBUG_STATS_RL:          Salt (THERMODYNAMICS)  min= -6.86350631975874E-04
DEBUG_STATS_RL:          Salt (THERMODYNAMICS)  max=  3.74430105284830E+01
DEBUG_STATS_RL:          Salt (THERMODYNAMICS) mean=  1.88441460240675E+01
DEBUG_STATS_RL:          Salt (THERMODYNAMICS) S.D.=  1.73003703229969E+01
DEBUG_STATS_RL:         GtNm1 (THERMODYNAMICS)  min= -2.04454621333120E-06
DEBUG_STATS_RL:         GtNm1 (THERMODYNAMICS)  max=  2.08114947673848E-06
DEBUG_STATS_RL:         GtNm1 (THERMODYNAMICS) mean= -3.12420738403855E-09
DEBUG_STATS_RL:         GtNm1 (THERMODYNAMICS) S.D.=  1.31672317836147E-07
DEBUG_STATS_RL:         GsNm1 (THERMODYNAMICS)  min= -3.50022453705646E-07
DEBUG_STATS_RL:         GsNm1 (THERMODYNAMICS)  max=  2.44230211181805E-07
DEBUG_STATS_RL:         GsNm1 (THERMODYNAMICS) mean= -1.22975892186612E-10
DEBUG_STATS_RL:         GsNm1 (THERMODYNAMICS) S.D.=  1.18626511645866E-08
DEBUG_STATS_RL:                EtaN (DYNAMICS)  min= -1.90720392731638E+00
DEBUG_STATS_RL:                EtaN (DYNAMICS)  max=  1.15802758963014E+00
DEBUG_STATS_RL:                EtaN (DYNAMICS) mean= -2.06905398740847E-01
DEBUG_STATS_RL:                EtaN (DYNAMICS) S.D.=  8.02598487934568E-01
DEBUG_STATS_RL:                Uvel (DYNAMICS)  min= -1.32535566038927E-01
DEBUG_STATS_RL:                Uvel (DYNAMICS)  max=  1.60982132539430E-01
DEBUG_STATS_RL:                Uvel (DYNAMICS) mean=  6.15792948554825E-03
DEBUG_STATS_RL:                Uvel (DYNAMICS) S.D.=  2.21277412784776E-02
DEBUG_STATS_RL:                Vvel (DYNAMICS)  min= -7.99125421131332E-02
DEBUG_STATS_RL:                Vvel (DYNAMICS)  max=  1.24687252928344E-01
DEBUG_STATS_RL:                Vvel (DYNAMICS) mean=  9.71185763567612E-04
DEBUG_STATS_RL:                Vvel (DYNAMICS) S.D.=  1.29036949696291E-02
DEBUG_STATS_RL:                Wvel (DYNAMICS)  min= -5.58678650280298E-05
DEBUG_STATS_RL:                Wvel (DYNAMICS)  max=  1.72941690096945E-04
DEBUG_STATS_RL:                Wvel (DYNAMICS) mean= -1.36728074989067E-08
DEBUG_STATS_RL:                Wvel (DYNAMICS) S.D.=  8.54517537462459E-06
DEBUG_STATS_RL:               Theta (DYNAMICS)  min= -1.91017868652177E+00
DEBUG_STATS_RL:               Theta (DYNAMICS)  max=  3.00848800034413E+01
DEBUG_STATS_RL:               Theta (DYNAMICS) mean=  3.20927728881981E+00
DEBUG_STATS_RL:               Theta (DYNAMICS) S.D.=  5.87255293562923E+00
DEBUG_STATS_RL:                Salt (DYNAMICS)  min= -6.86350631975874E-04
DEBUG_STATS_RL:                Salt (DYNAMICS)  max=  3.74430105284830E+01
DEBUG_STATS_RL:                Salt (DYNAMICS) mean=  1.88441460240675E+01
DEBUG_STATS_RL:                Salt (DYNAMICS) S.D.=  1.73003703229969E+01
DEBUG_STATS_RL:                  Gu (DYNAMICS)  min= -1.31539386202267E-01
DEBUG_STATS_RL:                  Gu (DYNAMICS)  max=  1.60145947358771E-01
DEBUG_STATS_RL:                  Gu (DYNAMICS) mean=  6.06030982736049E-03
DEBUG_STATS_RL:                  Gu (DYNAMICS) S.D.=  2.24590570767815E-02
DEBUG_STATS_RL:                  Gv (DYNAMICS)  min= -7.80683951509573E-02
DEBUG_STATS_RL:                  Gv (DYNAMICS)  max=  1.34891881989598E-01
DEBUG_STATS_RL:                  Gv (DYNAMICS) mean=  3.57202078568712E-03
DEBUG_STATS_RL:                  Gv (DYNAMICS) S.D.=  1.45546290512317E-02
DEBUG_STATS_RL:               GuNm1 (DYNAMICS)  min= -9.78221102989753E-06
DEBUG_STATS_RL:               GuNm1 (DYNAMICS)  max=  9.11453466677617E-06
DEBUG_STATS_RL:               GuNm1 (DYNAMICS) mean=  6.85911669855021E-09
DEBUG_STATS_RL:               GuNm1 (DYNAMICS) S.D.=  1.21183985982869E-06
DEBUG_STATS_RL:               GvNm1 (DYNAMICS)  min= -9.48977018985479E-06
DEBUG_STATS_RL:               GvNm1 (DYNAMICS)  max=  1.51851861604962E-05
DEBUG_STATS_RL:               GvNm1 (DYNAMICS) mean=  7.41660208561023E-07
DEBUG_STATS_RL:               GvNm1 (DYNAMICS) S.D.=  2.59550514958274E-06
DEBUG_STATS_RL:               GtNm1 (DYNAMICS)  min= -2.04454621333120E-06
DEBUG_STATS_RL:               GtNm1 (DYNAMICS)  max=  2.08114947673848E-06
DEBUG_STATS_RL:               GtNm1 (DYNAMICS) mean= -3.12420738403855E-09
DEBUG_STATS_RL:               GtNm1 (DYNAMICS) S.D.=  1.31672317836147E-07
DEBUG_STATS_RL:               GsNm1 (DYNAMICS)  min= -3.50022453705646E-07
DEBUG_STATS_RL:               GsNm1 (DYNAMICS)  max=  2.44230211181805E-07
DEBUG_STATS_RL:               GsNm1 (DYNAMICS) mean= -1.22975892186612E-10
DEBUG_STATS_RL:               GsNm1 (DYNAMICS) S.D.=  1.18626511645866E-08
DEBUG_STATS_RL:    cg2d_b (SOLVE_FOR_PRESSURE)  min= -2.70455656781672E+04
DEBUG_STATS_RL:    cg2d_b (SOLVE_FOR_PRESSURE)  max=  2.87397352163994E+04
DEBUG_STATS_RL:    cg2d_b (SOLVE_FOR_PRESSURE) mean=  5.50152317473887E+00
DEBUG_STATS_RL:    cg2d_b (SOLVE_FOR_PRESSURE) S.D.=  3.95847009355192E+03
 cg2d: Sum(rhs),rhsMax =   4.43150434533292E-01  1.88770275751913E+00
(PID.TID 0000.0001)  cg2d: iter=     1 ; resid.=  7.08338849438753E-02
(PID.TID 0000.0001)  cg2d: iter=     2 ; resid.=  6.90110123780652E-02
(PID.TID 0000.0001)  cg2d: iter=     3 ; resid.=  7.49336115291469E-02
(PID.TID 0000.0001)  cg2d: iter=     4 ; resid.=  7.37935232418941E-02
(PID.TID 0000.0001)  cg2d: iter=     5 ; resid.=  5.97012600797698E-02
(PID.TID 0000.0001)  cg2d: iter=     6 ; resid.=  5.33786342315082E-02
(PID.TID 0000.0001)  cg2d: iter=     7 ; resid.=  4.21956118336296E-02
(PID.TID 0000.0001)  cg2d: iter=     8 ; resid.=  3.11728517193241E-02
(PID.TID 0000.0001)  cg2d: iter=     9 ; resid.=  2.28525245007821E-02
(PID.TID 0000.0001)  cg2d: iter=    10 ; resid.=  1.71144982173584E-02
(PID.TID 0000.0001)  cg2d: iter=    11 ; resid.=  1.41188047640015E-02
(PID.TID 0000.0001)  cg2d: iter=    12 ; resid.=  1.20282410497930E-02
(PID.TID 0000.0001)  cg2d: iter=    13 ; resid.=  1.00062468180165E-02
(PID.TID 0000.0001)  cg2d: iter=    14 ; resid.=  8.53386452671063E-03
(PID.TID 0000.0001)  cg2d: iter=    15 ; resid.=  6.99749665523011E-03
(PID.TID 0000.0001)  cg2d: iter=    16 ; resid.=  6.07082615337710E-03
(PID.TID 0000.0001)  cg2d: iter=    17 ; resid.=  5.69227271356564E-03
(PID.TID 0000.0001)  cg2d: iter=    18 ; resid.=  4.87109176071278E-03
(PID.TID 0000.0001)  cg2d: iter=    19 ; resid.=  4.03208852542736E-03
(PID.TID 0000.0001)  cg2d: iter=    20 ; resid.=  3.12861444380288E-03
(PID.TID 0000.0001)  cg2d: iter=    21 ; resid.=  2.55121472874219E-03
(PID.TID 0000.0001)  cg2d: iter=    22 ; resid.=  2.18603988824866E-03
(PID.TID 0000.0001)  cg2d: iter=    23 ; resid.=  1.86644370404829E-03
(PID.TID 0000.0001)  cg2d: iter=    24 ; resid.=  1.58847445907983E-03
(PID.TID 0000.0001)  cg2d: iter=    25 ; resid.=  1.24434323497090E-03
(PID.TID 0000.0001)  cg2d: iter=    26 ; resid.=  9.23326796345309E-04
(PID.TID 0000.0001)  cg2d: iter=    27 ; resid.=  7.88535352859271E-04
(PID.TID 0000.0001)  cg2d: iter=    28 ; resid.=  6.32091870555854E-04
(PID.TID 0000.0001)  cg2d: iter=    29 ; resid.=  5.01688209482824E-04
(PID.TID 0000.0001)  cg2d: iter=    30 ; resid.=  3.99417693232338E-04
(PID.TID 0000.0001)  cg2d: iter=    31 ; resid.=  3.37980025313102E-04
(PID.TID 0000.0001)  cg2d: iter=    32 ; resid.=  2.72789966346461E-04
(PID.TID 0000.0001)  cg2d: iter=    33 ; resid.=  2.09615073068221E-04
(PID.TID 0000.0001)  cg2d: iter=    34 ; resid.=  1.76670011304255E-04
(PID.TID 0000.0001)  cg2d: iter=    35 ; resid.=  1.46842700001974E-04
(PID.TID 0000.0001)  cg2d: iter=    36 ; resid.=  1.20737396990443E-04
(PID.TID 0000.0001)  cg2d: iter=    37 ; resid.=  1.06729840022018E-04
(PID.TID 0000.0001)  cg2d: iter=    38 ; resid.=  8.68371455167006E-05
(PID.TID 0000.0001)  cg2d: iter=    39 ; resid.=  7.39640734232607E-05
(PID.TID 0000.0001)  cg2d: iter=    40 ; resid.=  6.27432777197921E-05
(PID.TID 0000.0001)  cg2d: iter=    41 ; resid.=  4.99268325114858E-05
(PID.TID 0000.0001)  cg2d: iter=    42 ; resid.=  4.09735149619118E-05
(PID.TID 0000.0001)  cg2d: iter=    43 ; resid.=  3.27348353461816E-05
(PID.TID 0000.0001)  cg2d: iter=    44 ; resid.=  2.47466853961969E-05
(PID.TID 0000.0001)  cg2d: iter=    45 ; resid.=  1.80615087254883E-05
(PID.TID 0000.0001)  cg2d: iter=    46 ; resid.=  1.38786173874730E-05
(PID.TID 0000.0001)  cg2d: iter=    47 ; resid.=  1.09527714713251E-05
(PID.TID 0000.0001)  cg2d: iter=    48 ; resid.=  9.18914304249372E-06
(PID.TID 0000.0001)  cg2d: iter=    49 ; resid.=  7.75943936677420E-06
(PID.TID 0000.0001)  cg2d: iter=    50 ; resid.=  6.60678288724758E-06
(PID.TID 0000.0001)  cg2d: iter=    51 ; resid.=  5.88969395498840E-06
(PID.TID 0000.0001)  cg2d: iter=    52 ; resid.=  5.59979494866206E-06
(PID.TID 0000.0001)  cg2d: iter=    53 ; resid.=  4.94666519845383E-06
(PID.TID 0000.0001)  cg2d: iter=    54 ; resid.=  3.77464742386082E-06
(PID.TID 0000.0001)  cg2d: iter=    55 ; resid.=  2.98038705850403E-06
(PID.TID 0000.0001)  cg2d: iter=    56 ; resid.=  2.44380229049479E-06
(PID.TID 0000.0001)  cg2d: iter=    57 ; resid.=  1.99543906024268E-06
(PID.TID 0000.0001)  cg2d: iter=    58 ; resid.=  1.66369019120103E-06
(PID.TID 0000.0001)  cg2d: iter=    59 ; resid.=  1.29233557281352E-06
(PID.TID 0000.0001)  cg2d: iter=    60 ; resid.=  1.07847106196757E-06
(PID.TID 0000.0001)  cg2d: iter=    61 ; resid.=  8.41921070869282E-07
(PID.TID 0000.0001)  cg2d: iter=    62 ; resid.=  6.46874461800746E-07
(PID.TID 0000.0001)  cg2d: iter=    63 ; resid.=  5.10239207257993E-07
(PID.TID 0000.0001)  cg2d: iter=    64 ; resid.=  4.14202727087834E-07
(PID.TID 0000.0001)  cg2d: iter=    65 ; resid.=  3.27627098689565E-07
(PID.TID 0000.0001)  cg2d: iter=    66 ; resid.=  2.47918952326643E-07
(PID.TID 0000.0001)  cg2d: iter=    67 ; resid.=  1.82287704536986E-07
(PID.TID 0000.0001)  cg2d: iter=    68 ; resid.=  1.46114026308117E-07
(PID.TID 0000.0001)  cg2d: iter=    69 ; resid.=  1.10512081871524E-07
(PID.TID 0000.0001)  cg2d: iter=    70 ; resid.=  8.02506926201425E-08
(PID.TID 0000.0001)  cg2d: iter=    71 ; resid.=  5.91925044049734E-08
(PID.TID 0000.0001)  cg2d: iter=    72 ; resid.=  4.68852879881784E-08
(PID.TID 0000.0001)  cg2d: iter=    73 ; resid.=  3.93580029267804E-08
(PID.TID 0000.0001)  cg2d: iter=    74 ; resid.=  3.29884468274134E-08
(PID.TID 0000.0001)  cg2d: iter=    75 ; resid.=  2.56560259901062E-08
(PID.TID 0000.0001)  cg2d: iter=    76 ; resid.=  2.02057282597423E-08
(PID.TID 0000.0001)  cg2d: iter=    77 ; resid.=  1.63777035667650E-08
(PID.TID 0000.0001)  cg2d: iter=    78 ; resid.=  1.50197738196361E-08
(PID.TID 0000.0001)  cg2d: iter=    79 ; resid.=  1.27674735573985E-08
(PID.TID 0000.0001)  cg2d: iter=    80 ; resid.=  1.08641504750283E-08
(PID.TID 0000.0001)  cg2d: iter=    81 ; resid.=  1.00608112299970E-08
(PID.TID 0000.0001)  cg2d: iter=    82 ; resid.=  8.58275548786314E-09
(PID.TID 0000.0001)  cg2d: iter=    83 ; resid.=  7.51588957944056E-09
(PID.TID 0000.0001)  cg2d: iter=    84 ; resid.=  5.90423887724509E-09
(PID.TID 0000.0001)  cg2d: iter=    85 ; resid.=  4.57247563977435E-09
(PID.TID 0000.0001)  cg2d: iter=    86 ; resid.=  3.88285425685806E-09
(PID.TID 0000.0001)  cg2d: iter=    87 ; resid.=  3.44876187243361E-09
(PID.TID 0000.0001)  cg2d: iter=    88 ; resid.=  2.98723641115144E-09
(PID.TID 0000.0001)  cg2d: iter=    89 ; resid.=  2.62115656763543E-09
(PID.TID 0000.0001)  cg2d: iter=    90 ; resid.=  2.34920428800506E-09
(PID.TID 0000.0001)  cg2d: iter=    91 ; resid.=  1.90303055122902E-09
(PID.TID 0000.0001)  cg2d: iter=    92 ; resid.=  1.60921899031253E-09
(PID.TID 0000.0001)  cg2d: iter=    93 ; resid.=  1.31760599957629E-09
(PID.TID 0000.0001)  cg2d: iter=    94 ; resid.=  1.05891415458323E-09
(PID.TID 0000.0001)  cg2d: iter=    95 ; resid.=  8.46415849512311E-10
(PID.TID 0000.0001)  cg2d: iter=    96 ; resid.=  6.63913109494913E-10
(PID.TID 0000.0001)  cg2d: iter=    97 ; resid.=  5.53371182345070E-10
(PID.TID 0000.0001)  cg2d: iter=    98 ; resid.=  5.04944348344633E-10
(PID.TID 0000.0001)  cg2d: iter=    99 ; resid.=  4.58042036350781E-10
(PID.TID 0000.0001)  cg2d: iter=   100 ; resid.=  4.04782713752574E-10
(PID.TID 0000.0001)  cg2d: iter=   101 ; resid.=  3.15802540075774E-10
(PID.TID 0000.0001)  cg2d: iter=   102 ; resid.=  2.42464822059846E-10
(PID.TID 0000.0001)  cg2d: iter=   103 ; resid.=  1.89762484370554E-10
(PID.TID 0000.0001)  cg2d: iter=   104 ; resid.=  1.52569533156813E-10
(PID.TID 0000.0001)  cg2d: iter=   105 ; resid.=  1.28155239231451E-10
(PID.TID 0000.0001)  cg2d: iter=   106 ; resid.=  9.57915402808646E-11
(PID.TID 0000.0001)  cg2d: iter=   107 ; resid.=  6.96189679411505E-11
(PID.TID 0000.0001)  cg2d: iter=   108 ; resid.=  4.78516863785342E-11
(PID.TID 0000.0001)  cg2d: iter=   109 ; resid.=  3.49737923066671E-11
(PID.TID 0000.0001)  cg2d: iter=   110 ; resid.=  2.73889086818002E-11
(PID.TID 0000.0001)  cg2d: iter=   111 ; resid.=  2.17083224284917E-11
(PID.TID 0000.0001)  cg2d: iter=   112 ; resid.=  1.63237805678374E-11
(PID.TID 0000.0001)  cg2d: iter=   113 ; resid.=  1.16287883807376E-11
(PID.TID 0000.0001)  cg2d: iter=   114 ; resid.=  9.03838618837568E-12
(PID.TID 0000.0001)  cg2d: iter=   115 ; resid.=  6.82487206941872E-12
(PID.TID 0000.0001)  cg2d: iter=   116 ; resid.=  5.10393032087393E-12
(PID.TID 0000.0001)  cg2d: iter=   117 ; resid.=  4.24738330328704E-12
(PID.TID 0000.0001)  cg2d: iter=   118 ; resid.=  3.37532775890057E-12
(PID.TID 0000.0001)  cg2d: iter=   119 ; resid.=  2.44837275836078E-12
(PID.TID 0000.0001)  cg2d: iter=   120 ; resid.=  1.86992717710642E-12
(PID.TID 0000.0001)  cg2d: iter=   121 ; resid.=  1.41080516835798E-12
(PID.TID 0000.0001)  cg2d: iter=   122 ; resid.=  1.11529623710818E-12
(PID.TID 0000.0001)  cg2d: iter=   123 ; resid.=  8.96077577679735E-13
(PID.TID 0000.0001)  cg2d: iter=   124 ; resid.=  6.76859616357215E-13
(PID.TID 0000.0001)  cg2d: iter=   125 ; resid.=  4.93141448068095E-13
(PID.TID 0000.0001)  cg2d: iter=   126 ; resid.=  3.68344822595246E-13
(PID.TID 0000.0001)  cg2d: iter=   127 ; resid.=  2.52645089735952E-13
(PID.TID 0000.0001)  cg2d: iter=   128 ; resid.=  1.90722287254537E-13
(PID.TID 0000.0001)  cg2d: iter=   129 ; resid.=  1.30755243463390E-13
(PID.TID 0000.0001)  cg2d: iter=   130 ; resid.=  9.63029628700065E-14
DEBUG_STATS_RL:    cg2d_x (SOLVE_FOR_PRESSURE)  min= -1.85788371274988E+01
DEBUG_STATS_RL:    cg2d_x (SOLVE_FOR_PRESSURE)  max=  1.11039553112877E+01
DEBUG_STATS_RL:    cg2d_x (SOLVE_FOR_PRESSURE) mean= -2.01664160024073E+00
DEBUG_STATS_RL:    cg2d_x (SOLVE_FOR_PRESSURE) S.D.=  7.78121639706417E+00
(PID.TID 0000.0001)      cg2d_init_res =   1.96346501933537E-01
(PID.TID 0000.0001)      cg2d_iters(min,last) =      -1     130
(PID.TID 0000.0001)      cg2d_last_res =   9.63029628700065E-14
(PID.TID 0000.0001) // =======================================================
(PID.TID 0000.0001) // Begin MONITOR dynamic field statistics
(PID.TID 0000.0001) // =======================================================
(PID.TID 0000.0001) %MON time_tsnumber                =                    89
(PID.TID 0000.0001) %MON time_secondsf                =   7.6896000000000E+06
(PID.TID 0000.0001) %MON dynstat_eta_max              =   1.1319016627205E+00
(PID.TID 0000.0001) %MON dynstat_eta_min              =  -1.8938671893473E+00
(PID.TID 0000.0001) %MON dynstat_eta_mean             =  -5.7401572664856E-03
(PID.TID 0000.0001) %MON dynstat_eta_sd               =   6.9501358280498E-01
(PID.TID 0000.0001) %MON dynstat_eta_del2             =   2.5102121568660E-03
(PID.TID 0000.0001) %MON dynstat_uvel_max             =   1.5948053611648E-01
(PID.TID 0000.0001) %MON dynstat_uvel_min             =  -1.3250646672457E-01
(PID.TID 0000.0001) %MON dynstat_uvel_mean            =   2.6219021339370E-03
(PID.TID 0000.0001) %MON dynstat_uvel_sd              =   1.3918922774749E-02
(PID.TID 0000.0001) %MON dynstat_uvel_del2            =   8.5766803412702E-05
(PID.TID 0000.0001) %MON dynstat_vvel_max             =   1.2452853164716E-01
(PID.TID 0000.0001) %MON dynstat_vvel_min             =  -7.9372737222626E-02
(PID.TID 0000.0001) %MON dynstat_vvel_mean            =   1.5433193221782E-05
(PID.TID 0000.0001) %MON dynstat_vvel_sd              =   7.9434331370727E-03
(PID.TID 0000.0001) %MON dynstat_vvel_del2            =   7.4344219399119E-05
(PID.TID 0000.0001) %MON dynstat_wvel_max             =   1.7238894053945E-04
(PID.TID 0000.0001) %MON dynstat_wvel_min             =  -5.5191742785226E-05
(PID.TID 0000.0001) %MON dynstat_wvel_mean            =   3.6228869694132E-23
(PID.TID 0000.0001) %MON dynstat_wvel_sd              =   9.5671270372191E-06
(PID.TID 0000.0001) %MON dynstat_wvel_del2            =   9.7149469456982E-08
(PID.TID 0000.0001) %MON dynstat_theta_max            =   3.0084880003441E+01
(PID.TID 0000.0001) %MON dynstat_theta_min            =  -1.9101786865218E+00
(PID.TID 0000.0001) %MON dynstat_theta_mean           =   3.6215878816696E+00
(PID.TID 0000.0001) %MON dynstat_theta_sd             =   4.4229683708636E+00
(PID.TID 0000.0001) %MON dynstat_theta_del2           =   4.6028193776195E-03
(PID.TID 0000.0001) %MON dynstat_salt_max             =   3.7443010528483E+01
(PID.TID 0000.0001) %MON dynstat_salt_min             =   2.9890895817798E+01
(PID.TID 0000.0001) %MON dynstat_salt_mean            =   3.4717332205162E+01
(PID.TID 0000.0001) %MON dynstat_salt_sd              =   2.9630497395877E-01
(PID.TID 0000.0001) %MON dynstat_salt_del2            =   9.6173051031618E-04
(PID.TID 0000.0001) %MON dynstat_sst_max              =   3.0084880003441E+01
(PID.TID 0000.0001) %MON dynstat_sst_min              =  -1.9101786865218E+00
(PID.TID 0000.0001) %MON dynstat_sst_mean             =   1.8782553671096E+01
(PID.TID 0000.0001) %MON dynstat_sst_sd               =   9.3650955665104E+00
(PID.TID 0000.0001) %MON dynstat_sst_del2             =   2.3585525269287E-02
(PID.TID 0000.0001) %MON dynstat_sss_max              =   3.7407427951361E+01
(PID.TID 0000.0001) %MON dynstat_sss_min              =   2.9890895817798E+01
(PID.TID 0000.0001) %MON dynstat_sss_mean             =   3.4839238946324E+01
(PID.TID 0000.0001) %MON dynstat_sss_sd               =   9.8493605825106E-01
(PID.TID 0000.0001) %MON dynstat_sss_del2             =   7.6552128338970E-03
(PID.TID 0000.0001) %MON forcing_qnet_max             =   2.1333963826497E+02
(PID.TID 0000.0001) %MON forcing_qnet_min             =  -1.5829163869222E+02
(PID.TID 0000.0001) %MON forcing_qnet_mean            =  -2.1035924135394E+00
(PID.TID 0000.0001) %MON forcing_qnet_sd              =   3.9378744149303E+01
(PID.TID 0000.0001) %MON forcing_qnet_del2            =   7.8682598248639E-01
(PID.TID 0000.0001) %MON forcing_qsw_max              =   0.0000000000000E+00
(PID.TID 0000.0001) %MON forcing_qsw_min              =   0.0000000000000E+00
(PID.TID 0000.0001) %MON forcing_qsw_mean             =   0.0000000000000E+00
(PID.TID 0000.0001) %MON forcing_qsw_sd               =   0.0000000000000E+00
(PID.TID 0000.0001) %MON forcing_qsw_del2             =   0.0000000000000E+00
(PID.TID 0000.0001) %MON forcing_empmr_max            =   6.7858598621721E-05
(PID.TID 0000.0001) %MON forcing_empmr_min            =  -8.3457416621968E-05
(PID.TID 0000.0001) %MON forcing_empmr_mean           =   2.5892131092034E-07
(PID.TID 0000.0001) %MON forcing_empmr_sd             =   2.5615270764388E-05
(PID.TID 0000.0001) %MON forcing_empmr_del2           =   3.6333336440731E-07
(PID.TID 0000.0001) %MON forcing_fu_max               =   3.4887377023697E-01
(PID.TID 0000.0001) %MON forcing_fu_min               =  -4.0068635642529E-01
(PID.TID 0000.0001) %MON forcing_fu_mean              =   1.8803232040261E-02
(PID.TID 0000.0001) %MON forcing_fu_sd                =   1.0027933019138E-01
(PID.TID 0000.0001) %MON forcing_fu_del2              =   7.7731111628185E-04
(PID.TID 0000.0001) %MON forcing_fv_max               =   1.8205233017604E-01
(PID.TID 0000.0001) %MON forcing_fv_min               =  -1.4903136293093E-01
(PID.TID 0000.0001) %MON forcing_fv_mean              =  -7.0553786991952E-03
(PID.TID 0000.0001) %MON forcing_fv_sd                =   3.8949486198953E-02
(PID.TID 0000.0001) %MON forcing_fv_del2              =   4.2056480226922E-04
(PID.TID 0000.0001) %MON trAdv_CFL_u_max              =   4.2094888999155E-02
(PID.TID 0000.0001) %MON trAdv_CFL_v_max              =   2.5378765962844E-02
(PID.TID 0000.0001) %MON trAdv_CFL_w_max              =   3.7643720962129E-02
(PID.TID 0000.0001) %MON advcfl_uvel_max              =   4.2161180131347E-02
(PID.TID 0000.0001) %MON advcfl_vvel_max              =   2.4193896501510E-02
(PID.TID 0000.0001) %MON advcfl_wvel_max              =   4.0057871960624E-02
(PID.TID 0000.0001) %MON advcfl_W_hf_max              =   4.3003303722435E-02
(PID.TID 0000.0001) %MON pe_b_mean                    =   6.1815503020466E-04
(PID.TID 0000.0001) %MON ke_max                       =   1.4101914393743E-02
(PID.TID 0000.0001) %MON ke_mean                      =   1.1946813759441E-04
(PID.TID 0000.0001) %MON ke_vol                       =   1.3226782436723E+18
(PID.TID 0000.0001) %MON vort_r_min                   =  -3.9083443329034E-07
(PID.TID 0000.0001) %MON vort_r_max                   =   3.8183193532435E-07
(PID.TID 0000.0001) %MON vort_a_mean                  =  -2.5274807358478E-05
(PID.TID 0000.0001) %MON vort_a_sd                    =   7.3604690683435E-05
(PID.TID 0000.0001) %MON vort_p_mean                  =  -3.1845655750368E-05
(PID.TID 0000.0001) %MON vort_p_sd                    =   1.3162498777247E-04
(PID.TID 0000.0001) %MON surfExpan_theta_mean         =  -2.1407167475852E-07
(PID.TID 0000.0001) %MON surfExpan_salt_mean          =   1.0337033711891E-07
(PID.TID 0000.0001) // =======================================================
(PID.TID 0000.0001) // End MONITOR dynamic field statistics
(PID.TID 0000.0001) // =======================================================
 EXTERNAL_FIELDS_LOAD,        89 : iP,iLd,i0,i1=    3    4    3    4 ; Wght=  0.5333333333  0.4666666667
 EXTERNAL_FIELDS_LOAD: (fu0,1),fu,fv= -2.7199E-02 -3.7252E-02 -3.1890E-02 -1.6742E-02
 EXTERNAL_FIELDS_LOAD: SST,SSS,Q,E-P= -8.1592E-02  3.4574E+01  1.6346E+02  8.4686E-06
DEBUG_STATS_RL:          Uvel (THERMODYNAMICS)  min= -1.32506466724574E-01
DEBUG_STATS_RL:          Uvel (THERMODYNAMICS)  max=  1.59480536116479E-01
DEBUG_STATS_RL:          Uvel (THERMODYNAMICS) mean=  6.09944630605532E-03
DEBUG_STATS_RL:          Uvel (THERMODYNAMICS) S.D.=  2.20831845496319E-02
DEBUG_STATS_RL:          Vvel (THERMODYNAMICS)  min= -7.93727372226255E-02
DEBUG_STATS_RL:          Vvel (THERMODYNAMICS)  max=  1.24528531647160E-01
DEBUG_STATS_RL:          Vvel (THERMODYNAMICS) mean=  9.74279961620725E-04
DEBUG_STATS_RL:          Vvel (THERMODYNAMICS) S.D.=  1.29029960711291E-02
DEBUG_STATS_RL:          Wvel (THERMODYNAMICS)  min= -5.51917427852257E-05
DEBUG_STATS_RL:          Wvel (THERMODYNAMICS)  max=  1.72388940539448E-04
DEBUG_STATS_RL:          Wvel (THERMODYNAMICS) mean= -1.41833746689695E-08
DEBUG_STATS_RL:          Wvel (THERMODYNAMICS) S.D.=  8.51560996788659E-06
DEBUG_STATS_RL:         Theta (THERMODYNAMICS)  min= -1.90878569958023E+00
DEBUG_STATS_RL:         Theta (THERMODYNAMICS)  max=  3.00955732468002E+01
DEBUG_STATS_RL:         Theta (THERMODYNAMICS) mean=  3.20906971192197E+00
DEBUG_STATS_RL:         Theta (THERMODYNAMICS) S.D.=  5.87254809067908E+00
DEBUG_STATS_RL:          Salt (THERMODYNAMICS)  min= -6.86350631975874E-04
DEBUG_STATS_RL:          Salt (THERMODYNAMICS)  max=  3.74428992557537E+01
DEBUG_STATS_RL:          Salt (THERMODYNAMICS) mean=  1.88441419224672E+01
DEBUG_STATS_RL:          Salt (THERMODYNAMICS) S.D.=  1.73003669008592E+01
DEBUG_STATS_RL:         GtNm1 (THERMODYNAMICS)  min= -2.01313013015568E-06
DEBUG_STATS_RL:         GtNm1 (THERMODYNAMICS)  max=  1.95239530771939E-06
DEBUG_STATS_RL:         GtNm1 (THERMODYNAMICS) mean= -3.10838818809179E-09
DEBUG_STATS_RL:         GtNm1 (THERMODYNAMICS) S.D.=  1.31234227851762E-07
DEBUG_STATS_RL:         GsNm1 (THERMODYNAMICS)  min= -3.42516723602934E-07
DEBUG_STATS_RL:         GsNm1 (THERMODYNAMICS)  max=  2.14305721283996E-07
DEBUG_STATS_RL:         GsNm1 (THERMODYNAMICS) mean= -1.50310211723704E-10
DEBUG_STATS_RL:         GsNm1 (THERMODYNAMICS) S.D.=  1.17468141555110E-08
DEBUG_STATS_RL:                EtaN (DYNAMICS)  min= -1.89386718934735E+00
DEBUG_STATS_RL:                EtaN (DYNAMICS)  max=  1.13190166272055E+00
DEBUG_STATS_RL:                EtaN (DYNAMICS) mean= -2.05569989830860E-01
DEBUG_STATS_RL:                EtaN (DYNAMICS) S.D.=  7.93192293278716E-01
DEBUG_STATS_RL:                Uvel (DYNAMICS)  min= -1.32506466724574E-01
DEBUG_STATS_RL:                Uvel (DYNAMICS)  max=  1.59480536116479E-01
DEBUG_STATS_RL:                Uvel (DYNAMICS) mean=  6.09944630605532E-03
DEBUG_STATS_RL:                Uvel (DYNAMICS) S.D.=  2.20831845496319E-02
DEBUG_STATS_RL:                Vvel (DYNAMICS)  min= -7.93727372226255E-02
DEBUG_STATS_RL:                Vvel (DYNAMICS)  max=  1.24528531647160E-01
DEBUG_STATS_RL:                Vvel (DYNAMICS) mean=  9.74279961620725E-04
DEBUG_STATS_RL:                Vvel (DYNAMICS) S.D.=  1.29029960711291E-02
DEBUG_STATS_RL:                Wvel (DYNAMICS)  min= -5.51917427852257E-05
DEBUG_STATS_RL:                Wvel (DYNAMICS)  max=  1.72388940539448E-04
DEBUG_STATS_RL:                Wvel (DYNAMICS) mean= -1.41833746689695E-08
DEBUG_STATS_RL:                Wvel (DYNAMICS) S.D.=  8.51560996788659E-06
DEBUG_STATS_RL:               Theta (DYNAMICS)  min= -1.90878569958023E+00
DEBUG_STATS_RL:               Theta (DYNAMICS)  max=  3.00955732468002E+01
DEBUG_STATS_RL:               Theta (DYNAMICS) mean=  3.20906971192197E+00
DEBUG_STATS_RL:               Theta (DYNAMICS) S.D.=  5.87254809067908E+00
DEBUG_STATS_RL:                Salt (DYNAMICS)  min= -6.86350631975874E-04
DEBUG_STATS_RL:                Salt (DYNAMICS)  max=  3.74428992557537E+01
DEBUG_STATS_RL:                Salt (DYNAMICS) mean=  1.88441419224672E+01
DEBUG_STATS_RL:                Salt (DYNAMICS) S.D.=  1.73003669008592E+01
DEBUG_STATS_RL:                  Gu (DYNAMICS)  min= -1.31501413740077E-01
DEBUG_STATS_RL:                  Gu (DYNAMICS)  max=  1.56741940168586E-01
DEBUG_STATS_RL:                  Gu (DYNAMICS) mean=  6.01010987142531E-03
DEBUG_STATS_RL:                  Gu (DYNAMICS) S.D.=  2.24239310248934E-02
DEBUG_STATS_RL:                  Gv (DYNAMICS)  min= -7.75223156663364E-02
DEBUG_STATS_RL:                  Gv (DYNAMICS)  max=  1.33678262958183E-01
DEBUG_STATS_RL:                  Gv (DYNAMICS) mean=  3.57715231531875E-03
DEBUG_STATS_RL:                  Gv (DYNAMICS) S.D.=  1.45294864162325E-02
DEBUG_STATS_RL:               GuNm1 (DYNAMICS)  min= -9.70416370673454E-06
DEBUG_STATS_RL:               GuNm1 (DYNAMICS)  max=  9.20238668611631E-06
DEBUG_STATS_RL:               GuNm1 (DYNAMICS) mean=  7.38296264456174E-09
DEBUG_STATS_RL:               GuNm1 (DYNAMICS) S.D.=  1.21244385412224E-06
DEBUG_STATS_RL:               GvNm1 (DYNAMICS)  min= -9.47225872525567E-06
DEBUG_STATS_RL:               GvNm1 (DYNAMICS)  max=  1.51488226972366E-05
DEBUG_STATS_RL:               GvNm1 (DYNAMICS) mean=  7.41732500859749E-07
DEBUG_STATS_RL:               GvNm1 (DYNAMICS) S.D.=  2.59467618182574E-06
DEBUG_STATS_RL:               GtNm1 (DYNAMICS)  min= -2.01313013015568E-06
DEBUG_STATS_RL:               GtNm1 (DYNAMICS)  max=  1.95239530771939E-06
DEBUG_STATS_RL:               GtNm1 (DYNAMICS) mean= -3.10838818809179E-09
DEBUG_STATS_RL:               GtNm1 (DYNAMICS) S.D.=  1.31234227851762E-07
DEBUG_STATS_RL:               GsNm1 (DYNAMICS)  min= -3.42516723602934E-07
DEBUG_STATS_RL:               GsNm1 (DYNAMICS)  max=  2.14305721283996E-07
DEBUG_STATS_RL:               GsNm1 (DYNAMICS) mean= -1.50310211723704E-10
DEBUG_STATS_RL:               GsNm1 (DYNAMICS) S.D.=  1.17468141555110E-08
DEBUG_STATS_RL:    cg2d_b (SOLVE_FOR_PRESSURE)  min= -2.71589147900294E+04
DEBUG_STATS_RL:    cg2d_b (SOLVE_FOR_PRESSURE)  max=  2.87329452051520E+04
DEBUG_STATS_RL:    cg2d_b (SOLVE_FOR_PRESSURE) mean=  5.52044310450481E+00
DEBUG_STATS_RL:    cg2d_b (SOLVE_FOR_PRESSURE) S.D.=  3.96095446064788E+03
 cg2d: Sum(rhs),rhsMax =   4.44779527322327E-01  1.88725677140065E+00
(PID.TID 0000.0001)  cg2d: iter=     1 ; resid.=  8.04347932724108E-02
(PID.TID 0000.0001)  cg2d: iter=     2 ; resid.=  9.04889001849884E-02
(PID.TID 0000.0001)  cg2d: iter=     3 ; resid.=  9.80956359740830E-02
(PID.TID 0000.0001)  cg2d: iter=     4 ; resid.=  8.80126026759683E-02
(PID.TID 0000.0001)  cg2d: iter=     5 ; resid.=  7.35292509551205E-02
(PID.TID 0000.0001)  cg2d: iter=     6 ; resid.=  6.52504346651873E-02
(PID.TID 0000.0001)  cg2d: iter=     7 ; resid.=  4.84858554469510E-02
(PID.TID 0000.0001)  cg2d: iter=     8 ; resid.=  3.40145360252505E-02
(PID.TID 0000.0001)  cg2d: iter=     9 ; resid.=  2.55806165919321E-02
(PID.TID 0000.0001)  cg2d: iter=    10 ; resid.=  1.92639677485080E-02
(PID.TID 0000.0001)  cg2d: iter=    11 ; resid.=  1.60892490893280E-02
(PID.TID 0000.0001)  cg2d: iter=    12 ; resid.=  1.35566696335783E-02
(PID.TID 0000.0001)  cg2d: iter=    13 ; resid.=  1.12255968090418E-02
(PID.TID 0000.0001)  cg2d: iter=    14 ; resid.=  9.31816282129246E-03
(PID.TID 0000.0001)  cg2d: iter=    15 ; resid.=  7.75996318265785E-03
(PID.TID 0000.0001)  cg2d: iter=    16 ; resid.=  7.07286831340967E-03
(PID.TID 0000.0001)  cg2d: iter=    17 ; resid.=  6.80391570693883E-03
(PID.TID 0000.0001)  cg2d: iter=    18 ; resid.=  5.61994257505483E-03
(PID.TID 0000.0001)  cg2d: iter=    19 ; resid.=  4.61802355781122E-03
(PID.TID 0000.0001)  cg2d: iter=    20 ; resid.=  3.58151766092297E-03
(PID.TID 0000.0001)  cg2d: iter=    21 ; resid.=  2.89385363711763E-03
(PID.TID 0000.0001)  cg2d: iter=    22 ; resid.=  2.49297176946011E-03
(PID.TID 0000.0001)  cg2d: iter=    23 ; resid.=  2.11922518557539E-03
(PID.TID 0000.0001)  cg2d: iter=    24 ; resid.=  1.79314742308856E-03
(PID.TID 0000.0001)  cg2d: iter=    25 ; resid.=  1.38868708854836E-03
(PID.TID 0000.0001)  cg2d: iter=    26 ; resid.=  1.04339582737519E-03
(PID.TID 0000.0001)  cg2d: iter=    27 ; resid.=  8.87556718899447E-04
(PID.TID 0000.0001)  cg2d: iter=    28 ; resid.=  6.96732261805080E-04
(PID.TID 0000.0001)  cg2d: iter=    29 ; resid.=  5.46844672776935E-04
(PID.TID 0000.0001)  cg2d: iter=    30 ; resid.=  4.47651188774412E-04
(PID.TID 0000.0001)  cg2d: iter=    31 ; resid.=  3.91827993880162E-04
(PID.TID 0000.0001)  cg2d: iter=    32 ; resid.=  3.17444684546351E-04
(PID.TID 0000.0001)  cg2d: iter=    33 ; resid.=  2.47523893595903E-04
(PID.TID 0000.0001)  cg2d: iter=    34 ; resid.=  2.14372300396530E-04
(PID.TID 0000.0001)  cg2d: iter=    35 ; resid.=  1.78565319752862E-04
(PID.TID 0000.0001)  cg2d: iter=    36 ; resid.=  1.49586238691906E-04
(PID.TID 0000.0001)  cg2d: iter=    37 ; resid.=  1.34907811709170E-04
(PID.TID 0000.0001)  cg2d: iter=    38 ; resid.=  1.12525003716606E-04
(PID.TID 0000.0001)  cg2d: iter=    39 ; resid.=  9.36974440014508E-05
(PID.TID 0000.0001)  cg2d: iter=    40 ; resid.=  7.65545535333441E-05
(PID.TID 0000.0001)  cg2d: iter=    41 ; resid.=  6.04733477742939E-05
(PID.TID 0000.0001)  cg2d: iter=    42 ; resid.=  5.07087188946237E-05
(PID.TID 0000.0001)  cg2d: iter=    43 ; resid.=  3.99704315752200E-05
(PID.TID 0000.0001)  cg2d: iter=    44 ; resid.=  2.97319303983244E-05
(PID.TID 0000.0001)  cg2d: iter=    45 ; resid.=  2.21348815518033E-05
(PID.TID 0000.0001)  cg2d: iter=    46 ; resid.=  1.82461929908734E-05
(PID.TID 0000.0001)  cg2d: iter=    47 ; resid.=  1.57833780841505E-05
(PID.TID 0000.0001)  cg2d: iter=    48 ; resid.=  1.43617830325954E-05
(PID.TID 0000.0001)  cg2d: iter=    49 ; resid.=  1.27598546091784E-05
(PID.TID 0000.0001)  cg2d: iter=    50 ; resid.=  1.14431615837123E-05
(PID.TID 0000.0001)  cg2d: iter=    51 ; resid.=  1.04256061681798E-05
(PID.TID 0000.0001)  cg2d: iter=    52 ; resid.=  9.84776186346893E-06
(PID.TID 0000.0001)  cg2d: iter=    53 ; resid.=  8.02659109561953E-06
(PID.TID 0000.0001)  cg2d: iter=    54 ; resid.=  5.81505112596572E-06
(PID.TID 0000.0001)  cg2d: iter=    55 ; resid.=  4.59936968921848E-06
(PID.TID 0000.0001)  cg2d: iter=    56 ; resid.=  3.87480803317709E-06
(PID.TID 0000.0001)  cg2d: iter=    57 ; resid.=  3.05420286622406E-06
(PID.TID 0000.0001)  cg2d: iter=    58 ; resid.=  2.43554904688305E-06
(PID.TID 0000.0001)  cg2d: iter=    59 ; resid.=  1.88349052265074E-06
(PID.TID 0000.0001)  cg2d: iter=    60 ; resid.=  1.56128161924025E-06
(PID.TID 0000.0001)  cg2d: iter=    61 ; resid.=  1.26692495094834E-06
(PID.TID 0000.0001)  cg2d: iter=    62 ; resid.=  1.06091127046817E-06
(PID.TID 0000.0001)  cg2d: iter=    63 ; resid.=  9.67842211658789E-07
(PID.TID 0000.0001)  cg2d: iter=    64 ; resid.=  9.03330979111431E-07
(PID.TID 0000.0001)  cg2d: iter=    65 ; resid.=  7.84420503924288E-07
(PID.TID 0000.0001)  cg2d: iter=    66 ; resid.=  6.49801323485894E-07
(PID.TID 0000.0001)  cg2d: iter=    67 ; resid.=  5.24637174899269E-07
(PID.TID 0000.0001)  cg2d: iter=    68 ; resid.=  4.58644843573646E-07
(PID.TID 0000.0001)  cg2d: iter=    69 ; resid.=  3.83257569328515E-07
(PID.TID 0000.0001)  cg2d: iter=    70 ; resid.=  3.13627425504537E-07
(PID.TID 0000.0001)  cg2d: iter=    71 ; resid.=  2.75252962401154E-07
(PID.TID 0000.0001)  cg2d: iter=    72 ; resid.=  2.52587826485688E-07
(PID.TID 0000.0001)  cg2d: iter=    73 ; resid.=  2.15722589065561E-07
(PID.TID 0000.0001)  cg2d: iter=    74 ; resid.=  1.74294689395237E-07
(PID.TID 0000.0001)  cg2d: iter=    75 ; resid.=  1.27676878445714E-07
(PID.TID 0000.0001)  cg2d: iter=    76 ; resid.=  9.58348516709795E-08
(PID.TID 0000.0001)  cg2d: iter=    77 ; resid.=  7.62241188309049E-08
(PID.TID 0000.0001)  cg2d: iter=    78 ; resid.=  6.34012249886346E-08
(PID.TID 0000.0001)  cg2d: iter=    79 ; resid.=  4.67260057179797E-08
(PID.TID 0000.0001)  cg2d: iter=    80 ; resid.=  3.46040058290549E-08
(PID.TID 0000.0001)  cg2d: iter=    81 ; resid.=  2.72671426344608E-08
(PID.TID 0000.0001)  cg2d: iter=    82 ; resid.=  1.99732248020049E-08
(PID.TID 0000.0001)  cg2d: iter=    83 ; resid.=  1.53758917365194E-08
(PID.TID 0000.0001)  cg2d: iter=    84 ; resid.=  1.11003047323412E-08
(PID.TID 0000.0001)  cg2d: iter=    85 ; resid.=  8.09288423813779E-09
(PID.TID 0000.0001)  cg2d: iter=    86 ; resid.=  6.25323427924958E-09
(PID.TID 0000.0001)  cg2d: iter=    87 ; resid.=  5.04897752828784E-09
(PID.TID 0000.0001)  cg2d: iter=    88 ; resid.=  4.14414285648211E-09
(PID.TID 0000.0001)  cg2d: iter=    89 ; resid.=  3.38438866878005E-09
(PID.TID 0000.0001)  cg2d: iter=    90 ; resid.=  2.79347516681783E-09
(PID.TID 0000.0001)  cg2d: iter=    91 ; resid.=  2.21290882644511E-09
(PID.TID 0000.0001)  cg2d: iter=    92 ; resid.=  1.89138212038670E-09
(PID.TID 0000.0001)  cg2d: iter=    93 ; resid.=  1.52997685847565E-09
(PID.TID 0000.0001)  cg2d: iter=    94 ; resid.=  1.18817402106479E-09
(PID.TID 0000.0001)  cg2d: iter=    95 ; resid.=  9.09267969614287E-10
(PID.TID 0000.0001)  cg2d: iter=    96 ; resid.=  6.79434283345703E-10
(PID.TID 0000.0001)  cg2d: iter=    97 ; resid.=  5.35530512507666E-10
(PID.TID 0000.0001)  cg2d: iter=    98 ; resid.=  4.68583163114732E-10
(PID.TID 0000.0001)  cg2d: iter=    99 ; resid.=  4.15697582132542E-10
(PID.TID 0000.0001)  cg2d: iter=   100 ; resid.=  3.75822258866273E-10
(PID.TID 0000.0001)  cg2d: iter=   101 ; resid.=  3.03059908526854E-10
(PID.TID 0000.0001)  cg2d: iter=   102 ; resid.=  2.36537753911871E-10
(PID.TID 0000.0001)  cg2d: iter=   103 ; resid.=  1.84481318991215E-10
(PID.TID 0000.0001)  cg2d: iter=   104 ; resid.=  1.43310121584973E-10
(PID.TID 0000.0001)  cg2d: iter=   105 ; resid.=  1.20269303021696E-10
(PID.TID 0000.0001)  cg2d: iter=   106 ; resid.=  8.83660314221694E-11
(PID.TID 0000.0001)  cg2d: iter=   107 ; resid.=  6.43127805976646E-11
(PID.TID 0000.0001)  cg2d: iter=   108 ; resid.=  4.38627089475667E-11
(PID.TID 0000.0001)  cg2d: iter=   109 ; resid.=  3.10872094550342E-11
(PID.TID 0000.0001)  cg2d: iter=   110 ; resid.=  2.41321785745027E-11
(PID.TID 0000.0001)  cg2d: iter=   111 ; resid.=  1.99263065277987E-11
(PID.TID 0000.0001)  cg2d: iter=   112 ; resid.=  1.64771977710142E-11
(PID.TID 0000.0001)  cg2d: iter=   113 ; resid.=  1.27748991178186E-11
(PID.TID 0000.0001)  cg2d: iter=   114 ; resid.=  1.07841873618712E-11
(PID.TID 0000.0001)  cg2d: iter=   115 ; resid.=  8.36578302952700E-12
(PID.TID 0000.0001)  cg2d: iter=   116 ; resid.=  6.18741011669777E-12
(PID.TID 0000.0001)  cg2d: iter=   117 ; resid.=  5.01166791228762E-12
(PID.TID 0000.0001)  cg2d: iter=   118 ; resid.=  3.78528964996285E-12
(PID.TID 0000.0001)  cg2d: iter=   119 ; resid.=  2.47771879782544E-12
(PID.TID 0000.0001)  cg2d: iter=   120 ; resid.=  1.72735039581160E-12
(PID.TID 0000.0001)  cg2d: iter=   121 ; resid.=  1.20464190994204E-12
(PID.TID 0000.0001)  cg2d: iter=   122 ; resid.=  8.44473186083587E-13
(PID.TID 0000.0001)  cg2d: iter=   123 ; resid.=  6.09234310714593E-13
(PID.TID 0000.0001)  cg2d: iter=   124 ; resid.=  4.45954644008671E-13
(PID.TID 0000.0001)  cg2d: iter=   125 ; resid.=  3.32822310443070E-13
(PID.TID 0000.0001)  cg2d: iter=   126 ; resid.=  2.56021829065209E-13
(PID.TID 0000.0001)  cg2d: iter=   127 ; resid.=  1.84446785465300E-13
(PID.TID 0000.0001)  cg2d: iter=   128 ; resid.=  1.44961993228779E-13
(PID.TID 0000.0001)  cg2d: iter=   129 ; resid.=  1.03600844759037E-13
(PID.TID 0000.0001)  cg2d: iter=   130 ; resid.=  8.10389958099217E-14
DEBUG_STATS_RL:    cg2d_x (SOLVE_FOR_PRESSURE)  min= -1.84568693362419E+01
DEBUG_STATS_RL:    cg2d_x (SOLVE_FOR_PRESSURE)  max=  1.07644821851760E+01
DEBUG_STATS_RL:    cg2d_x (SOLVE_FOR_PRESSURE) mean= -1.99804956108428E+00
DEBUG_STATS_RL:    cg2d_x (SOLVE_FOR_PRESSURE) S.D.=  7.66434116996590E+00
(PID.TID 0000.0001)      cg2d_init_res =   1.96786891255881E-01
(PID.TID 0000.0001)      cg2d_iters(min,last) =      -1     130
(PID.TID 0000.0001)      cg2d_last_res =   8.10389958099217E-14
(PID.TID 0000.0001) // =======================================================
(PID.TID 0000.0001) // Begin MONITOR dynamic field statistics
(PID.TID 0000.0001) // =======================================================
(PID.TID 0000.0001) %MON time_tsnumber                =                    90
(PID.TID 0000.0001) %MON time_secondsf                =   7.7760000000000E+06
(PID.TID 0000.0001) %MON dynstat_eta_max              =   1.0972968588355E+00
(PID.TID 0000.0001) %MON dynstat_eta_min              =  -1.8814341831032E+00
(PID.TID 0000.0001) %MON dynstat_eta_mean             =  -5.7598978672033E-03
(PID.TID 0000.0001) %MON dynstat_eta_sd               =   6.8214711745384E-01
(PID.TID 0000.0001) %MON dynstat_eta_del2             =   2.5133281450687E-03
(PID.TID 0000.0001) %MON dynstat_uvel_max             =   1.5708182733063E-01
(PID.TID 0000.0001) %MON dynstat_uvel_min             =  -1.3234591475391E-01
(PID.TID 0000.0001) %MON dynstat_uvel_mean            =   2.5733253495546E-03
(PID.TID 0000.0001) %MON dynstat_uvel_sd              =   1.3881458428891E-02
(PID.TID 0000.0001) %MON dynstat_uvel_del2            =   8.6324485175103E-05
(PID.TID 0000.0001) %MON dynstat_vvel_max             =   1.2333892283626E-01
(PID.TID 0000.0001) %MON dynstat_vvel_min             =  -7.8682464973706E-02
(PID.TID 0000.0001) %MON dynstat_vvel_mean            =   4.0149542978976E-05
(PID.TID 0000.0001) %MON dynstat_vvel_sd              =   7.9505656782295E-03
(PID.TID 0000.0001) %MON dynstat_vvel_del2            =   7.4482961981869E-05
(PID.TID 0000.0001) %MON dynstat_wvel_max             =   1.7010875423702E-04
(PID.TID 0000.0001) %MON dynstat_wvel_min             =  -5.4376555244861E-05
(PID.TID 0000.0001) %MON dynstat_wvel_mean            =  -5.8738592388705E-23
(PID.TID 0000.0001) %MON dynstat_wvel_sd              =   9.5377833139550E-06
(PID.TID 0000.0001) %MON dynstat_wvel_del2            =   9.6693329177544E-08
(PID.TID 0000.0001) %MON dynstat_theta_max            =   3.0095573246800E+01
(PID.TID 0000.0001) %MON dynstat_theta_min            =  -1.9087856995802E+00
(PID.TID 0000.0001) %MON dynstat_theta_mean           =   3.6215865201358E+00
(PID.TID 0000.0001) %MON dynstat_theta_sd             =   4.4230212125936E+00
(PID.TID 0000.0001) %MON dynstat_theta_del2           =   4.5963219024671E-03
(PID.TID 0000.0001) %MON dynstat_salt_max             =   3.7442899255754E+01
(PID.TID 0000.0001) %MON dynstat_salt_min             =   2.9893444748084E+01
(PID.TID 0000.0001) %MON dynstat_salt_mean            =   3.4717330761655E+01
(PID.TID 0000.0001) %MON dynstat_salt_sd              =   2.9629953593983E-01
(PID.TID 0000.0001) %MON dynstat_salt_del2            =   9.6103495141901E-04
(PID.TID 0000.0001) %MON dynstat_sst_max              =   3.0095573246800E+01
(PID.TID 0000.0001) %MON dynstat_sst_min              =  -1.9087856995802E+00
(PID.TID 0000.0001) %MON dynstat_sst_mean             =   1.8778022126482E+01
(PID.TID 0000.0001) %MON dynstat_sst_sd               =   9.3733472275458E+00
(PID.TID 0000.0001) %MON dynstat_sst_del2             =   2.3511233391878E-02
(PID.TID 0000.0001) %MON dynstat_sss_max              =   3.7406936390786E+01
(PID.TID 0000.0001) %MON dynstat_sss_min              =   2.9893444748084E+01
(PID.TID 0000.0001) %MON dynstat_sss_mean             =   3.4839167555476E+01
(PID.TID 0000.0001) %MON dynstat_sss_sd               =   9.8519351738133E-01
(PID.TID 0000.0001) %MON dynstat_sss_del2             =   7.6481377169521E-03
(PID.TID 0000.0001) %MON forcing_qnet_max             =   2.0863440348307E+02
(PID.TID 0000.0001) %MON forcing_qnet_min             =  -1.5786364237467E+02
(PID.TID 0000.0001) %MON forcing_qnet_mean            =  -1.7065559845698E+00
(PID.TID 0000.0001) %MON forcing_qnet_sd              =   3.9345736238707E+01
(PID.TID 0000.0001) %MON forcing_qnet_del2            =   7.8520764018377E-01
(PID.TID 0000.0001) %MON forcing_qsw_max              =   0.0000000000000E+00
(PID.TID 0000.0001) %MON forcing_qsw_min              =   0.0000000000000E+00
(PID.TID 0000.0001) %MON forcing_qsw_mean             =   0.0000000000000E+00
(PID.TID 0000.0001) %MON forcing_qsw_sd               =   0.0000000000000E+00
(PID.TID 0000.0001) %MON forcing_qsw_del2             =   0.0000000000000E+00
(PID.TID 0000.0001) %MON forcing_empmr_max            =   6.7762427609826E-05
(PID.TID 0000.0001) %MON forcing_empmr_min            =  -8.3472262701889E-05
(PID.TID 0000.0001) %MON forcing_empmr_mean           =   2.3647594609277E-07
(PID.TID 0000.0001) %MON forcing_empmr_sd             =   2.5588502568847E-05
(PID.TID 0000.0001) %MON forcing_empmr_del2           =   3.6361092950638E-07
(PID.TID 0000.0001) %MON forcing_fu_max               =   3.4838171601295E-01
(PID.TID 0000.0001) %MON forcing_fu_min               =  -4.0161942839622E-01
(PID.TID 0000.0001) %MON forcing_fu_mean              =   1.8676039943328E-02
(PID.TID 0000.0001) %MON forcing_fu_sd                =   1.0030398135610E-01
(PID.TID 0000.0001) %MON forcing_fu_del2              =   7.7661497197637E-04
(PID.TID 0000.0001) %MON forcing_fv_max               =   1.8195632894834E-01
(PID.TID 0000.0001) %MON forcing_fv_min               =  -1.4562365015348E-01
(PID.TID 0000.0001) %MON forcing_fv_mean              =  -7.0189020268222E-03
(PID.TID 0000.0001) %MON forcing_fv_sd                =   3.8838554387626E-02
(PID.TID 0000.0001) %MON forcing_fv_del2              =   4.1811090198709E-04
(PID.TID 0000.0001) %MON trAdv_CFL_u_max              =   4.2169743368574E-02
(PID.TID 0000.0001) %MON trAdv_CFL_v_max              =   2.5190536452258E-02
(PID.TID 0000.0001) %MON trAdv_CFL_w_max              =   3.7490059655456E-02
(PID.TID 0000.0001) %MON advcfl_uvel_max              =   4.3722599182553E-02
(PID.TID 0000.0001) %MON advcfl_vvel_max              =   2.3962774588584E-02
(PID.TID 0000.0001) %MON advcfl_wvel_max              =   3.9509380160257E-02
(PID.TID 0000.0001) %MON advcfl_W_hf_max              =   4.2414481642629E-02
(PID.TID 0000.0001) %MON pe_b_mean                    =   5.9548148079857E-04
(PID.TID 0000.0001) %MON ke_max                       =   1.3904228632654E-02
(PID.TID 0000.0001) %MON ke_mean                      =   1.1893181464268E-04
(PID.TID 0000.0001) %MON ke_vol                       =   1.3226782436723E+18
(PID.TID 0000.0001) %MON vort_r_min                   =  -3.8940573390637E-07
(PID.TID 0000.0001) %MON vort_r_max                   =   3.8389244726885E-07
(PID.TID 0000.0001) %MON vort_a_mean                  =  -2.5274807443532E-05
(PID.TID 0000.0001) %MON vort_a_sd                    =   7.3604680572912E-05
(PID.TID 0000.0001) %MON vort_p_mean                  =  -3.1845655857533E-05
(PID.TID 0000.0001) %MON vort_p_sd                    =   1.3162498050052E-04
(PID.TID 0000.0001) %MON surfExpan_theta_mean         =  -3.2632087673834E-07
(PID.TID 0000.0001) %MON surfExpan_salt_mean          =   1.3044711979593E-07
(PID.TID 0000.0001) // =======================================================
(PID.TID 0000.0001) // End MONITOR dynamic field statistics
(PID.TID 0000.0001) // =======================================================
(PID.TID 0000.0001) // =======================================================
(PID.TID 0000.0001) // Field Current uVel   at iteration         90
(PID.TID 0000.0001) // CMIN =         -1.323459147539071E-01
(PID.TID 0000.0001) // CMAX =          1.570818273306296E-01
(PID.TID 0000.0001) // CINT =          1.071954600313099E-02
(PID.TID 0000.0001) // SYMBOLS (CMIN->CMAX): -abcdefghijklmnopqrstuvwxyz+
(PID.TID 0000.0001) //                  0.0: .
(PID.TID 0000.0001) // RANGE I (Lo:Hi:Step):(     1:    90:     1)
(PID.TID 0000.0001) // RANGE J (Lo:Hi:Step):(    40:     1:    -1)
(PID.TID 0000.0001) // RANGE K (Lo:Hi:Step):(   1:   1:   1)
(PID.TID 0000.0001) // =======================================================
(PID.TID 0000.0001) K =   1
(PID.TID 0000.0001)                I=10      I=20      I=30      I=40      I=50      I=60      I=70      I=80      I=90
(PID.TID 0000.0001) |--J--|123456789|123456789|123456789|123456789|123456789|123456789|123456789|123456789|123456789|
(PID.TID 0000.0001)     40 lllll..llllllmmmmmm...................................................................llll
(PID.TID 0000.0001)     39 lmmmmnnnnmmmmm....l......................................................lll.........kjjkl
(PID.TID 0000.0001)     38 mnonmlllllllm............................................................lmml.......kkklmm
(PID.TID 0000.0001)     37 nnn...................................................................l....kl....kkkl..mnn
(PID.TID 0000.0001)     36 on..........................................kll.....................mllllllkkk..jkklmmmnno
(PID.TID 0000.0001)     35 nm..................................lll...lkkkll....kkll............ll.....mlllkkmnmmmnopn
(PID.TID 0000.0001)     34 ....................................lll..lllllll..lkkllll...................monnnnnnnnmm..
(PID.TID 0000.0001)     33 .....................................lmmmmmnnnnnmmmmmnnnnml..................nlnooonnmljk.
(PID.TID 0000.0001)     32 .....................................klmmmnooppoonoopppponm.................onnppppnmlkkm.
(PID.TID 0000.0001)     31 .....................................moppppppqqqqqqqrqqqpon...............nrsqstsrqonmmm..
(PID.TID 0000.0001)     30 ....................................qtttuttssrrrrrqqqppoonm.............ortttttttrqpoonn..
(PID.TID 0000.0001)     29 ..................................oruuuttssrrqpppoonmmmlllll............rrrqpoooooonnmmm..
(PID.TID 0000.0001)     28 ................................pqrqqppoonnmmnmmlllllkkkkkkkl..........ppomlllllmmmlllll..
(PID.TID 0000.0001)     27 ...............l...............prponnmmmmmmlmmlllllmmlllkkjjjk....mmm..oonnnmmmlllllkk....
(PID.TID 0000.0001)     26 ...............mn............jknnlkjjjklllllkkjjkjkkkjjjiiiiiklm..lllmnonmnnmllkkkkjih....
(PID.TID 0000.0001)     25 ...............onl....ml....khijkigggghhgggggffggghhhgggghhijlmmm....kkkijjkkjjjkkjiii....
(PID.TID 0000.0001)     24 .............nqqpnl..mnn....mm..mligghgfghhhgghijiiiijjkllmmmmmmlmml..llkklmmnmnnnnnnn....
(PID.TID 0000.0001)     23 .............oonnml..klm....mm...jiiihhhijjjjjkllkkklmopppqponlkkllml.....mmlmmmnnoppo....
(PID.TID 0000.0001)     22 n............jgefedegfgk....l..jgggggfefgfefgfghiihiklnpqqqponllkkkkjj.......miffgjmppponn
(PID.TID 0000.0001)     21 noo.........hffddb-bdfgkl......khkkihgfffffefeffffgghhjlmlmkklmnnmlkkk.........faaejllnqpo
(PID.TID 0000.0001)     20 lmm........kjkkkjjfghklnn.........mlmmlkklmkkjjiihhggghihghghijllkiiij..........gceghhikkk
(PID.TID 0000.0001)     19 jml........kiikllmkkkmllmnl....hm......oopqqpoonmlkjiijjhhhgffghgggggi............ihhghhhi
(PID.TID 0000.0001)     18 jll........kfdfhhjijkjkkkkjjjihgk....lmmmmnonnmlkjjjjijjiiiiiijihhhhhij...........lkkjjjii
(PID.TID 0000.0001)     17 jjk..........feefgehigiiiiiiiii......jjjjjjkkjjihhhihhhhhhhiiijjiijjjkk..........mljiiiiii
(PID.TID 0000.0001)     16 fgh.......n..lhggggghiiiiijkjk........kjjjjjjjjjjjijjjjihhhhhhiihhiijijk.........mljhggggg
(PID.TID 0000.0001)     15 edei.....lm..onnmkmmmnmmlllll..........kkllmmmnoonnnnnmllkkkkjkjjjiiihghk.......knmlkjihgg
(PID.TID 0000.0001)     14 ihgh.....lkkkmnnnmoonnmmmmmll..........mklnnoooppppppoonnnnmmlllkkkkjjiij......kkmmmlkjjii
(PID.TID 0000.0001)     13 kjih.....mkjjkkkklmmmlklmmlll..........mlmnnooonoonnnnnnoononnmlklmmlllkl.....kllmmllllkkk
(PID.TID 0000.0001)     12 nmlkjljkloonmmmmmmmmmmmnonmmlllmll.....nnnnmnnnnnnnmmmnnnoopponmmmnnnmml......nopppooooooo
(PID.TID 0000.0001)     11 sqppommprvvvvvusrrrrqqrrrqqqppoooml...mnonl..oooonnmmnnnnnopppoooooponml.....npstuutttssss
(PID.TID 0000.0001)     10 tssrrstvwxz+++zxxxyxvuuuutssrrrqponm..noonm..pqonmmnnnnnmmnoooopppoooonn...noortuvvwwwvuuu
(PID.TID 0000.0001)      9 uttttuuuuvvvuvvutuwwvuuuutttsssrrqponnnnnm..pponnnnnnnnoonnnnooooonnnnnl..nnnpqrsstuvvvvvu
(PID.TID 0000.0001)      8 stuuutssttsrrrrqqoorttttsttttsssttttsssrqpopppoppqqqqqpqqqqppppppoooonnm..mllopppqrssttttt
(PID.TID 0000.0001)      7 rrssrqqrrrrrqqqqqpoopqqqqrrrrrssttuvvuuuvuutrrrrrsttuuutttsrrrrrrrrrrqrsrqqpqqqpppqqqqrrrr
(PID.TID 0000.0001)      6 ooonnooppqqppooppqpnnmnnoooopqrrrsssssstvwwvuttttuuuvwvvutsssssssstttuuvwwwwwvsqpppooooppp
(PID.TID 0000.0001)      5 mllllmmmnnnmmmmmnnnnmllllllmmnooooppopqrsttuutttuuuttsrrrrrrrsssssssttuuutsstrponnnnnnnnnm
(PID.TID 0000.0001)      4 kkjjkkkllllllllllmmmlllkkklllllllmmmmmmnnnoopqqqqqpoonmmnoppqqqqqqqqqqqpon...lmmllllllllkk
(PID.TID 0000.0001)      3 kkkkkllkll.............................lllllmmmmmmllkkkllmmnnnnnnnmmmmmmm...lklllllllllkkk
(PID.TID 0000.0001)      2 ...........................................kklllllkkkkkkkkllllll...lll......llkklllllll...
(PID.TID 0000.0001)      1 ..........................................................................................
(PID.TID 0000.0001) // =======================================================
(PID.TID 0000.0001) // END OF FIELD                                          =
(PID.TID 0000.0001) // =======================================================
(PID.TID 0000.0001) 
(PID.TID 0000.0001) // =======================================================
(PID.TID 0000.0001) // Field Current vVel   at iteration         90
(PID.TID 0000.0001) // CMIN =         -7.251760121665006E-02
(PID.TID 0000.0001) // CMAX =          1.233389228362596E-01
(PID.TID 0000.0001) // CINT =          7.253945335292951E-03
(PID.TID 0000.0001) // SYMBOLS (CMIN->CMAX): -abcdefghijklmnopqrstuvwxyz+
(PID.TID 0000.0001) //                  0.0: .
(PID.TID 0000.0001) // RANGE I (Lo:Hi:Step):(     1:    90:     1)
(PID.TID 0000.0001) // RANGE J (Lo:Hi:Step):(    40:     1:    -1)
(PID.TID 0000.0001) // RANGE K (Lo:Hi:Step):(   1:   1:   1)
(PID.TID 0000.0001) // =======================================================
(PID.TID 0000.0001) K =   1
(PID.TID 0000.0001)                I=10      I=20      I=30      I=40      I=50      I=60      I=70      I=80      I=90
(PID.TID 0000.0001) |--J--|123456789|123456789|123456789|123456789|123456789|123456789|123456789|123456789|123456789|
(PID.TID 0000.0001)     40 ijnol.kjjjjjkl...jj..................................................................iiikj
(PID.TID 0000.0001)     39 jjmnnkjihihik...........................................................jiij........fiijkk
(PID.TID 0000.0001)     38 jlm.......................................................................jhj......jh.mlkk
(PID.TID 0000.0001)     37 kn...................................................................jj...iii...ejonk.mmkk
(PID.TID 0000.0001)     36 jk.........................................lllk....................kij....ffhi.cdknllllmmj
(PID.TID 0000.0001)     35 ...................................jjjj..kkklllk...ffkmm...................ghhhhillkkkno..
(PID.TID 0000.0001)     34 ....................................jji.jjiijjjj.gfggikkk...................ifhhijkkjikm..
(PID.TID 0000.0001)     33 ....................................kihijihghhgffedeffgghjj.................qeghghhhfeejl.
(PID.TID 0000.0001)     32 ....................................jjhghhgfeedccccdeeeffgi................pmdeffeedddej..
(PID.TID 0000.0001)     31 ....................................mkhgghgfeedddeefgghhgfh..............kljhggfffffffhk..
(PID.TID 0000.0001)     30 ...................................npliijkjhhiiiihhijkkjhff............nqmmjhhhghhhhiikk..
(PID.TID 0000.0001)     29 .................................onnmkjjllkjiklkkjjkkkjjigfg...........ppljhhhhiiiiiijlk..
(PID.TID 0000.0001)     28 ...............................pomkkiiiijjihhijjllkkkkjiiihgg.........lljhggffgikkjkjj....
(PID.TID 0000.0001)     27 ..............ij..............qqmkjkkkkklkiijkklnnnmmmllkjihgh...klmn.lkihhhhhjlmmllkj....
(PID.TID 0000.0001)     26 ..............jjk...........gjopljklmnoponllmnopoonmmnmlljiihhij....nmkjllkkkkllmlkjhg....
(PID.TID 0000.0001)     25 ..............mlkj...llk...gej.ohhkmmnpponmlmmmmnmlkjkkjjiiijjjji....mllkihhghiiiigffg....
(PID.TID 0000.0001)     24 ............oqsspnn.nool...ljl..gfjllmnnnoooooooppomlmmmmnnonmmkijjk.....nmklmoppoonkj....
(PID.TID 0000.0001)     23 ............uyzyuqr.nppm...ll...ehostuvvuvwxxxxxyxxvtvvwyywvuspnmmnnl.......stwyzzxuqk....
(PID.TID 0000.0001)     22 j...........rxyvsnmiimpp......ieekrwyzzyvttuvvuuuuutssstttssqpnmkklmie........qtxzywtqolki
(PID.TID 0000.0001)     21 hhj........lmoomkigffhjke......-.knrvwwsomlllllmmlllllmmmmmmkjiiiijihf.........mpvtqomllji
(PID.TID 0000.0001)     20 fik.......llnmiedeefffddc......-......nmllmlkkkkjihiigggfddddcbceffggg...........toigfefee
(PID.TID 0000.0001)     19 dfj.......mntsnjiiijjkifgkl...efj.....mnmnoooonmmlklljihfeeedbaabbbcfi...........omhedcbcd
(PID.TID 0000.0001)     18 ghj.......m.uupomlkkklljjklkjhf.....llnmmlmnnnmmmmmnnnnmlkkljihgfddehij..........npnlkjhhh
(PID.TID 0000.0001)     17 nml.......l.mpkiijhihgihgggggh.......jihhhijjjihhijjjkkkkjkkkklkjhhilml.........ikmmmnmlmn
(PID.TID 0000.0001)     16 kmm......ik.ghfgheefddfgfffeh.........fddfgggiihffghiiiiiikjjjkkiiijlnnk........giiijkkjjk
(PID.TID 0000.0001)     15 ijkj....ikm.hijjifhjhfghihgef.........fdfgggikkjhhiijkjiikkjjllkjijjkklkj......ghklkkmllkj
(PID.TID 0000.0001)     14 kklj....ggkjhkllkijlkhhklkigg.........gegiiiikkkjijjjjjjjjjijlkjkjkjjjkkj.....efhkmllllmmk
(PID.TID 0000.0001)     13 kkll....aeigfhjjjiiihhhjlkjii.........fehjjhhiiiiihhhhhhhghghihikkjjjjll.....gcffhihijjklk
(PID.TID 0000.0001)     12 mlkklgbcafjighklllkkjjklnmlkjiiijk....ffhji.hhiiihgghhhhhghhhggjmmkkklmk.....gggghihijjklm
(PID.TID 0000.0001)     11 pponmkjijloomlnpqqppppppqqqomllkkll..hgijkj.ikjikjjiijjkllklkjjmpponmmmk....ijmmlklllmnoqq
(PID.TID 0000.0001)     10 rrrsrpnmpsutrqpruurqrttssssrqpnmmmop.kjlkk..polklmmmmmlmooponmmprsqponmk..nqnpsrpooonoqsss
(PID.TID 0000.0001)      9 ppqssqnmosttsronv+snoqssrrqqqonmmlnqpmklll.rspllllllmmmnnoponmnorqpoomji.mqrsturooppnnpssr
(PID.TID 0000.0001)      8 pppoonmmmopqpomkp+yqooopppoonnmlkkmpolihimsuqommmlkkkllmmmmmlklmoonmlkgh.npruvtqnnonmmnprq
(PID.TID 0000.0001)      7 qpnlllmmmmnonmkkkqwuqnmnnnmmmmmlllnpnkhghkoqponnnnmllkjkkkklkklllmllkjjjnqoruurpnnnmlmnnop
(PID.TID 0000.0001)      6 nmkkklmmmllllkjjkmopomllkjjkllllkklnmlkjjklmmnooopppomkjihikllkllmmlkklnpqprqoomllmlllmnmm
(PID.TID 0000.0001)      5 kjiijjjkkjiiihhhijjkjiigfgghiiiiiiijkkkkklkjjlnooooonlkjiijkllkkllllllmnmn..liklkkkkkllkkj
(PID.TID 0000.0001)      4 feefffeefg............................ihijjjjklmmmllkjjjjjjjkjjijjkkkjjjj...kjjjjjjjjiihgf
(PID.TID 0000.0001)      3 ..........................................jjjjjjjjiihhhhhhhhghhh..jihi.....jlljjiiiihhh...
(PID.TID 0000.0001)      2 ..........................................................................................
(PID.TID 0000.0001)      1 ..........................................................................................
(PID.TID 0000.0001) // =======================================================
(PID.TID 0000.0001) // END OF FIELD                                          =
(PID.TID 0000.0001) // =======================================================
(PID.TID 0000.0001) 
(PID.TID 0000.0001) // =======================================================
(PID.TID 0000.0001) // Field Current theta  at iteration         90
(PID.TID 0000.0001) // CMIN =         -1.908785699580225E+00
(PID.TID 0000.0001) // CMAX =          3.009557324680025E+01
(PID.TID 0000.0001) // CINT =          1.185346627643721E+00
(PID.TID 0000.0001) // SYMBOLS (CMIN->CMAX): -abcdefghijklmnopqrstuvwxyz+
(PID.TID 0000.0001) //                  0.0: .
(PID.TID 0000.0001) // RANGE I (Lo:Hi:Step):(     1:    90:     1)
(PID.TID 0000.0001) // RANGE J (Lo:Hi:Step):(    40:     1:    -1)
(PID.TID 0000.0001) // RANGE K (Lo:Hi:Step):(   1:   1:   1)
(PID.TID 0000.0001) // =======================================================
(PID.TID 0000.0001) K =   1
(PID.TID 0000.0001)                I=10      I=20      I=30      I=40      I=50      I=60      I=70      I=80      I=90
(PID.TID 0000.0001) |--J--|123456789|123456789|123456789|123456789|123456789|123456789|123456789|123456789|123456789|
(PID.TID 0000.0001)     40 -abccbaa-----aaccddbbbbbbbbbbbbbbbbbbbbbbbbbbbbbbbbbbbbbbbbbbbbbbbbbbbbbbbbbbbbbbbbbbaa---
(PID.TID 0000.0001)     39 bbccccbbaaa---bbbddbbbbbbbbbbbbbbbbbbbbbbbbbbbbbbbbbbbbbbbbbbbbbbbbbbbbb----bbbbbbbba---aa
(PID.TID 0000.0001)     38 deeeeecccbbbbbbbbbbbbbbbbbbbbbbbbbbbbbbbbbbbbbbbbbbbbbbbbbbbbbbbbbbbbbbb-a---bbbbbbbaaabcd
(PID.TID 0000.0001)     37 fggbbbbbbbbbbbbbbbbbbbbbbbbbbbbbbbbbbbbbbbbbbbbbbbbbbbbbbbbbbbbbbbbbbbbbbbbabbbbdcceebddee
(PID.TID 0000.0001)     36 ggbbbbbbbbbbbbbbbbbbbbbbbbbbbbbbbbbbbbbbbbbcbaabbbbbbbbbbbbbbbbbbbbccccbbcbbbdbdefgghhhhgg
(PID.TID 0000.0001)     35 ggbbbbbbbbbbbbbbbbbbbbbbbbbbbbbbbbbaaaabbbbcccbabbbeeeffbbbbbbbbbbbbbbbbbbccdddeefghiiiihh
(PID.TID 0000.0001)     34 bbbbbbbbbbbbbbbbbbbbbbbbbbbbbbbbbbb----bbcddddddbddeeffggbbbbbbbbbbbbbbbbbbcbcdefghiijjjbb
(PID.TID 0000.0001)     33 bbbbbbbbbbbbbbbbbbbbbbbbbbbbbbbbbbbb-abbccdddeeeeeffffgghhibbbbbbbbbbbbbbbbbbbdfhijkkkkkkb
(PID.TID 0000.0001)     32 bbbbbbbbbbbbbbbbbbbbbbbbbbbbbbbbbbbbabbccdeeefffgggghhhhiiibbbbbbbbbbbbbbbbddccikllmlllkkb
(PID.TID 0000.0001)     31 bbbbbbbbbbbbbbbbbbbbbbbbbbbbbbbbbbbbeffggghhhiiiiiijjjkkkkkbbbbbbbbbbbbbbgjlkgjmnnnnnmmmbb
(PID.TID 0000.0001)     30 bbbbbbbbbbbbbbbbbbbbbbbbbbbbbbbbbbblkkkkklkllllllllllmmmmmlbbbbbbbbbbbbmnnoppopppppooooobb
(PID.TID 0000.0001)     29 bbbbbbbbbbbbbbbbbbbbbbbbbbbbbbbbbnoooonnnnnnnnnnnnnnooooonmmbbbbbbbbbbbpqqqqqqqqqqppppopbb
(PID.TID 0000.0001)     28 bbbbbbbbbbbbbbbbbbbbbbbbbbbbbbbnpqqqqqppqqqqqqqqqqqqqqqqpponnbbbbbbbbbrssrrrsrrrrrqqqqqpbb
(PID.TID 0000.0001)     27 bbbbbbbbbbbbbbvvbbbbbbbbbbbbbbrrsssssssssttssttstttssssrrqqpppbbbssttbtuutttuttttsssrrbbbb
(PID.TID 0000.0001)     26 bbbbbbbbbbbbbbvvvbbbbbbbbbbbuuuuuuuvvvvvvvvvuuuuuuuutttsssrrrrsubuuvwvvvvvvvvuuuutssrrbbbb
(PID.TID 0000.0001)     25 bbbbbbbbbbbbbbwwwwbbbxxxbbbvvwwxwwxxxxxxwwwwwwwvvvvvuuuutttttuvvwbbbxxxwwwwvvvvuuutsrqbbbb
(PID.TID 0000.0001)     24 bbbbbbbbbbbbxxxxyyzbxyyybbbwxxbxxxyyyxxxxxxxxxwwwwwvwwwwwwwwwwxxxxwwbxwwwwwwwwvvvvuuusbbbb
(PID.TID 0000.0001)     23 bbbbbbbbbbbbxxyyzzzbyyyybbbxxxbbyyyyyyyyyyyxxxxxxxxxxxxxxxxxxxxxxxxwwbbbbwwwwwwwwwwwwvbbbb
(PID.TID 0000.0001)     22 wbbbbbbbbbbbyxyyzzzzyyzzbbbyybzyyyyzzzzzzzyyyyyyyyyyxyxxxxxxxxxwwxwwwvbbbbbbxxxxxxxxxxxyyx
(PID.TID 0000.0001)     21 xwxbbbbbbbbyyyyyyyzzzzzz+bbbbbzzzzzzz++++zzzzzyyyyyyyyyyyyyxxxxxwwwvvubbbbbbbbyyyyyyyyzyyx
(PID.TID 0000.0001)     20 wwwbbbbbbbyzzzzzzzzzzzzz+bbbbbbzbz+++++++++zzzzzzzzzyyyyyyxxxxwwwwwwvubbbbbbbbbyzyyyyyyxxx
(PID.TID 0000.0001)     19 wvwbbbbbbbzzzzyyzzzzzzzzzzzbbb+zzbbbbb+++++++++++zzzzzyyyyyxxxwwwwwvvubbbbbbbbbbbyyyxxxwww
(PID.TID 0000.0001)     18 vvvbbbbbbbzzyyyyyyyzzzzzzzzzz++zzbbb+++++++++++++zzzzzzyyyyyxxxwwwwvvutbbbbbbbbbbyyyxxxwww
(PID.TID 0000.0001)     17 vvvbbbbbbbzbyyyyyyyyyyyyyzzzzzzbbbbbzzzzzzzzzzzzzzzzzzyyyyyxxxwwvvvvuuubbbbbbbbbyyyyxwwwwv
(PID.TID 0000.0001)     16 uttbbbbbbyzbyyxxxxxxxxxxxxxyyzbbbbbbbyyyyyyyzyzzzyyzzyyyyyyyxxwwwvvuuuttbbbbbbbbyyyyyxwwwv
(PID.TID 0000.0001)     15 utrrbbbbxxxbxxxxxwxxwwwvvvvwxbbbbbbbbbwxxxxxxxxyxxyxyyxyyyyyxxwwwvuuutsssbbbbbbxxyyyyxxwvv
(PID.TID 0000.0001)     14 utrqbbbbwxwwwxwwwwwwvvvvuuuuubbbbbbbbbwwwwwwwwwwwwwwwwwwxxxwwwwwwvvutssssbbbbbwwxxxxxxwwvv
(PID.TID 0000.0001)     13 utsqbbbbvwvvwwuuuvvuuuuttttttbbbbbbbbbvvvvvvvvvuuvuuvvvvvwvvvvvvuuuutssrqbbbbvvwwwwwwwwvvu
(PID.TID 0000.0001)     12 ssssssstuutttutsssssstsrrrrrrqqrrqbbbbuuuttttttsstssssstttttssssssssssrqbbbbbuvvuuttuuuttt
(PID.TID 0000.0001)     11 qppqrrsssssrrsrqqqpopppppppppqqqqqqbbssssssbrrrrrrrrrrrrqqqqqqqqppqrrrqpbbbbprsssrrrrrrqqq
(PID.TID 0000.0001)     10 mlllmnooooonnoonnmnnmmmmmlllmnnnoooobqqqqqqbppqpppppppppoooooooonnnooooobbnooppoooonooonnm
(PID.TID 0000.0001)      9 iiiiiijjjiiiiijjiiijjjiiiiiiijkklllllmnnnobnmnnnnnnnnnnnmmmllmmlllllllmmbmmmmmmllkkjjkkjii
(PID.TID 0000.0001)      8 fffffffgfffgggghgffggggfffggghiiiiiijjkkkllkklllkkkllkkkkjjiiiijjjjjjjkkbjjjjiihhhgggggfee
(PID.TID 0000.0001)      7 dddddeeeefeeeffffeeeeeeeeeeffffgggggghhiiiiiiijjiiiihhhhhhhhhhhhhhhhhiijiiihhggffeeeeeeddd
(PID.TID 0000.0001)      6 ccccddddddddddeeeeddddddddddddeeeeeeffffgggggggggfffffffffffffeffgggggggggggffeedddddccccc
(PID.TID 0000.0001)      5 ccccccccddddddddddcccccccccccdddddddddddeeeeeeeddddccddddeeddddeeeeeeeeeeeedddcccccccbcccc
(PID.TID 0000.0001)      4 bbbbbbbbbbbbbbbbbbbbbbbabbabbbbcbbbbbbbbccccccbbbbbbbbbcccccccccccccccccccbbaaaabbbbbbbbbb
(PID.TID 0000.0001)      3 aaaaaaaaaabbbbbbbbbbbbbbbbbbbbbbbbbbbbbbaaaaaaaaaaaaaaaaaaaaaaaaaaaaaabbbbba--aaaaaaaaaaaa
(PID.TID 0000.0001)      2 bbbbbbbbbbbbbbbbbbbbbbbbbbbbbbbbbbbbbbbbbb---aaaaaaaaaaaaaaabbbbbbaaaabbbbb---aaaaaaaaabbb
(PID.TID 0000.0001)      1 bbbbbbbbbbbbbbbbbbbbbbbbbbbbbbbbbbbbbbbbbbbbbbbbbbbbbbbbbbbbbbbbbbbbbbbbbbbbbbbbbbbbbbbbbb
(PID.TID 0000.0001) // =======================================================
(PID.TID 0000.0001) // END OF FIELD                                          =
(PID.TID 0000.0001) // =======================================================
(PID.TID 0000.0001) 
(PID.TID 0000.0001) // =======================================================
(PID.TID 0000.0001) // Field Current etaN   at iteration         90
(PID.TID 0000.0001) // CMIN =         -1.881434183103222E+00
(PID.TID 0000.0001) // CMAX =          1.097296858835469E+00
(PID.TID 0000.0001) // CINT =          1.103233719236552E-01
(PID.TID 0000.0001) // SYMBOLS (CMIN->CMAX): -abcdefghijklmnopqrstuvwxyz+
(PID.TID 0000.0001) //                  0.0: .
(PID.TID 0000.0001) // RANGE I (Lo:Hi:Step):(    -1:    92:     1)
(PID.TID 0000.0001) // RANGE J (Lo:Hi:Step):(    42:    -1:    -1)
(PID.TID 0000.0001) // RANGE K (Lo:Hi:Step):(   1:   1:   1)
(PID.TID 0000.0001) // =======================================================
(PID.TID 0000.0001) K =   1
(PID.TID 0000.0001)                I=8       I=18      I=28      I=38      I=48      I=58      I=68      I=78      I=88
(PID.TID 0000.0001) |--J--|101234567|901234567|901234567|901234567|901234567|901234567|901234567|901234567|901234567|9012
(PID.TID 0000.0001)     42 ............................................aaaaaabbbbcccccccccccc..dddd.....aaaaaaaabaaa.....
(PID.TID 0000.0001)     41 ..............................................................................................
(PID.TID 0000.0001)     40 hhhgghh.hgggggggggggg..................................................................hhhhhhg
(PID.TID 0000.0001)     39 hhggghhhhhhhgghh...gg.....................................................dddd........iihhhhgg
(PID.TID 0000.0001)     38 hhhhiiiiiiiiihi...........................................................eeeee......ihggghhhh
(PID.TID 0000.0001)     37 hhiij..................................................................ff...ffe...ghghg.ghhhii
(PID.TID 0000.0001)     36 iiik.........................................pppp....................gggggfeeffe.ifefhhihiiiik
(PID.TID 0000.0001)     35 jkkj.................................pppp..opppppp...sqqrr...........hhh....geeeeeefgghhiijkkj
(PID.TID 0000.0001)     34 .....................................pppp.pppppppp.qppppqrs..................gffeeefghijjl....
(PID.TID 0000.0001)     33 k.....................................qqppppppppppqqpppqqrrst.................igggghijjkkjk...
(PID.TID 0000.0001)     32 l.....................................qqpppppppqqqqqqqqrrrsss................ekiiijkklllkkl...
(PID.TID 0000.0001)     31 ......................................pqqqqqqrrrrrrrrrsssssss..............jkkkkkkllllllkk....
(PID.TID 0000.0001)     30 .....................................qrssrrssssssssttttttttts............ilklnnnnnnmmmmlll....
(PID.TID 0000.0001)     29 ...................................tuuvvvuuuvuuuuuuuuuuuuuuuts...........knoooooonnnnmmmlm....
(PID.TID 0000.0001)     28 .................................tvwwxxxxwwwwwwvvvvvvuuuuuuutts.........nnooooooooonnmmmml....
(PID.TID 0000.0001)     27 ................rr..............wxxyyyyyyxxxxxxwwwwwvvvvvuuuutts...oooo.oppppppoonnnnmml......
(PID.TID 0000.0001)     26 ................rrr...........zyyyyyyyzzyyyyyxxxwwwwwwwvvvuuuttttt.ooopqpppqqpppooonnnmm......
(PID.TID 0000.0001)     25 ................rrrs...ttt...zyyxzzyyyyzzyyyyyxxxwwwwwwwvvvuuuuttuu...pqqqqqqqppoooonnmm......
(PID.TID 0000.0001)     24 ..............sssssst.ttuu...zzy.+zyyyyyyyyyyxxxwwwwwwvvvvvvuuuuuuuuuu.ppppppqpppoooonnn......
(PID.TID 0000.0001)     23 ..............ssssttt.tttt...zzy..zyyyyyxyyxxxxwwwwwwwvvvvvvvuuuuuuuuuu....pppppppoooooo......
(PID.TID 0000.0001)     22 qpp...........sssssttttttt...zz.zyyxxxxxxxxxwwwwwwwwwwwwwvvvvvvuuuuuuuut......pppppppppppqqpp.
(PID.TID 0000.0001)     21 ppppp........ttsssssssssttt.....zyyyxxxxwwwwwwwwwwwwwwwvvvvvvuuuuuuutttt........ppppppppqppppp
(PID.TID 0000.0001)     20 ppppp.......utttssssssssstt......x.yyyxxxwwwwwwwwwwwwwvvvvuuuuuttttttttt.........qqqqppppppppp
(PID.TID 0000.0001)     19 ooopp.......uttssrrsssstssttt...vww.....yxxxxxxxxxxwwwwvvvuuuutttttttttt...........qqppppoooop
(PID.TID 0000.0001)     18 oooop.......uuutsssstttttttttttuuww...xyxxxxxxxxxxxwwwwwvvvvvuuutttttttss..........rqqppoooooo
(PID.TID 0000.0001)     17 poooo.......v.wuttttttutttttttuuu.....xxwwwwxxxxxxwwwwwwvvvvvvuuuuttttttt.........ssrqqppppooo
(PID.TID 0000.0001)     16 pppoo......wv.wuuuuuuuuttttttttu.......wwwwwwwwwwxwwwwwwwwwwwvvvuuuuutttss........ssrrrqqqpppo
(PID.TID 0000.0001)     15 qqppoo....vvu.uuuuuuuuttttssrst.........vvvwwwwwwwwwwwwwwwwwwwwvvuuuuuttssr......rsssssrrrqqpp
(PID.TID 0000.0001)     14 rqqpon....uuutuuuuuuutsstssrrrr.........uvvvvvwvvvvwwwwwwwwwwwwwvvuuuuuttss.....rsssssssssrqqp
(PID.TID 0000.0001)     13 srrqpo....tvuuuutttttsssttsrqqq.........tuuuuuuuuuuuuuuvvvvwwwwwvvvuuutttss....prssssstttssrrq
(PID.TID 0000.0001)     12 srrqqppmpqtuuttttsssssssssrrqqqpqqqp....rtttsstttttttttuuuuuuuuuvvuuttttsr.....qrrsssssssssrrq
(PID.TID 0000.0001)     11 rqqppppqrrsttsssssssssrrrrrrqqppqqqqq..qrrssr.rssssssstttttttttuuvutttsssr....oqqqqqqrrrrrrqqp
(PID.TID 0000.0001)     10 poonnnnoopppponopppppppppppppooopppqpp.pqrrss.rrqrsssstttttttttttutsrrrrrs..rooponnnoooppppoon
(PID.TID 0000.0001)      9 lkllllkkklmlkjjjjkkjjklmmmmmmmmmnoppqpppqqqq.srpqrrsssssttttsssssssrqqqqqp.ooonnlkkkkkklmllkll
(PID.TID 0000.0001)      8 gggghgggghhhhhggghjgeghhiiiiijjjklmmnonnopqrrpooppqqqrrrrrrrrqqqqrqqppppqt.ponmkihghggghhhgggg
(PID.TID 0000.0001)      7 ddcccccdeeeeeedeefghfddddeeeeffgghhiiihijlnonnmmmmmmmnnnnonnnnnnnnnnnnnoopqonnlihfeeddddddddcc
(PID.TID 0000.0001)      6 bba--abbbccccccccddedccccccccdddeeeeeeeefghijjjjjjjjiiihiiijjkkkkkkkkkkkllkkjigfdcccbbbccbbba-
(PID.TID 0000.0001)      5 aaa-aaabbbbbbbbbbcccccbbbabbbbbbbbbbccccccddeefggffeedcccdefggggggggggggggfedcaaaaaaaaaaaaaaa-
(PID.TID 0000.0001)      4 aaaaaaaabbbbbcccbbbbbbbbbbcbbbbbbbbbaaaaaabbbbbcccbbbabbbccddddddeeeedddddde..-aaaaaaaaaaaaaaa
(PID.TID 0000.0001)      3 bbbbbbbbbbbb............................aaaaaaaaaaaaaabbbbbccccccccdddddded..baaaaaaaaaaaabbbb
(PID.TID 0000.0001)      2 ............................................aaaaaabbbbcccccccccccc..dddd.....aaaaaaaabaaa.....
(PID.TID 0000.0001)      1 ..............................................................................................
(PID.TID 0000.0001)      0 hhhgghh.hgggggggggggg..................................................................hhhhhhg
(PID.TID 0000.0001)     -1 hhggghhhhhhhgghh...gg.....................................................dddd........iihhhhgg
(PID.TID 0000.0001) // =======================================================
(PID.TID 0000.0001) // END OF FIELD                                          =
(PID.TID 0000.0001) // =======================================================
(PID.TID 0000.0001) 
(PID.TID 0000.0001)  MDS_WRITE_FIELD: it,rec,kS,kL,kH=      90     1  15   1  15 file=U.0000000090
(PID.TID 0000.0001)  MDS_WRITE_FIELD: it,rec,kS,kL,kH=      90     1  15   1  15 file=V.0000000090
(PID.TID 0000.0001)  MDS_WRITE_FIELD: it,rec,kS,kL,kH=      90     1  15   1  15 file=T.0000000090
(PID.TID 0000.0001)  MDS_WRITE_FIELD: it,rec,kS,kL,kH=      90     1  15   1  15 file=S.0000000090
(PID.TID 0000.0001)  MDS_WRITE_FIELD: it,rec,kS,kL,kH=      90     1   1   1   1 file=Eta.0000000090
(PID.TID 0000.0001)  MDS_WRITE_FIELD: it,rec,kS,kL,kH=      90     1  15   1  15 file=W.0000000090
(PID.TID 0000.0001)  MDS_WRITE_FIELD: it,rec,kS,kL,kH=      90     1  15   1  15 file=PH.0000000090
(PID.TID 0000.0001)  MDS_WRITE_FIELD: it,rec,kS,kL,kH=      90     1   1   1   1 file=PHL.0000000090
(PID.TID 0000.0001)  MDS_WRITE_FIELD: it,rec,kS,kL,kH=      90     1   1   1   1 file=ETAtave.0000000090
(PID.TID 0000.0001)  MDS_WRITE_FIELD: it,rec,kS,kL,kH=      90     1  15   1  15 file=Ttave.0000000090
(PID.TID 0000.0001)  MDS_WRITE_FIELD: it,rec,kS,kL,kH=      90     1  15   1  15 file=Stave.0000000090
(PID.TID 0000.0001)  MDS_WRITE_FIELD: it,rec,kS,kL,kH=      90     1  15   1  15 file=uVeltave.0000000090
(PID.TID 0000.0001)  MDS_WRITE_FIELD: it,rec,kS,kL,kH=      90     1  15   1  15 file=vVeltave.0000000090
(PID.TID 0000.0001)  MDS_WRITE_FIELD: it,rec,kS,kL,kH=      90     1  15   1  15 file=wVeltave.0000000090
(PID.TID 0000.0001)  MDS_WRITE_FIELD: it,rec,kS,kL,kH=      90     1   1   1   1 file=Eta2tave.0000000090
(PID.TID 0000.0001)  MDS_WRITE_FIELD: it,rec,kS,kL,kH=      90     1  15   1  15 file=UTtave.0000000090
(PID.TID 0000.0001)  MDS_WRITE_FIELD: it,rec,kS,kL,kH=      90     1  15   1  15 file=VTtave.0000000090
(PID.TID 0000.0001)  MDS_WRITE_FIELD: it,rec,kS,kL,kH=      90     1  15   1  15 file=WTtave.0000000090
(PID.TID 0000.0001)  MDS_WRITE_FIELD: it,rec,kS,kL,kH=      90     1  15   1  15 file=UStave.0000000090
(PID.TID 0000.0001)  MDS_WRITE_FIELD: it,rec,kS,kL,kH=      90     1  15   1  15 file=VStave.0000000090
(PID.TID 0000.0001)  MDS_WRITE_FIELD: it,rec,kS,kL,kH=      90     1  15   1  15 file=WStave.0000000090
(PID.TID 0000.0001)  MDS_WRITE_FIELD: it,rec,kS,kL,kH=      90     1  15   1  15 file=TTtave.0000000090
(PID.TID 0000.0001)  MDS_WRITE_FIELD: it,rec,kS,kL,kH=      90     1  15   1  15 file=UUtave.0000000090
(PID.TID 0000.0001)  MDS_WRITE_FIELD: it,rec,kS,kL,kH=      90     1  15   1  15 file=VVtave.0000000090
(PID.TID 0000.0001)  MDS_WRITE_FIELD: it,rec,kS,kL,kH=      90     1  15   1  15 file=UVtave.0000000090
(PID.TID 0000.0001)  MDS_WRITE_FIELD: it,rec,kS,kL,kH=      90     1  15   1  15 file=Tdiftave.0000000090
(PID.TID 0000.0001)  MDS_WRITE_FIELD: it,rec,kS,kL,kH=      90     1  15   1  15 file=PhHytave.0000000090
(PID.TID 0000.0001)  MDS_WRITE_FIELD: it,rec,kS,kL,kH=      90     1   1   1   1 file=PHLtave.0000000090
(PID.TID 0000.0001)  MDS_WRITE_FIELD: it,rec,kS,kL,kH=      90     1   1   1   1 file=uFluxtave.0000000090
(PID.TID 0000.0001)  MDS_WRITE_FIELD: it,rec,kS,kL,kH=      90     1   1   1   1 file=vFluxtave.0000000090
(PID.TID 0000.0001)  MDS_WRITE_FIELD: it,rec,kS,kL,kH=      90     1   1   1   1 file=tFluxtave.0000000090
(PID.TID 0000.0001)  MDS_WRITE_FIELD: it,rec,kS,kL,kH=      90     1   1   1   1 file=sFluxtave.0000000090
(PID.TID 0000.0001)  MDS_WRITE_FIELD: it,rec,kS,kL,kH=      90     1   1   1   1 file=PHL2tave.0000000090
(PID.TID 0000.0001)  MDS_WRITE_FIELD: it,rec,kS,kL,kH=      90     1  15   1  15 file=Convtave.0000000090
(PID.TID 0000.0001) // Time-average data written, t-step        90
(PID.TID 0000.0001) 
(PID.TID 0000.0001)  MDS_WRITE_FIELD: it,rec,kS,kL,kH=      90     1  15   1  15 file=GM_Kwx-T.0000000090
(PID.TID 0000.0001)  MDS_WRITE_FIELD: it,rec,kS,kL,kH=      90     1  15   1  15 file=GM_Kwy-T.0000000090
(PID.TID 0000.0001)  MDS_WRITE_FIELD: it,rec,kS,kL,kH=      90     1  15   1  15 file=GM_Kwz-T.0000000090
(PID.TID 0000.0001)  MDS_WRITE_FIELD: it,rec,kS,kL,kH=      90     1   1   1   1 file=ETAN_forecast.0000000090
(PID.TID 0000.0001)  MDS_WRITE_FIELD: it,rec,kS,kL,kH=      90     1  15   1  15 file=THETA_forecast.0000000090
(PID.TID 0000.0001)  MDS_WRITE_FIELD: it,rec,kS,kL,kH=      90     1  15   1  15 file=SALT_forecast.0000000090
(PID.TID 0000.0001)  MDS_WRITE_FIELD: it,rec,kS,kL,kH=      90     1  15   1  15 file=UVEL_forecast.0000000090
(PID.TID 0000.0001)  MDS_WRITE_FIELD: it,rec,kS,kL,kH=      90     1  15   1  15 file=VVEL_forecast.0000000090
(PID.TID 0000.0001)  MDS_WRITE_FIELD: it,rec,kS,kL,kH=      90     1   1   1   1 file=ETAN_001_forecast.0000000090
(PID.TID 0000.0001)  MDS_WRITE_FIELD: it,rec,kS,kL,kH=      90     1  15   1  15 file=THETA_001_forecast.0000000090
(PID.TID 0000.0001)  MDS_WRITE_FIELD: it,rec,kS,kL,kH=      90     1  15   1  15 file=SALT_001_forecast.0000000090
(PID.TID 0000.0001)  MDS_WRITE_FIELD: it,rec,kS,kL,kH=      90     1  15   1  15 file=UVEL_001_forecast.0000000090
(PID.TID 0000.0001)  MDS_WRITE_FIELD: it,rec,kS,kL,kH=      90     1  15   1  15 file=VVEL_001_forecast.0000000090
(PID.TID 0000.0001)  MDS_WRITE_FIELD: it,rec,kS,kL,kH=      90     1   1   1   1 file=ETAN_002_forecast.0000000090
(PID.TID 0000.0001)  MDS_WRITE_FIELD: it,rec,kS,kL,kH=      90     1  15   1  15 file=THETA_002_forecast.0000000090
(PID.TID 0000.0001)  MDS_WRITE_FIELD: it,rec,kS,kL,kH=      90     1  15   1  15 file=SALT_002_forecast.0000000090
(PID.TID 0000.0001)  MDS_WRITE_FIELD: it,rec,kS,kL,kH=      90     1  15   1  15 file=UVEL_002_forecast.0000000090
(PID.TID 0000.0001)  MDS_WRITE_FIELD: it,rec,kS,kL,kH=      90     1  15   1  15 file=VVEL_002_forecast.0000000090
(PID.TID 0000.0001)  MDS_WRITE_FIELD: it,rec,kS,kL,kH=      90     1   1   1   1 file=ETAN_003_forecast.0000000090
(PID.TID 0000.0001)  MDS_WRITE_FIELD: it,rec,kS,kL,kH=      90     1  15   1  15 file=THETA_003_forecast.0000000090
(PID.TID 0000.0001)  MDS_WRITE_FIELD: it,rec,kS,kL,kH=      90     1  15   1  15 file=SALT_003_forecast.0000000090
(PID.TID 0000.0001)  MDS_WRITE_FIELD: it,rec,kS,kL,kH=      90     1  15   1  15 file=UVEL_003_forecast.0000000090
(PID.TID 0000.0001)  MDS_WRITE_FIELD: it,rec,kS,kL,kH=      90     1  15   1  15 file=VVEL_003_forecast.0000000090
(PID.TID 0000.0001)  MDS_WRITE_FIELD: it,rec,kS,kL,kH=      90     1   1   1   1 file=ETAN_004_forecast.0000000090
(PID.TID 0000.0001)  MDS_WRITE_FIELD: it,rec,kS,kL,kH=      90     1  15   1  15 file=THETA_004_forecast.0000000090
(PID.TID 0000.0001)  MDS_WRITE_FIELD: it,rec,kS,kL,kH=      90     1  15   1  15 file=SALT_004_forecast.0000000090
(PID.TID 0000.0001)  MDS_WRITE_FIELD: it,rec,kS,kL,kH=      90     1  15   1  15 file=UVEL_004_forecast.0000000090
(PID.TID 0000.0001)  MDS_WRITE_FIELD: it,rec,kS,kL,kH=      90     1  15   1  15 file=VVEL_004_forecast.0000000090
(PID.TID 0000.0001)  MDS_WRITE_FIELD: it,rec,kS,kL,kH=      90     1   1   1   1 file=ETAN_analysis.0000000090
(PID.TID 0000.0001)  MDS_WRITE_FIELD: it,rec,kS,kL,kH=      90     1  15   1  15 file=THETA_analysis.0000000090
(PID.TID 0000.0001)  MDS_WRITE_FIELD: it,rec,kS,kL,kH=      90     1  15   1  15 file=SALT_analysis.0000000090
(PID.TID 0000.0001)  MDS_WRITE_FIELD: it,rec,kS,kL,kH=      90     1  15   1  15 file=UVEL_analysis.0000000090
(PID.TID 0000.0001)  MDS_WRITE_FIELD: it,rec,kS,kL,kH=      90     1  15   1  15 file=VVEL_analysis.0000000090
(PID.TID 0000.0001)  MDS_WRITE_FIELD: it,rec,kS,kL,kH=      90     1   1   1   1 file=ETAN_001_analysis.0000000090
(PID.TID 0000.0001)  MDS_WRITE_FIELD: it,rec,kS,kL,kH=      90     1  15   1  15 file=THETA_001_analysis.0000000090
(PID.TID 0000.0001)  MDS_WRITE_FIELD: it,rec,kS,kL,kH=      90     1  15   1  15 file=SALT_001_analysis.0000000090
(PID.TID 0000.0001)  MDS_WRITE_FIELD: it,rec,kS,kL,kH=      90     1  15   1  15 file=UVEL_001_analysis.0000000090
(PID.TID 0000.0001)  MDS_WRITE_FIELD: it,rec,kS,kL,kH=      90     1  15   1  15 file=VVEL_001_analysis.0000000090
(PID.TID 0000.0001)  MDS_WRITE_FIELD: it,rec,kS,kL,kH=      90     1   1   1   1 file=ETAN_002_analysis.0000000090
(PID.TID 0000.0001)  MDS_WRITE_FIELD: it,rec,kS,kL,kH=      90     1  15   1  15 file=THETA_002_analysis.0000000090
(PID.TID 0000.0001)  MDS_WRITE_FIELD: it,rec,kS,kL,kH=      90     1  15   1  15 file=SALT_002_analysis.0000000090
(PID.TID 0000.0001)  MDS_WRITE_FIELD: it,rec,kS,kL,kH=      90     1  15   1  15 file=UVEL_002_analysis.0000000090
(PID.TID 0000.0001)  MDS_WRITE_FIELD: it,rec,kS,kL,kH=      90     1  15   1  15 file=VVEL_002_analysis.0000000090
(PID.TID 0000.0001)  MDS_WRITE_FIELD: it,rec,kS,kL,kH=      90     1   1   1   1 file=ETAN_003_analysis.0000000090
(PID.TID 0000.0001)  MDS_WRITE_FIELD: it,rec,kS,kL,kH=      90     1  15   1  15 file=THETA_003_analysis.0000000090
(PID.TID 0000.0001)  MDS_WRITE_FIELD: it,rec,kS,kL,kH=      90     1  15   1  15 file=SALT_003_analysis.0000000090
(PID.TID 0000.0001)  MDS_WRITE_FIELD: it,rec,kS,kL,kH=      90     1  15   1  15 file=UVEL_003_analysis.0000000090
(PID.TID 0000.0001)  MDS_WRITE_FIELD: it,rec,kS,kL,kH=      90     1  15   1  15 file=VVEL_003_analysis.0000000090
(PID.TID 0000.0001)  MDS_WRITE_FIELD: it,rec,kS,kL,kH=      90     1   1   1   1 file=ETAN_004_analysis.0000000090
(PID.TID 0000.0001)  MDS_WRITE_FIELD: it,rec,kS,kL,kH=      90     1  15   1  15 file=THETA_004_analysis.0000000090
(PID.TID 0000.0001)  MDS_WRITE_FIELD: it,rec,kS,kL,kH=      90     1  15   1  15 file=SALT_004_analysis.0000000090
(PID.TID 0000.0001)  MDS_WRITE_FIELD: it,rec,kS,kL,kH=      90     1  15   1  15 file=UVEL_004_analysis.0000000090
(PID.TID 0000.0001)  MDS_WRITE_FIELD: it,rec,kS,kL,kH=      90     1  15   1  15 file=VVEL_004_analysis.0000000090
 EXTERNAL_FIELDS_LOAD,        90 : iP,iLd,i0,i1=    3    4    3    4 ; Wght=  0.5000000000  0.5000000000
 EXTERNAL_FIELDS_LOAD: (fu0,1),fu,fv= -2.7199E-02 -3.7252E-02 -3.2225E-02 -1.7897E-02
 EXTERNAL_FIELDS_LOAD: SST,SSS,Q,E-P= -7.4284E-02  3.4574E+01  1.5975E+02  8.4249E-06
DEBUG_STATS_RL:          Uvel (THERMODYNAMICS)  min= -1.29108434378721E-01
DEBUG_STATS_RL:          Uvel (THERMODYNAMICS)  max=  1.55556102253605E-01
DEBUG_STATS_RL:          Uvel (THERMODYNAMICS) mean=  5.72123323371389E-03
DEBUG_STATS_RL:          Uvel (THERMODYNAMICS) S.D.=  2.20756851663237E-02
DEBUG_STATS_RL:          Vvel (THERMODYNAMICS)  min= -1.02824850317452E-01
DEBUG_STATS_RL:          Vvel (THERMODYNAMICS)  max=  1.19973758739700E-01
DEBUG_STATS_RL:          Vvel (THERMODYNAMICS) mean=  1.19584961024994E-03
DEBUG_STATS_RL:          Vvel (THERMODYNAMICS) S.D.=  1.40529892068754E-02
DEBUG_STATS_RL:          Wvel (THERMODYNAMICS)  min= -5.43765552448609E-05
DEBUG_STATS_RL:          Wvel (THERMODYNAMICS)  max=  1.70108754237016E-04
DEBUG_STATS_RL:          Wvel (THERMODYNAMICS) mean= -1.47381303987247E-08
DEBUG_STATS_RL:          Wvel (THERMODYNAMICS) S.D.=  8.48778671122646E-06
DEBUG_STATS_RL:         Theta (THERMODYNAMICS)  min= -1.90951487953055E+00
DEBUG_STATS_RL:         Theta (THERMODYNAMICS)  max=  3.01125655875168E+01
DEBUG_STATS_RL:         Theta (THERMODYNAMICS) mean=  3.20921598646348E+00
DEBUG_STATS_RL:         Theta (THERMODYNAMICS) S.D.=  5.87296043917777E+00
DEBUG_STATS_RL:          Salt (THERMODYNAMICS)  min= -6.86352596184166E-04
DEBUG_STATS_RL:          Salt (THERMODYNAMICS)  max=  3.74403245572422E+01
DEBUG_STATS_RL:          Salt (THERMODYNAMICS) mean=  1.88441109692854E+01
DEBUG_STATS_RL:          Salt (THERMODYNAMICS) S.D.=  1.73003373771437E+01
DEBUG_STATS_RL:         GtNm1 (THERMODYNAMICS)  min= -2.02967783643901E-06
DEBUG_STATS_RL:         GtNm1 (THERMODYNAMICS)  max=  2.00756469759380E-06
DEBUG_STATS_RL:         GtNm1 (THERMODYNAMICS) mean= -2.53647166960259E-09
DEBUG_STATS_RL:         GtNm1 (THERMODYNAMICS) S.D.=  1.32364910729547E-07
DEBUG_STATS_RL:         GsNm1 (THERMODYNAMICS)  min= -3.56922489336930E-07
DEBUG_STATS_RL:         GsNm1 (THERMODYNAMICS)  max=  3.10871816951498E-07
DEBUG_STATS_RL:         GsNm1 (THERMODYNAMICS) mean= -1.59983980097701E-10
DEBUG_STATS_RL:         GsNm1 (THERMODYNAMICS) S.D.=  1.27386934541677E-08
DEBUG_STATS_RL:                EtaN (DYNAMICS)  min= -2.01475459900369E+00
DEBUG_STATS_RL:                EtaN (DYNAMICS)  max=  8.77766851967935E-01
DEBUG_STATS_RL:                EtaN (DYNAMICS) mean= -1.89332065025903E-01
DEBUG_STATS_RL:                EtaN (DYNAMICS) S.D.=  7.32521774266232E-01
DEBUG_STATS_RL:                Uvel (DYNAMICS)  min= -1.29108434378721E-01
DEBUG_STATS_RL:                Uvel (DYNAMICS)  max=  1.55556102253605E-01
DEBUG_STATS_RL:                Uvel (DYNAMICS) mean=  5.72123323371389E-03
DEBUG_STATS_RL:                Uvel (DYNAMICS) S.D.=  2.20756851663237E-02
DEBUG_STATS_RL:                Vvel (DYNAMICS)  min= -1.02824850317452E-01
DEBUG_STATS_RL:                Vvel (DYNAMICS)  max=  1.19973758739700E-01
DEBUG_STATS_RL:                Vvel (DYNAMICS) mean=  1.19584961024994E-03
DEBUG_STATS_RL:                Vvel (DYNAMICS) S.D.=  1.40529892068754E-02
DEBUG_STATS_RL:                Wvel (DYNAMICS)  min= -5.43765552448609E-05
DEBUG_STATS_RL:                Wvel (DYNAMICS)  max=  1.70108754237016E-04
DEBUG_STATS_RL:                Wvel (DYNAMICS) mean= -1.47381303987247E-08
DEBUG_STATS_RL:                Wvel (DYNAMICS) S.D.=  8.48778671122646E-06
DEBUG_STATS_RL:               Theta (DYNAMICS)  min= -1.90951487953055E+00
DEBUG_STATS_RL:               Theta (DYNAMICS)  max=  3.01125655875168E+01
DEBUG_STATS_RL:               Theta (DYNAMICS) mean=  3.20921598646348E+00
DEBUG_STATS_RL:               Theta (DYNAMICS) S.D.=  5.87296043917777E+00
DEBUG_STATS_RL:                Salt (DYNAMICS)  min= -6.86352596184166E-04
DEBUG_STATS_RL:                Salt (DYNAMICS)  max=  3.74403245572422E+01
DEBUG_STATS_RL:                Salt (DYNAMICS) mean=  1.88441109692854E+01
DEBUG_STATS_RL:                Salt (DYNAMICS) S.D.=  1.73003373771437E+01
DEBUG_STATS_RL:                  Gu (DYNAMICS)  min= -1.28101303582090E-01
DEBUG_STATS_RL:                  Gu (DYNAMICS)  max=  1.49328849079241E-01
DEBUG_STATS_RL:                  Gu (DYNAMICS) mean=  5.65803137481794E-03
DEBUG_STATS_RL:                  Gu (DYNAMICS) S.D.=  2.24133478961393E-02
DEBUG_STATS_RL:                  Gv (DYNAMICS)  min= -1.02143972729897E-01
DEBUG_STATS_RL:                  Gv (DYNAMICS)  max=  1.20948959662952E-01
DEBUG_STATS_RL:                  Gv (DYNAMICS) mean=  3.88439708752977E-03
DEBUG_STATS_RL:                  Gv (DYNAMICS) S.D.=  1.54079986658681E-02
DEBUG_STATS_RL:               GuNm1 (DYNAMICS)  min= -9.19637113185515E-06
DEBUG_STATS_RL:               GuNm1 (DYNAMICS)  max=  9.09107632807566E-06
DEBUG_STATS_RL:               GuNm1 (DYNAMICS) mean=  9.70775066208732E-09
DEBUG_STATS_RL:               GuNm1 (DYNAMICS) S.D.=  1.22036349672491E-06
DEBUG_STATS_RL:               GvNm1 (DYNAMICS)  min= -9.36631113516113E-06
DEBUG_STATS_RL:               GvNm1 (DYNAMICS)  max=  1.51349608828292E-05
DEBUG_STATS_RL:               GvNm1 (DYNAMICS) mean=  7.41140505195621E-07
DEBUG_STATS_RL:               GvNm1 (DYNAMICS) S.D.=  2.59954808341334E-06
DEBUG_STATS_RL:               GtNm1 (DYNAMICS)  min= -2.02967783643901E-06
DEBUG_STATS_RL:               GtNm1 (DYNAMICS)  max=  2.00756469759380E-06
DEBUG_STATS_RL:               GtNm1 (DYNAMICS) mean= -2.53647166960259E-09
DEBUG_STATS_RL:               GtNm1 (DYNAMICS) S.D.=  1.32364910729547E-07
DEBUG_STATS_RL:               GsNm1 (DYNAMICS)  min= -3.56922489336930E-07
DEBUG_STATS_RL:               GsNm1 (DYNAMICS)  max=  3.10871816951498E-07
DEBUG_STATS_RL:               GsNm1 (DYNAMICS) mean= -1.59983980097701E-10
DEBUG_STATS_RL:               GsNm1 (DYNAMICS) S.D.=  1.27386934541677E-08
DEBUG_STATS_RL:    cg2d_b (SOLVE_FOR_PRESSURE)  min= -2.38734256821069E+04
DEBUG_STATS_RL:    cg2d_b (SOLVE_FOR_PRESSURE)  max=  2.63107684891657E+04
DEBUG_STATS_RL:    cg2d_b (SOLVE_FOR_PRESSURE) mean=  5.43638781510237E+00
DEBUG_STATS_RL:    cg2d_b (SOLVE_FOR_PRESSURE) S.D.=  3.99045393591831E+03
 cg2d: Sum(rhs),rhsMax =   4.78330300277773E-01  1.72816171949645E+00
(PID.TID 0000.0001)  cg2d: iter=     1 ; resid.=  1.37382378655818E+00
(PID.TID 0000.0001)  cg2d: iter=     2 ; resid.=  1.14606612221647E+00
(PID.TID 0000.0001)  cg2d: iter=     3 ; resid.=  1.05083812214486E+00
(PID.TID 0000.0001)  cg2d: iter=     4 ; resid.=  9.54663494473795E-01
(PID.TID 0000.0001)  cg2d: iter=     5 ; resid.=  8.86468976421584E-01
(PID.TID 0000.0001)  cg2d: iter=     6 ; resid.=  7.89037642271279E-01
(PID.TID 0000.0001)  cg2d: iter=     7 ; resid.=  6.55800742428574E-01
(PID.TID 0000.0001)  cg2d: iter=     8 ; resid.=  5.03812738404424E-01
(PID.TID 0000.0001)  cg2d: iter=     9 ; resid.=  4.14348952374346E-01
(PID.TID 0000.0001)  cg2d: iter=    10 ; resid.=  3.40976481489165E-01
(PID.TID 0000.0001)  cg2d: iter=    11 ; resid.=  2.79746540496988E-01
(PID.TID 0000.0001)  cg2d: iter=    12 ; resid.=  2.38629366418611E-01
(PID.TID 0000.0001)  cg2d: iter=    13 ; resid.=  2.02908837971015E-01
(PID.TID 0000.0001)  cg2d: iter=    14 ; resid.=  1.65440656404857E-01
(PID.TID 0000.0001)  cg2d: iter=    15 ; resid.=  1.38402245481365E-01
(PID.TID 0000.0001)  cg2d: iter=    16 ; resid.=  1.20055317214861E-01
(PID.TID 0000.0001)  cg2d: iter=    17 ; resid.=  9.47684752166204E-02
(PID.TID 0000.0001)  cg2d: iter=    18 ; resid.=  8.21161286518956E-02
(PID.TID 0000.0001)  cg2d: iter=    19 ; resid.=  7.00245147690169E-02
(PID.TID 0000.0001)  cg2d: iter=    20 ; resid.=  5.26643726271369E-02
(PID.TID 0000.0001)  cg2d: iter=    21 ; resid.=  4.61148584978316E-02
(PID.TID 0000.0001)  cg2d: iter=    22 ; resid.=  3.82266371162124E-02
(PID.TID 0000.0001)  cg2d: iter=    23 ; resid.=  3.09626425023649E-02
(PID.TID 0000.0001)  cg2d: iter=    24 ; resid.=  2.60144196259056E-02
(PID.TID 0000.0001)  cg2d: iter=    25 ; resid.=  1.95505300514320E-02
(PID.TID 0000.0001)  cg2d: iter=    26 ; resid.=  1.68139929456704E-02
(PID.TID 0000.0001)  cg2d: iter=    27 ; resid.=  1.51817207282233E-02
(PID.TID 0000.0001)  cg2d: iter=    28 ; resid.=  1.23925475630889E-02
(PID.TID 0000.0001)  cg2d: iter=    29 ; resid.=  1.03157248824761E-02
(PID.TID 0000.0001)  cg2d: iter=    30 ; resid.=  8.86041231218384E-03
(PID.TID 0000.0001)  cg2d: iter=    31 ; resid.=  7.16714898065724E-03
(PID.TID 0000.0001)  cg2d: iter=    32 ; resid.=  5.13506020185536E-03
(PID.TID 0000.0001)  cg2d: iter=    33 ; resid.=  3.95988944424589E-03
(PID.TID 0000.0001)  cg2d: iter=    34 ; resid.=  3.29061743469101E-03
(PID.TID 0000.0001)  cg2d: iter=    35 ; resid.=  2.49309132852435E-03
(PID.TID 0000.0001)  cg2d: iter=    36 ; resid.=  1.94449660266371E-03
(PID.TID 0000.0001)  cg2d: iter=    37 ; resid.=  1.54283776523667E-03
(PID.TID 0000.0001)  cg2d: iter=    38 ; resid.=  1.28383012267758E-03
(PID.TID 0000.0001)  cg2d: iter=    39 ; resid.=  1.14049461076493E-03
(PID.TID 0000.0001)  cg2d: iter=    40 ; resid.=  9.63083212259395E-04
(PID.TID 0000.0001)  cg2d: iter=    41 ; resid.=  7.99683411669525E-04
(PID.TID 0000.0001)  cg2d: iter=    42 ; resid.=  6.78398045534397E-04
(PID.TID 0000.0001)  cg2d: iter=    43 ; resid.=  5.51580177167389E-04
(PID.TID 0000.0001)  cg2d: iter=    44 ; resid.=  4.33398154343584E-04
(PID.TID 0000.0001)  cg2d: iter=    45 ; resid.=  3.65317766008702E-04
(PID.TID 0000.0001)  cg2d: iter=    46 ; resid.=  2.92245958179803E-04
(PID.TID 0000.0001)  cg2d: iter=    47 ; resid.=  2.19910511794523E-04
(PID.TID 0000.0001)  cg2d: iter=    48 ; resid.=  1.66030752520516E-04
(PID.TID 0000.0001)  cg2d: iter=    49 ; resid.=  1.36547980742771E-04
(PID.TID 0000.0001)  cg2d: iter=    50 ; resid.=  1.04921953503863E-04
(PID.TID 0000.0001)  cg2d: iter=    51 ; resid.=  8.74869719823224E-05
(PID.TID 0000.0001)  cg2d: iter=    52 ; resid.=  7.43843912577393E-05
(PID.TID 0000.0001)  cg2d: iter=    53 ; resid.=  6.28780383693797E-05
(PID.TID 0000.0001)  cg2d: iter=    54 ; resid.=  5.15404313546441E-05
(PID.TID 0000.0001)  cg2d: iter=    55 ; resid.=  4.47712047035326E-05
(PID.TID 0000.0001)  cg2d: iter=    56 ; resid.=  4.05884889318645E-05
(PID.TID 0000.0001)  cg2d: iter=    57 ; resid.=  3.18186232011868E-05
(PID.TID 0000.0001)  cg2d: iter=    58 ; resid.=  2.58476484641720E-05
(PID.TID 0000.0001)  cg2d: iter=    59 ; resid.=  2.07974272981886E-05
(PID.TID 0000.0001)  cg2d: iter=    60 ; resid.=  1.69526166564991E-05
(PID.TID 0000.0001)  cg2d: iter=    61 ; resid.=  1.54023868993458E-05
(PID.TID 0000.0001)  cg2d: iter=    62 ; resid.=  1.28563154528597E-05
(PID.TID 0000.0001)  cg2d: iter=    63 ; resid.=  1.06470882873375E-05
(PID.TID 0000.0001)  cg2d: iter=    64 ; resid.=  8.87571321335926E-06
(PID.TID 0000.0001)  cg2d: iter=    65 ; resid.=  7.18506366716685E-06
(PID.TID 0000.0001)  cg2d: iter=    66 ; resid.=  5.30068024094690E-06
(PID.TID 0000.0001)  cg2d: iter=    67 ; resid.=  4.14231407360814E-06
(PID.TID 0000.0001)  cg2d: iter=    68 ; resid.=  3.35070273024779E-06
(PID.TID 0000.0001)  cg2d: iter=    69 ; resid.=  2.56629052939443E-06
(PID.TID 0000.0001)  cg2d: iter=    70 ; resid.=  1.98494128429055E-06
(PID.TID 0000.0001)  cg2d: iter=    71 ; resid.=  1.50383590694911E-06
(PID.TID 0000.0001)  cg2d: iter=    72 ; resid.=  1.16341227127682E-06
(PID.TID 0000.0001)  cg2d: iter=    73 ; resid.=  8.69679673820983E-07
(PID.TID 0000.0001)  cg2d: iter=    74 ; resid.=  7.37262525087488E-07
(PID.TID 0000.0001)  cg2d: iter=    75 ; resid.=  5.88193053192399E-07
(PID.TID 0000.0001)  cg2d: iter=    76 ; resid.=  4.32338016935203E-07
(PID.TID 0000.0001)  cg2d: iter=    77 ; resid.=  3.68313039852691E-07
(PID.TID 0000.0001)  cg2d: iter=    78 ; resid.=  3.30105546072909E-07
(PID.TID 0000.0001)  cg2d: iter=    79 ; resid.=  2.87380235978739E-07
(PID.TID 0000.0001)  cg2d: iter=    80 ; resid.=  2.45990588061453E-07
(PID.TID 0000.0001)  cg2d: iter=    81 ; resid.=  2.13623085855190E-07
(PID.TID 0000.0001)  cg2d: iter=    82 ; resid.=  1.71427300262844E-07
(PID.TID 0000.0001)  cg2d: iter=    83 ; resid.=  1.44914323716333E-07
(PID.TID 0000.0001)  cg2d: iter=    84 ; resid.=  1.33197694544877E-07
(PID.TID 0000.0001)  cg2d: iter=    85 ; resid.=  1.15001021179899E-07
(PID.TID 0000.0001)  cg2d: iter=    86 ; resid.=  1.02111152278883E-07
(PID.TID 0000.0001)  cg2d: iter=    87 ; resid.=  8.65504023647478E-08
(PID.TID 0000.0001)  cg2d: iter=    88 ; resid.=  7.47896928970561E-08
(PID.TID 0000.0001)  cg2d: iter=    89 ; resid.=  6.72495902078943E-08
(PID.TID 0000.0001)  cg2d: iter=    90 ; resid.=  5.61830942097534E-08
(PID.TID 0000.0001)  cg2d: iter=    91 ; resid.=  4.40581429019204E-08
(PID.TID 0000.0001)  cg2d: iter=    92 ; resid.=  3.44229151465846E-08
(PID.TID 0000.0001)  cg2d: iter=    93 ; resid.=  2.90368060876603E-08
(PID.TID 0000.0001)  cg2d: iter=    94 ; resid.=  2.16536384843592E-08
(PID.TID 0000.0001)  cg2d: iter=    95 ; resid.=  1.65509145415746E-08
(PID.TID 0000.0001)  cg2d: iter=    96 ; resid.=  1.23766907841012E-08
(PID.TID 0000.0001)  cg2d: iter=    97 ; resid.=  1.01778560910330E-08
(PID.TID 0000.0001)  cg2d: iter=    98 ; resid.=  9.40437427003439E-09
(PID.TID 0000.0001)  cg2d: iter=    99 ; resid.=  9.36707315978049E-09
(PID.TID 0000.0001)  cg2d: iter=   100 ; resid.=  7.91875185488098E-09
(PID.TID 0000.0001)  cg2d: iter=   101 ; resid.=  6.26749242706958E-09
(PID.TID 0000.0001)  cg2d: iter=   102 ; resid.=  4.92653811698267E-09
(PID.TID 0000.0001)  cg2d: iter=   103 ; resid.=  3.73034620535396E-09
(PID.TID 0000.0001)  cg2d: iter=   104 ; resid.=  2.88853777110045E-09
(PID.TID 0000.0001)  cg2d: iter=   105 ; resid.=  2.21305858789132E-09
(PID.TID 0000.0001)  cg2d: iter=   106 ; resid.=  1.73707635899716E-09
(PID.TID 0000.0001)  cg2d: iter=   107 ; resid.=  1.29692865539514E-09
(PID.TID 0000.0001)  cg2d: iter=   108 ; resid.=  9.51528290783742E-10
(PID.TID 0000.0001)  cg2d: iter=   109 ; resid.=  7.27345078235137E-10
(PID.TID 0000.0001)  cg2d: iter=   110 ; resid.=  6.32754958882236E-10
(PID.TID 0000.0001)  cg2d: iter=   111 ; resid.=  5.49037700034674E-10
(PID.TID 0000.0001)  cg2d: iter=   112 ; resid.=  4.15987261385448E-10
(PID.TID 0000.0001)  cg2d: iter=   113 ; resid.=  3.30676921294399E-10
(PID.TID 0000.0001)  cg2d: iter=   114 ; resid.=  2.59643970196097E-10
(PID.TID 0000.0001)  cg2d: iter=   115 ; resid.=  1.85907852748614E-10
(PID.TID 0000.0001)  cg2d: iter=   116 ; resid.=  1.48561162805034E-10
(PID.TID 0000.0001)  cg2d: iter=   117 ; resid.=  1.20718045901570E-10
(PID.TID 0000.0001)  cg2d: iter=   118 ; resid.=  8.61521203001913E-11
(PID.TID 0000.0001)  cg2d: iter=   119 ; resid.=  5.69535169194719E-11
(PID.TID 0000.0001)  cg2d: iter=   120 ; resid.=  4.04668633153330E-11
(PID.TID 0000.0001)  cg2d: iter=   121 ; resid.=  3.00872018613974E-11
(PID.TID 0000.0001)  cg2d: iter=   122 ; resid.=  2.17804006397255E-11
(PID.TID 0000.0001)  cg2d: iter=   123 ; resid.=  1.58771045799920E-11
(PID.TID 0000.0001)  cg2d: iter=   124 ; resid.=  1.17556743367518E-11
(PID.TID 0000.0001)  cg2d: iter=   125 ; resid.=  9.13589613041872E-12
(PID.TID 0000.0001)  cg2d: iter=   126 ; resid.=  6.74218358512911E-12
(PID.TID 0000.0001)  cg2d: iter=   127 ; resid.=  4.70000898514716E-12
(PID.TID 0000.0001)  cg2d: iter=   128 ; resid.=  3.16175043347982E-12
(PID.TID 0000.0001)  cg2d: iter=   129 ; resid.=  1.98524474016173E-12
(PID.TID 0000.0001)  cg2d: iter=   130 ; resid.=  1.33155448190619E-12
(PID.TID 0000.0001)  cg2d: iter=   131 ; resid.=  9.11808641070149E-13
(PID.TID 0000.0001)  cg2d: iter=   132 ; resid.=  6.21903518600839E-13
(PID.TID 0000.0001)  cg2d: iter=   133 ; resid.=  4.73001383631758E-13
(PID.TID 0000.0001)  cg2d: iter=   134 ; resid.=  3.89797511017058E-13
(PID.TID 0000.0001)  cg2d: iter=   135 ; resid.=  3.48032528738515E-13
(PID.TID 0000.0001)  cg2d: iter=   136 ; resid.=  2.64623608805896E-13
(PID.TID 0000.0001)  cg2d: iter=   137 ; resid.=  1.96888982092064E-13
(PID.TID 0000.0001)  cg2d: iter=   138 ; resid.=  1.37009946600152E-13
(PID.TID 0000.0001)  cg2d: iter=   139 ; resid.=  1.05191418488591E-13
(PID.TID 0000.0001)  cg2d: iter=   140 ; resid.=  8.08980038423918E-14
DEBUG_STATS_RL:    cg2d_x (SOLVE_FOR_PRESSURE)  min= -1.79852273635307E+01
DEBUG_STATS_RL:    cg2d_x (SOLVE_FOR_PRESSURE)  max=  9.69974194077086E+00
DEBUG_STATS_RL:    cg2d_x (SOLVE_FOR_PRESSURE) mean= -1.92427088780023E+00
DEBUG_STATS_RL:    cg2d_x (SOLVE_FOR_PRESSURE) S.D.=  7.34855942219854E+00
(PID.TID 0000.0001)      cg2d_init_res =   1.89908325353087E+00
(PID.TID 0000.0001)      cg2d_iters(min,last) =      -1     140
(PID.TID 0000.0001)      cg2d_last_res =   8.08980038423918E-14
(PID.TID 0000.0001) // =======================================================
(PID.TID 0000.0001) // Begin MONITOR dynamic field statistics
(PID.TID 0000.0001) // =======================================================
(PID.TID 0000.0001) %MON time_tsnumber                =                    91
(PID.TID 0000.0001) %MON time_secondsf                =   7.8624000000000E+06
(PID.TID 0000.0001) %MON dynstat_eta_max              =   9.8876064635792E-01
(PID.TID 0000.0001) %MON dynstat_eta_min              =  -1.8333565100447E+00
(PID.TID 0000.0001) %MON dynstat_eta_mean             =  -5.6721965952240E-03
(PID.TID 0000.0001) %MON dynstat_eta_sd               =   6.4796420239746E-01
(PID.TID 0000.0001) %MON dynstat_eta_del2             =   2.5312202508238E-03
(PID.TID 0000.0001) %MON dynstat_uvel_max             =   1.5629641172164E-01
(PID.TID 0000.0001) %MON dynstat_uvel_min             =  -1.2890368988792E-01
(PID.TID 0000.0001) %MON dynstat_uvel_mean            =   2.3065192246138E-03
(PID.TID 0000.0001) %MON dynstat_uvel_sd              =   1.3894624559900E-02
(PID.TID 0000.0001) %MON dynstat_uvel_del2            =   9.7224004827164E-05
(PID.TID 0000.0001) %MON dynstat_vvel_max             =   1.2113084633222E-01
(PID.TID 0000.0001) %MON dynstat_vvel_min             =  -1.0171435942899E-01
(PID.TID 0000.0001) %MON dynstat_vvel_mean            =   2.4253062144002E-04
(PID.TID 0000.0001) %MON dynstat_vvel_sd              =   9.1311020362851E-03
(PID.TID 0000.0001) %MON dynstat_vvel_del2            =   8.2918380339029E-05
(PID.TID 0000.0001) %MON dynstat_wvel_max             =   1.5349464534174E-04
(PID.TID 0000.0001) %MON dynstat_wvel_min             =  -1.0264398631324E-04
(PID.TID 0000.0001) %MON dynstat_wvel_mean            =   2.4256533477674E-10
(PID.TID 0000.0001) %MON dynstat_wvel_sd              =   1.1105212225665E-05
(PID.TID 0000.0001) %MON dynstat_wvel_del2            =   1.1538778289449E-07
(PID.TID 0000.0001) %MON dynstat_theta_max            =   3.0112565587517E+01
(PID.TID 0000.0001) %MON dynstat_theta_min            =  -1.9095148795305E+00
(PID.TID 0000.0001) %MON dynstat_theta_mean           =   3.6216939628023E+00
(PID.TID 0000.0001) %MON dynstat_theta_sd             =   4.4233831079612E+00
(PID.TID 0000.0001) %MON dynstat_theta_del2           =   4.5898914640352E-03
(PID.TID 0000.0001) %MON dynstat_salt_max             =   3.7440324557242E+01
(PID.TID 0000.0001) %MON dynstat_salt_min             =   2.9908122226873E+01
(PID.TID 0000.0001) %MON dynstat_salt_mean            =   3.4717285096611E+01
(PID.TID 0000.0001) %MON dynstat_salt_sd              =   2.9623012722784E-01
(PID.TID 0000.0001) %MON dynstat_salt_del2            =   9.5960711184470E-04
(PID.TID 0000.0001) %MON dynstat_sst_max              =   3.0112565587517E+01
(PID.TID 0000.0001) %MON dynstat_sst_min              =  -1.9095148795305E+00
(PID.TID 0000.0001) %MON dynstat_sst_mean             =   1.8774755305840E+01
(PID.TID 0000.0001) %MON dynstat_sst_sd               =   9.3795906850965E+00
(PID.TID 0000.0001) %MON dynstat_sst_del2             =   2.3316213779047E-02
(PID.TID 0000.0001) %MON dynstat_sss_max              =   3.7406374814993E+01
(PID.TID 0000.0001) %MON dynstat_sss_min              =   2.9908122226873E+01
(PID.TID 0000.0001) %MON dynstat_sss_mean             =   3.4839002737082E+01
(PID.TID 0000.0001) %MON dynstat_sss_sd               =   9.8534183794165E-01
(PID.TID 0000.0001) %MON dynstat_sss_del2             =   7.6287893917035E-03
(PID.TID 0000.0001) %MON forcing_qnet_max             =   2.0392916870117E+02
(PID.TID 0000.0001) %MON forcing_qnet_min             =  -1.5743564605713E+02
(PID.TID 0000.0001) %MON forcing_qnet_mean            =  -1.3095195556001E+00
(PID.TID 0000.0001) %MON forcing_qnet_sd              =   3.9393235580396E+01
(PID.TID 0000.0001) %MON forcing_qnet_del2            =   7.8410744679858E-01
(PID.TID 0000.0001) %MON forcing_qsw_max              =   0.0000000000000E+00
(PID.TID 0000.0001) %MON forcing_qsw_min              =   0.0000000000000E+00
(PID.TID 0000.0001) %MON forcing_qsw_mean             =   0.0000000000000E+00
(PID.TID 0000.0001) %MON forcing_qsw_sd               =   0.0000000000000E+00
(PID.TID 0000.0001) %MON forcing_qsw_del2             =   0.0000000000000E+00
(PID.TID 0000.0001) %MON forcing_empmr_max            =   6.7666256597931E-05
(PID.TID 0000.0001) %MON forcing_empmr_min            =  -8.3487108781810E-05
(PID.TID 0000.0001) %MON forcing_empmr_mean           =   2.1403058126522E-07
(PID.TID 0000.0001) %MON forcing_empmr_sd             =   2.5565388695829E-05
(PID.TID 0000.0001) %MON forcing_empmr_del2           =   3.6396270903626E-07
(PID.TID 0000.0001) %MON forcing_fu_max               =   3.4788966178894E-01
(PID.TID 0000.0001) %MON forcing_fu_min               =  -4.0255250036716E-01
(PID.TID 0000.0001) %MON forcing_fu_mean              =   1.8548847846395E-02
(PID.TID 0000.0001) %MON forcing_fu_sd                =   1.0035271102414E-01
(PID.TID 0000.0001) %MON forcing_fu_del2              =   7.7663796698736E-04
(PID.TID 0000.0001) %MON forcing_fv_max               =   1.8186032772064E-01
(PID.TID 0000.0001) %MON forcing_fv_min               =  -1.4296149462461E-01
(PID.TID 0000.0001) %MON forcing_fv_mean              =  -6.9824253544491E-03
(PID.TID 0000.0001) %MON forcing_fv_sd                =   3.8754640563461E-02
(PID.TID 0000.0001) %MON forcing_fv_del2              =   4.1635659249550E-04
(PID.TID 0000.0001) %MON trAdv_CFL_u_max              =   5.7043018066860E-02
(PID.TID 0000.0001) %MON trAdv_CFL_v_max              =   2.3725318597702E-02
(PID.TID 0000.0001) %MON trAdv_CFL_w_max              =   3.6976727585882E-02
(PID.TID 0000.0001) %MON advcfl_uvel_max              =   5.7302853762788E-02
(PID.TID 0000.0001) %MON advcfl_vvel_max              =   2.3533780737138E-02
(PID.TID 0000.0001) %MON advcfl_wvel_max              =   4.1248560081226E-02
(PID.TID 0000.0001) %MON advcfl_W_hf_max              =   4.8421841450670E-02
(PID.TID 0000.0001) %MON pe_b_mean                    =   5.3729958580884E-04
(PID.TID 0000.0001) %MON ke_max                       =   1.4014346155775E-02
(PID.TID 0000.0001) %MON ke_mean                      =   1.2758532763011E-04
(PID.TID 0000.0001) %MON ke_vol                       =   1.3226782436723E+18
(PID.TID 0000.0001) %MON vort_r_min                   =  -4.5207874351327E-07
(PID.TID 0000.0001) %MON vort_r_max                   =   5.9120438258395E-07
(PID.TID 0000.0001) %MON vort_a_mean                  =  -2.5274808297902E-05
(PID.TID 0000.0001) %MON vort_a_sd                    =   7.3604643380870E-05
(PID.TID 0000.0001) %MON vort_p_mean                  =  -3.1845656934019E-05
(PID.TID 0000.0001) %MON vort_p_sd                    =   1.3162434643125E-04
(PID.TID 0000.0001) %MON surfExpan_theta_mean         =  -1.0661716052567E-06
(PID.TID 0000.0001) %MON surfExpan_salt_mean          =   4.0930152843762E-07
(PID.TID 0000.0001) // =======================================================
(PID.TID 0000.0001) // End MONITOR dynamic field statistics
(PID.TID 0000.0001) // =======================================================
 EXTERNAL_FIELDS_LOAD,        91 : iP,iLd,i0,i1=    3    4    3    4 ; Wght=  0.4666666667  0.5333333333
 EXTERNAL_FIELDS_LOAD: (fu0,1),fu,fv= -2.7199E-02 -3.7252E-02 -3.2561E-02 -1.9052E-02
 EXTERNAL_FIELDS_LOAD: SST,SSS,Q,E-P= -6.6976E-02  3.4574E+01  1.5604E+02  8.3812E-06
DEBUG_STATS_RL:          Uvel (THERMODYNAMICS)  min= -1.28903689887924E-01
DEBUG_STATS_RL:          Uvel (THERMODYNAMICS)  max=  1.56296411721638E-01
DEBUG_STATS_RL:          Uvel (THERMODYNAMICS) mean=  5.69512384465262E-03
DEBUG_STATS_RL:          Uvel (THERMODYNAMICS) S.D.=  2.20762320112137E-02
DEBUG_STATS_RL:          Vvel (THERMODYNAMICS)  min= -1.01714359428994E-01
DEBUG_STATS_RL:          Vvel (THERMODYNAMICS)  max=  1.21130846332217E-01
DEBUG_STATS_RL:          Vvel (THERMODYNAMICS) mean=  1.20980670940898E-03
DEBUG_STATS_RL:          Vvel (THERMODYNAMICS) S.D.=  1.39692482967302E-02
DEBUG_STATS_RL:          Wvel (THERMODYNAMICS)  min= -1.02643986313236E-04
DEBUG_STATS_RL:          Wvel (THERMODYNAMICS)  max=  1.53494645341739E-04
DEBUG_STATS_RL:          Wvel (THERMODYNAMICS) mean=  7.86000910877121E-09
DEBUG_STATS_RL:          Wvel (THERMODYNAMICS) S.D.=  1.00589638575855E-05
DEBUG_STATS_RL:         Theta (THERMODYNAMICS)  min= -1.91370098942180E+00
DEBUG_STATS_RL:         Theta (THERMODYNAMICS)  max=  3.01249526993802E+01
DEBUG_STATS_RL:         Theta (THERMODYNAMICS) mean=  3.20907588302666E+00
DEBUG_STATS_RL:         Theta (THERMODYNAMICS) S.D.=  5.87300425658082E+00
DEBUG_STATS_RL:          Salt (THERMODYNAMICS)  min= -6.86352596184166E-04
DEBUG_STATS_RL:          Salt (THERMODYNAMICS)  max=  3.74397277475259E+01
DEBUG_STATS_RL:          Salt (THERMODYNAMICS) mean=  1.88441027021707E+01
DEBUG_STATS_RL:          Salt (THERMODYNAMICS) S.D.=  1.73003297055772E+01
DEBUG_STATS_RL:         GtNm1 (THERMODYNAMICS)  min= -1.98735144601012E-06
DEBUG_STATS_RL:         GtNm1 (THERMODYNAMICS)  max=  2.08996123726512E-06
DEBUG_STATS_RL:         GtNm1 (THERMODYNAMICS) mean= -1.98602188784569E-09
DEBUG_STATS_RL:         GtNm1 (THERMODYNAMICS) S.D.=  1.34636040568516E-07
DEBUG_STATS_RL:         GsNm1 (THERMODYNAMICS)  min= -3.15861860091157E-07
DEBUG_STATS_RL:         GsNm1 (THERMODYNAMICS)  max=  2.99757041234279E-07
DEBUG_STATS_RL:         GsNm1 (THERMODYNAMICS) mean= -2.15466188703747E-10
DEBUG_STATS_RL:         GsNm1 (THERMODYNAMICS) S.D.=  1.29303557805972E-08
DEBUG_STATS_RL:                EtaN (DYNAMICS)  min= -1.83335651004466E+00
DEBUG_STATS_RL:                EtaN (DYNAMICS)  max=  9.88760646357915E-01
DEBUG_STATS_RL:                EtaN (DYNAMICS) mean= -1.96154015066283E-01
DEBUG_STATS_RL:                EtaN (DYNAMICS) S.D.=  7.49088626116059E-01
DEBUG_STATS_RL:                Uvel (DYNAMICS)  min= -1.28903689887924E-01
DEBUG_STATS_RL:                Uvel (DYNAMICS)  max=  1.56296411721638E-01
DEBUG_STATS_RL:                Uvel (DYNAMICS) mean=  5.69512384465262E-03
DEBUG_STATS_RL:                Uvel (DYNAMICS) S.D.=  2.20762320112137E-02
DEBUG_STATS_RL:                Vvel (DYNAMICS)  min= -1.01714359428994E-01
DEBUG_STATS_RL:                Vvel (DYNAMICS)  max=  1.21130846332217E-01
DEBUG_STATS_RL:                Vvel (DYNAMICS) mean=  1.20980670940898E-03
DEBUG_STATS_RL:                Vvel (DYNAMICS) S.D.=  1.39692482967302E-02
DEBUG_STATS_RL:                Wvel (DYNAMICS)  min= -1.02643986313236E-04
DEBUG_STATS_RL:                Wvel (DYNAMICS)  max=  1.53494645341739E-04
DEBUG_STATS_RL:                Wvel (DYNAMICS) mean=  7.86000910877121E-09
DEBUG_STATS_RL:                Wvel (DYNAMICS) S.D.=  1.00589638575855E-05
DEBUG_STATS_RL:               Theta (DYNAMICS)  min= -1.91370098942180E+00
DEBUG_STATS_RL:               Theta (DYNAMICS)  max=  3.01249526993802E+01
DEBUG_STATS_RL:               Theta (DYNAMICS) mean=  3.20907588302666E+00
DEBUG_STATS_RL:               Theta (DYNAMICS) S.D.=  5.87300425658082E+00
DEBUG_STATS_RL:                Salt (DYNAMICS)  min= -6.86352596184166E-04
DEBUG_STATS_RL:                Salt (DYNAMICS)  max=  3.74397277475259E+01
DEBUG_STATS_RL:                Salt (DYNAMICS) mean=  1.88441027021707E+01
DEBUG_STATS_RL:                Salt (DYNAMICS) S.D.=  1.73003297055772E+01
DEBUG_STATS_RL:                  Gu (DYNAMICS)  min= -1.27886986200339E-01
DEBUG_STATS_RL:                  Gu (DYNAMICS)  max=  1.45247484473589E-01
DEBUG_STATS_RL:                  Gu (DYNAMICS) mean=  5.66303962537140E-03
DEBUG_STATS_RL:                  Gu (DYNAMICS) S.D.=  2.23867512083765E-02
DEBUG_STATS_RL:                  Gv (DYNAMICS)  min= -1.01098976045858E-01
DEBUG_STATS_RL:                  Gv (DYNAMICS)  max=  1.20660048661653E-01
DEBUG_STATS_RL:                  Gv (DYNAMICS) mean=  3.86018525781417E-03
DEBUG_STATS_RL:                  Gv (DYNAMICS) S.D.=  1.52788674869308E-02
DEBUG_STATS_RL:               GuNm1 (DYNAMICS)  min= -9.16483784216918E-06
DEBUG_STATS_RL:               GuNm1 (DYNAMICS)  max=  9.10104273724027E-06
DEBUG_STATS_RL:               GuNm1 (DYNAMICS) mean=  1.02061303465929E-08
DEBUG_STATS_RL:               GuNm1 (DYNAMICS) S.D.=  1.22040430610796E-06
DEBUG_STATS_RL:               GvNm1 (DYNAMICS)  min= -9.35272988095204E-06
DEBUG_STATS_RL:               GvNm1 (DYNAMICS)  max=  1.50972344006115E-05
DEBUG_STATS_RL:               GvNm1 (DYNAMICS) mean=  7.41791566402990E-07
DEBUG_STATS_RL:               GvNm1 (DYNAMICS) S.D.=  2.60037605088614E-06
DEBUG_STATS_RL:               GtNm1 (DYNAMICS)  min= -1.98735144601012E-06
DEBUG_STATS_RL:               GtNm1 (DYNAMICS)  max=  2.08996123726512E-06
DEBUG_STATS_RL:               GtNm1 (DYNAMICS) mean= -1.98602188784569E-09
DEBUG_STATS_RL:               GtNm1 (DYNAMICS) S.D.=  1.34636040568516E-07
DEBUG_STATS_RL:               GsNm1 (DYNAMICS)  min= -3.15861860091157E-07
DEBUG_STATS_RL:               GsNm1 (DYNAMICS)  max=  2.99757041234279E-07
DEBUG_STATS_RL:               GsNm1 (DYNAMICS) mean= -2.15466188703747E-10
DEBUG_STATS_RL:               GsNm1 (DYNAMICS) S.D.=  1.29303557805972E-08
DEBUG_STATS_RL:    cg2d_b (SOLVE_FOR_PRESSURE)  min= -2.50645433962077E+04
DEBUG_STATS_RL:    cg2d_b (SOLVE_FOR_PRESSURE)  max=  2.70996004888082E+04
DEBUG_STATS_RL:    cg2d_b (SOLVE_FOR_PRESSURE) mean=  5.48965841478243E+00
DEBUG_STATS_RL:    cg2d_b (SOLVE_FOR_PRESSURE) S.D.=  3.97622848851582E+03
 cg2d: Sum(rhs),rhsMax =   4.68957438522843E-01  1.77997431727205E+00
(PID.TID 0000.0001)  cg2d: iter=     1 ; resid.=  2.71076289862374E-01
(PID.TID 0000.0001)  cg2d: iter=     2 ; resid.=  3.19900352266576E-01
(PID.TID 0000.0001)  cg2d: iter=     3 ; resid.=  3.32045736983265E-01
(PID.TID 0000.0001)  cg2d: iter=     4 ; resid.=  2.99276628765158E-01
(PID.TID 0000.0001)  cg2d: iter=     5 ; resid.=  2.49497965508624E-01
(PID.TID 0000.0001)  cg2d: iter=     6 ; resid.=  1.77894077754759E-01
(PID.TID 0000.0001)  cg2d: iter=     7 ; resid.=  1.48710376845674E-01
(PID.TID 0000.0001)  cg2d: iter=     8 ; resid.=  1.14101386401553E-01
(PID.TID 0000.0001)  cg2d: iter=     9 ; resid.=  9.74898951181114E-02
(PID.TID 0000.0001)  cg2d: iter=    10 ; resid.=  8.06799276548733E-02
(PID.TID 0000.0001)  cg2d: iter=    11 ; resid.=  6.32679744539486E-02
(PID.TID 0000.0001)  cg2d: iter=    12 ; resid.=  4.42997364803976E-02
(PID.TID 0000.0001)  cg2d: iter=    13 ; resid.=  3.54599739828552E-02
(PID.TID 0000.0001)  cg2d: iter=    14 ; resid.=  3.18336148143559E-02
(PID.TID 0000.0001)  cg2d: iter=    15 ; resid.=  2.81022031292999E-02
(PID.TID 0000.0001)  cg2d: iter=    16 ; resid.=  2.46925129562355E-02
(PID.TID 0000.0001)  cg2d: iter=    17 ; resid.=  2.42258245855857E-02
(PID.TID 0000.0001)  cg2d: iter=    18 ; resid.=  1.95640059343273E-02
(PID.TID 0000.0001)  cg2d: iter=    19 ; resid.=  1.42189675770867E-02
(PID.TID 0000.0001)  cg2d: iter=    20 ; resid.=  1.30524218523725E-02
(PID.TID 0000.0001)  cg2d: iter=    21 ; resid.=  1.03379016547408E-02
(PID.TID 0000.0001)  cg2d: iter=    22 ; resid.=  9.32585626707842E-03
(PID.TID 0000.0001)  cg2d: iter=    23 ; resid.=  8.25531621915502E-03
(PID.TID 0000.0001)  cg2d: iter=    24 ; resid.=  6.67360166753090E-03
(PID.TID 0000.0001)  cg2d: iter=    25 ; resid.=  5.16582106637444E-03
(PID.TID 0000.0001)  cg2d: iter=    26 ; resid.=  4.02361168750583E-03
(PID.TID 0000.0001)  cg2d: iter=    27 ; resid.=  3.27900027019162E-03
(PID.TID 0000.0001)  cg2d: iter=    28 ; resid.=  2.96545804697443E-03
(PID.TID 0000.0001)  cg2d: iter=    29 ; resid.=  2.24282457607378E-03
(PID.TID 0000.0001)  cg2d: iter=    30 ; resid.=  2.01984053028139E-03
(PID.TID 0000.0001)  cg2d: iter=    31 ; resid.=  1.79270181962786E-03
(PID.TID 0000.0001)  cg2d: iter=    32 ; resid.=  1.39116425950258E-03
(PID.TID 0000.0001)  cg2d: iter=    33 ; resid.=  1.11153664964622E-03
(PID.TID 0000.0001)  cg2d: iter=    34 ; resid.=  9.40205917543503E-04
(PID.TID 0000.0001)  cg2d: iter=    35 ; resid.=  7.73328511069008E-04
(PID.TID 0000.0001)  cg2d: iter=    36 ; resid.=  6.83987838254471E-04
(PID.TID 0000.0001)  cg2d: iter=    37 ; resid.=  6.53645447016073E-04
(PID.TID 0000.0001)  cg2d: iter=    38 ; resid.=  5.92772034854015E-04
(PID.TID 0000.0001)  cg2d: iter=    39 ; resid.=  4.73027642066373E-04
(PID.TID 0000.0001)  cg2d: iter=    40 ; resid.=  3.79494562629084E-04
(PID.TID 0000.0001)  cg2d: iter=    41 ; resid.=  2.88122634636813E-04
(PID.TID 0000.0001)  cg2d: iter=    42 ; resid.=  2.75039282708983E-04
(PID.TID 0000.0001)  cg2d: iter=    43 ; resid.=  2.24229426417185E-04
(PID.TID 0000.0001)  cg2d: iter=    44 ; resid.=  1.72420029038457E-04
(PID.TID 0000.0001)  cg2d: iter=    45 ; resid.=  1.44536575737618E-04
(PID.TID 0000.0001)  cg2d: iter=    46 ; resid.=  1.21719796010116E-04
(PID.TID 0000.0001)  cg2d: iter=    47 ; resid.=  1.09692026865972E-04
(PID.TID 0000.0001)  cg2d: iter=    48 ; resid.=  9.07165399587597E-05
(PID.TID 0000.0001)  cg2d: iter=    49 ; resid.=  6.87967055734693E-05
(PID.TID 0000.0001)  cg2d: iter=    50 ; resid.=  6.10699682564218E-05
(PID.TID 0000.0001)  cg2d: iter=    51 ; resid.=  5.67606658667296E-05
(PID.TID 0000.0001)  cg2d: iter=    52 ; resid.=  5.18024888486693E-05
(PID.TID 0000.0001)  cg2d: iter=    53 ; resid.=  4.35931588808088E-05
(PID.TID 0000.0001)  cg2d: iter=    54 ; resid.=  3.37656087154515E-05
(PID.TID 0000.0001)  cg2d: iter=    55 ; resid.=  2.72315450783946E-05
(PID.TID 0000.0001)  cg2d: iter=    56 ; resid.=  2.18144342160868E-05
(PID.TID 0000.0001)  cg2d: iter=    57 ; resid.=  1.55783566819732E-05
(PID.TID 0000.0001)  cg2d: iter=    58 ; resid.=  1.06695449884244E-05
(PID.TID 0000.0001)  cg2d: iter=    59 ; resid.=  8.46752737712380E-06
(PID.TID 0000.0001)  cg2d: iter=    60 ; resid.=  7.54210399715011E-06
(PID.TID 0000.0001)  cg2d: iter=    61 ; resid.=  6.60227971090020E-06
(PID.TID 0000.0001)  cg2d: iter=    62 ; resid.=  5.54489478342495E-06
(PID.TID 0000.0001)  cg2d: iter=    63 ; resid.=  5.03770271479813E-06
(PID.TID 0000.0001)  cg2d: iter=    64 ; resid.=  4.06291750770749E-06
(PID.TID 0000.0001)  cg2d: iter=    65 ; resid.=  3.12603063586800E-06
(PID.TID 0000.0001)  cg2d: iter=    66 ; resid.=  2.47359318602763E-06
(PID.TID 0000.0001)  cg2d: iter=    67 ; resid.=  2.11392073422516E-06
(PID.TID 0000.0001)  cg2d: iter=    68 ; resid.=  1.91948396314659E-06
(PID.TID 0000.0001)  cg2d: iter=    69 ; resid.=  1.76978472692667E-06
(PID.TID 0000.0001)  cg2d: iter=    70 ; resid.=  1.45507267733476E-06
(PID.TID 0000.0001)  cg2d: iter=    71 ; resid.=  1.19359022632113E-06
(PID.TID 0000.0001)  cg2d: iter=    72 ; resid.=  9.48332548979477E-07
(PID.TID 0000.0001)  cg2d: iter=    73 ; resid.=  8.26123261072978E-07
(PID.TID 0000.0001)  cg2d: iter=    74 ; resid.=  6.93087652013760E-07
(PID.TID 0000.0001)  cg2d: iter=    75 ; resid.=  5.42959434493758E-07
(PID.TID 0000.0001)  cg2d: iter=    76 ; resid.=  4.15076220547512E-07
(PID.TID 0000.0001)  cg2d: iter=    77 ; resid.=  3.35636753020086E-07
(PID.TID 0000.0001)  cg2d: iter=    78 ; resid.=  2.65799966102645E-07
(PID.TID 0000.0001)  cg2d: iter=    79 ; resid.=  2.27480490288051E-07
(PID.TID 0000.0001)  cg2d: iter=    80 ; resid.=  1.78143102224723E-07
(PID.TID 0000.0001)  cg2d: iter=    81 ; resid.=  1.24437914484909E-07
(PID.TID 0000.0001)  cg2d: iter=    82 ; resid.=  8.80180431741153E-08
(PID.TID 0000.0001)  cg2d: iter=    83 ; resid.=  6.94364026908567E-08
(PID.TID 0000.0001)  cg2d: iter=    84 ; resid.=  5.48635001109589E-08
(PID.TID 0000.0001)  cg2d: iter=    85 ; resid.=  4.11474553365494E-08
(PID.TID 0000.0001)  cg2d: iter=    86 ; resid.=  3.13733305637537E-08
(PID.TID 0000.0001)  cg2d: iter=    87 ; resid.=  2.63924719423209E-08
(PID.TID 0000.0001)  cg2d: iter=    88 ; resid.=  2.33088247304681E-08
(PID.TID 0000.0001)  cg2d: iter=    89 ; resid.=  1.87834613152024E-08
(PID.TID 0000.0001)  cg2d: iter=    90 ; resid.=  1.42023378035998E-08
(PID.TID 0000.0001)  cg2d: iter=    91 ; resid.=  1.07468108111615E-08
(PID.TID 0000.0001)  cg2d: iter=    92 ; resid.=  8.54633504168444E-09
(PID.TID 0000.0001)  cg2d: iter=    93 ; resid.=  6.32797528211824E-09
(PID.TID 0000.0001)  cg2d: iter=    94 ; resid.=  5.06295193093416E-09
(PID.TID 0000.0001)  cg2d: iter=    95 ; resid.=  4.26254683865373E-09
(PID.TID 0000.0001)  cg2d: iter=    96 ; resid.=  3.72785817673170E-09
(PID.TID 0000.0001)  cg2d: iter=    97 ; resid.=  3.10471336079570E-09
(PID.TID 0000.0001)  cg2d: iter=    98 ; resid.=  2.51873479088070E-09
(PID.TID 0000.0001)  cg2d: iter=    99 ; resid.=  2.10686952530200E-09
(PID.TID 0000.0001)  cg2d: iter=   100 ; resid.=  1.78868535879689E-09
(PID.TID 0000.0001)  cg2d: iter=   101 ; resid.=  1.41186035806708E-09
(PID.TID 0000.0001)  cg2d: iter=   102 ; resid.=  1.13208147014317E-09
(PID.TID 0000.0001)  cg2d: iter=   103 ; resid.=  9.34467337237269E-10
(PID.TID 0000.0001)  cg2d: iter=   104 ; resid.=  8.44275966545907E-10
(PID.TID 0000.0001)  cg2d: iter=   105 ; resid.=  6.09470698867047E-10
(PID.TID 0000.0001)  cg2d: iter=   106 ; resid.=  4.35276890996097E-10
(PID.TID 0000.0001)  cg2d: iter=   107 ; resid.=  3.43865182331324E-10
(PID.TID 0000.0001)  cg2d: iter=   108 ; resid.=  2.53033902560993E-10
(PID.TID 0000.0001)  cg2d: iter=   109 ; resid.=  1.88126037297849E-10
(PID.TID 0000.0001)  cg2d: iter=   110 ; resid.=  1.42653734756278E-10
(PID.TID 0000.0001)  cg2d: iter=   111 ; resid.=  1.14547355490680E-10
(PID.TID 0000.0001)  cg2d: iter=   112 ; resid.=  8.14692227900735E-11
(PID.TID 0000.0001)  cg2d: iter=   113 ; resid.=  5.82016057657233E-11
(PID.TID 0000.0001)  cg2d: iter=   114 ; resid.=  3.88317180712461E-11
(PID.TID 0000.0001)  cg2d: iter=   115 ; resid.=  3.06915958469513E-11
(PID.TID 0000.0001)  cg2d: iter=   116 ; resid.=  2.36014845958256E-11
(PID.TID 0000.0001)  cg2d: iter=   117 ; resid.=  1.97346870809679E-11
(PID.TID 0000.0001)  cg2d: iter=   118 ; resid.=  1.53416867717595E-11
(PID.TID 0000.0001)  cg2d: iter=   119 ; resid.=  1.19264278026141E-11
(PID.TID 0000.0001)  cg2d: iter=   120 ; resid.=  9.04942325471964E-12
(PID.TID 0000.0001)  cg2d: iter=   121 ; resid.=  6.88896834075054E-12
(PID.TID 0000.0001)  cg2d: iter=   122 ; resid.=  5.38255570028664E-12
(PID.TID 0000.0001)  cg2d: iter=   123 ; resid.=  3.60538022475758E-12
(PID.TID 0000.0001)  cg2d: iter=   124 ; resid.=  2.48338981969674E-12
(PID.TID 0000.0001)  cg2d: iter=   125 ; resid.=  1.81479821382126E-12
(PID.TID 0000.0001)  cg2d: iter=   126 ; resid.=  1.31579496742486E-12
(PID.TID 0000.0001)  cg2d: iter=   127 ; resid.=  9.33650655598089E-13
(PID.TID 0000.0001)  cg2d: iter=   128 ; resid.=  6.31603144664749E-13
(PID.TID 0000.0001)  cg2d: iter=   129 ; resid.=  4.80384929997081E-13
(PID.TID 0000.0001)  cg2d: iter=   130 ; resid.=  3.81953058160735E-13
(PID.TID 0000.0001)  cg2d: iter=   131 ; resid.=  2.89879746443808E-13
(PID.TID 0000.0001)  cg2d: iter=   132 ; resid.=  2.37502181024136E-13
(PID.TID 0000.0001)  cg2d: iter=   133 ; resid.=  1.84440643616938E-13
(PID.TID 0000.0001)  cg2d: iter=   134 ; resid.=  1.35560785729773E-13
(PID.TID 0000.0001)  cg2d: iter=   135 ; resid.=  1.01145446049840E-13
(PID.TID 0000.0001)  cg2d: iter=   136 ; resid.=  7.45366521288042E-14
DEBUG_STATS_RL:    cg2d_x (SOLVE_FOR_PRESSURE)  min= -1.79616555498284E+01
DEBUG_STATS_RL:    cg2d_x (SOLVE_FOR_PRESSURE)  max=  8.68142451406766E+00
DEBUG_STATS_RL:    cg2d_x (SOLVE_FOR_PRESSURE) mean= -1.85641207456895E+00
DEBUG_STATS_RL:    cg2d_x (SOLVE_FOR_PRESSURE) S.D.=  7.13882122426376E+00
(PID.TID 0000.0001)      cg2d_init_res =   4.08523059040699E-01
(PID.TID 0000.0001)      cg2d_iters(min,last) =      -1     136
(PID.TID 0000.0001)      cg2d_last_res =   7.45366521288042E-14
(PID.TID 0000.0001) // =======================================================
(PID.TID 0000.0001) // Begin MONITOR dynamic field statistics
(PID.TID 0000.0001) // =======================================================
(PID.TID 0000.0001) %MON time_tsnumber                =                    92
(PID.TID 0000.0001) %MON time_secondsf                =   7.9488000000000E+06
(PID.TID 0000.0001) %MON dynstat_eta_max              =   8.8495662732593E-01
(PID.TID 0000.0001) %MON dynstat_eta_min              =  -1.8309536748041E+00
(PID.TID 0000.0001) %MON dynstat_eta_mean             =  -5.7277778606539E-03
(PID.TID 0000.0001) %MON dynstat_eta_sd               =   6.2351307586652E-01
(PID.TID 0000.0001) %MON dynstat_eta_del2             =   2.5240275557948E-03
(PID.TID 0000.0001) %MON dynstat_uvel_max             =   1.5405571365813E-01
(PID.TID 0000.0001) %MON dynstat_uvel_min             =  -1.2854989173032E-01
(PID.TID 0000.0001) %MON dynstat_uvel_mean            =   2.2977764521468E-03
(PID.TID 0000.0001) %MON dynstat_uvel_sd              =   1.3845376597289E-02
(PID.TID 0000.0001) %MON dynstat_uvel_del2            =   9.6003386067123E-05
(PID.TID 0000.0001) %MON dynstat_vvel_max             =   1.2187483896406E-01
(PID.TID 0000.0001) %MON dynstat_vvel_min             =  -9.9482737251077E-02
(PID.TID 0000.0001) %MON dynstat_vvel_mean            =   2.1852839699727E-04
(PID.TID 0000.0001) %MON dynstat_vvel_sd              =   9.0061500396880E-03
(PID.TID 0000.0001) %MON dynstat_vvel_del2            =   8.2690395964025E-05
(PID.TID 0000.0001) %MON dynstat_wvel_max             =   1.4313753271513E-04
(PID.TID 0000.0001) %MON dynstat_wvel_min             =  -9.1359353296292E-05
(PID.TID 0000.0001) %MON dynstat_wvel_mean            =  -9.0962000541271E-11
(PID.TID 0000.0001) %MON dynstat_wvel_sd              =   1.0759559329569E-05
(PID.TID 0000.0001) %MON dynstat_wvel_del2            =   1.0954606749508E-07
(PID.TID 0000.0001) %MON dynstat_theta_max            =   3.0124952699380E+01
(PID.TID 0000.0001) %MON dynstat_theta_min            =  -1.9137009894218E+00
(PID.TID 0000.0001) %MON dynstat_theta_mean           =   3.6217143446867E+00
(PID.TID 0000.0001) %MON dynstat_theta_sd             =   4.4234801588480E+00
(PID.TID 0000.0001) %MON dynstat_theta_del2           =   4.5830988858274E-03
(PID.TID 0000.0001) %MON dynstat_salt_max             =   3.7439727747526E+01
(PID.TID 0000.0001) %MON dynstat_salt_min             =   2.9912978284430E+01
(PID.TID 0000.0001) %MON dynstat_salt_mean            =   3.4717276036764E+01
(PID.TID 0000.0001) %MON dynstat_salt_sd              =   2.9620983595405E-01
(PID.TID 0000.0001) %MON dynstat_salt_del2            =   9.5875199518935E-04
(PID.TID 0000.0001) %MON dynstat_sst_max              =   3.0124952699380E+01
(PID.TID 0000.0001) %MON dynstat_sst_min              =  -1.9137009894218E+00
(PID.TID 0000.0001) %MON dynstat_sst_mean             =   1.8770309083689E+01
(PID.TID 0000.0001) %MON dynstat_sst_sd               =   9.3872727971049E+00
(PID.TID 0000.0001) %MON dynstat_sst_del2             =   2.3225333945600E-02
(PID.TID 0000.0001) %MON dynstat_sss_max              =   3.7407216964983E+01
(PID.TID 0000.0001) %MON dynstat_sss_min              =   2.9912978284430E+01
(PID.TID 0000.0001) %MON dynstat_sss_mean             =   3.4838911869152E+01
(PID.TID 0000.0001) %MON dynstat_sss_sd               =   9.8555145113265E-01
(PID.TID 0000.0001) %MON dynstat_sss_del2             =   7.6200752286331E-03
(PID.TID 0000.0001) %MON forcing_qnet_max             =   1.9922393391927E+02
(PID.TID 0000.0001) %MON forcing_qnet_min             =  -1.5700764973958E+02
(PID.TID 0000.0001) %MON forcing_qnet_mean            =  -9.1248312663050E-01
(PID.TID 0000.0001) %MON forcing_qnet_sd              =   3.9520951895878E+01
(PID.TID 0000.0001) %MON forcing_qnet_del2            =   7.8352758501647E-01
(PID.TID 0000.0001) %MON forcing_qsw_max              =   0.0000000000000E+00
(PID.TID 0000.0001) %MON forcing_qsw_min              =   0.0000000000000E+00
(PID.TID 0000.0001) %MON forcing_qsw_mean             =   0.0000000000000E+00
(PID.TID 0000.0001) %MON forcing_qsw_sd               =   0.0000000000000E+00
(PID.TID 0000.0001) %MON forcing_qsw_del2             =   0.0000000000000E+00
(PID.TID 0000.0001) %MON forcing_empmr_max            =   6.7570085586037E-05
(PID.TID 0000.0001) %MON forcing_empmr_min            =  -8.3501954861731E-05
(PID.TID 0000.0001) %MON forcing_empmr_mean           =   1.9158521643765E-07
(PID.TID 0000.0001) %MON forcing_empmr_sd             =   2.5545939064587E-05
(PID.TID 0000.0001) %MON forcing_empmr_del2           =   3.6438848805785E-07
(PID.TID 0000.0001) %MON forcing_fu_max               =   3.4739760756493E-01
(PID.TID 0000.0001) %MON forcing_fu_min               =  -4.0348557233810E-01
(PID.TID 0000.0001) %MON forcing_fu_mean              =   1.8421655749463E-02
(PID.TID 0000.0001) %MON forcing_fu_sd                =   1.0042548414451E-01
(PID.TID 0000.0001) %MON forcing_fu_del2              =   7.7738003749810E-04
(PID.TID 0000.0001) %MON forcing_fv_max               =   1.8176432649295E-01
(PID.TID 0000.0001) %MON forcing_fv_min               =  -1.4326689740022E-01
(PID.TID 0000.0001) %MON forcing_fv_mean              =  -6.9459486820761E-03
(PID.TID 0000.0001) %MON forcing_fv_sd                =   3.8697920486892E-02
(PID.TID 0000.0001) %MON forcing_fv_del2              =   4.1531073929018E-04
(PID.TID 0000.0001) %MON trAdv_CFL_u_max              =   5.7314492382224E-02
(PID.TID 0000.0001) %MON trAdv_CFL_v_max              =   2.3495534710622E-02
(PID.TID 0000.0001) %MON trAdv_CFL_w_max              =   4.6676002197177E-02
(PID.TID 0000.0001) %MON advcfl_uvel_max              =   5.6481348060608E-02
(PID.TID 0000.0001) %MON advcfl_vvel_max              =   2.3678326573297E-02
(PID.TID 0000.0001) %MON advcfl_wvel_max              =   3.6523037239501E-02
(PID.TID 0000.0001) %MON advcfl_W_hf_max              =   4.3045008175126E-02
(PID.TID 0000.0001) %MON pe_b_mean                    =   4.9751820756347E-04
(PID.TID 0000.0001) %MON ke_max                       =   1.3826893558309E-02
(PID.TID 0000.0001) %MON ke_mean                      =   1.2592397878613E-04
(PID.TID 0000.0001) %MON ke_vol                       =   1.3226782436723E+18
(PID.TID 0000.0001) %MON vort_r_min                   =  -4.1129799070896E-07
(PID.TID 0000.0001) %MON vort_r_max                   =   5.6186711702100E-07
(PID.TID 0000.0001) %MON vort_a_mean                  =  -2.5274807913153E-05
(PID.TID 0000.0001) %MON vort_a_sd                    =   7.3604643649545E-05
(PID.TID 0000.0001) %MON vort_p_mean                  =  -3.1845656449244E-05
(PID.TID 0000.0001) %MON vort_p_sd                    =   1.3162437105243E-04
(PID.TID 0000.0001) %MON surfExpan_theta_mean         =  -1.2258447773158E-06
(PID.TID 0000.0001) %MON surfExpan_salt_mean          =   3.0898182415848E-07
(PID.TID 0000.0001) // =======================================================
(PID.TID 0000.0001) // End MONITOR dynamic field statistics
(PID.TID 0000.0001) // =======================================================
 EXTERNAL_FIELDS_LOAD,        92 : iP,iLd,i0,i1=    3    4    3    4 ; Wght=  0.4333333333  0.5666666667
 EXTERNAL_FIELDS_LOAD: (fu0,1),fu,fv= -2.7199E-02 -3.7252E-02 -3.2896E-02 -2.0206E-02
 EXTERNAL_FIELDS_LOAD: SST,SSS,Q,E-P= -5.9668E-02  3.4573E+01  1.5233E+02  8.3375E-06
DEBUG_STATS_RL:          Uvel (THERMODYNAMICS)  min= -1.28549891730320E-01
DEBUG_STATS_RL:          Uvel (THERMODYNAMICS)  max=  1.54055713658131E-01
DEBUG_STATS_RL:          Uvel (THERMODYNAMICS) mean=  5.68827170986805E-03
DEBUG_STATS_RL:          Uvel (THERMODYNAMICS) S.D.=  2.20427998308312E-02
DEBUG_STATS_RL:          Vvel (THERMODYNAMICS)  min= -9.94827372510766E-02
DEBUG_STATS_RL:          Vvel (THERMODYNAMICS)  max=  1.21874838964058E-01
DEBUG_STATS_RL:          Vvel (THERMODYNAMICS) mean=  1.15147503656896E-03
DEBUG_STATS_RL:          Vvel (THERMODYNAMICS) S.D.=  1.38156099893306E-02
DEBUG_STATS_RL:          Wvel (THERMODYNAMICS)  min= -9.13593532962925E-05
DEBUG_STATS_RL:          Wvel (THERMODYNAMICS)  max=  1.43137532715131E-04
DEBUG_STATS_RL:          Wvel (THERMODYNAMICS) mean=  3.77279792897249E-09
DEBUG_STATS_RL:          Wvel (THERMODYNAMICS) S.D.=  9.68490936151527E-06
DEBUG_STATS_RL:         Theta (THERMODYNAMICS)  min= -1.90828744887492E+00
DEBUG_STATS_RL:         Theta (THERMODYNAMICS)  max=  3.01363916441872E+01
DEBUG_STATS_RL:         Theta (THERMODYNAMICS) mean=  3.20891267368923E+00
DEBUG_STATS_RL:         Theta (THERMODYNAMICS) S.D.=  5.87303958847762E+00
DEBUG_STATS_RL:          Salt (THERMODYNAMICS)  min= -6.86352596184166E-04
DEBUG_STATS_RL:          Salt (THERMODYNAMICS)  max=  3.74393953359496E+01
DEBUG_STATS_RL:          Salt (THERMODYNAMICS) mean=  1.88440977614388E+01
DEBUG_STATS_RL:          Salt (THERMODYNAMICS) S.D.=  1.73003250954082E+01
DEBUG_STATS_RL:         GtNm1 (THERMODYNAMICS)  min= -1.97563884278761E-06
DEBUG_STATS_RL:         GtNm1 (THERMODYNAMICS)  max=  2.09614433209121E-06
DEBUG_STATS_RL:         GtNm1 (THERMODYNAMICS) mean= -2.07912033318094E-09
DEBUG_STATS_RL:         GtNm1 (THERMODYNAMICS) S.D.=  1.34507483185514E-07
DEBUG_STATS_RL:         GsNm1 (THERMODYNAMICS)  min= -3.73670967031410E-07
DEBUG_STATS_RL:         GsNm1 (THERMODYNAMICS)  max=  2.82937902277634E-07
DEBUG_STATS_RL:         GsNm1 (THERMODYNAMICS) mean= -1.94310159724154E-10
DEBUG_STATS_RL:         GsNm1 (THERMODYNAMICS) S.D.=  1.28013974486791E-08
DEBUG_STATS_RL:                EtaN (DYNAMICS)  min= -1.83095367480412E+00
DEBUG_STATS_RL:                EtaN (DYNAMICS)  max=  8.84956627325929E-01
DEBUG_STATS_RL:                EtaN (DYNAMICS) mean= -1.89236704849027E-01
DEBUG_STATS_RL:                EtaN (DYNAMICS) S.D.=  7.27708585551860E-01
DEBUG_STATS_RL:                Uvel (DYNAMICS)  min= -1.28549891730320E-01
DEBUG_STATS_RL:                Uvel (DYNAMICS)  max=  1.54055713658131E-01
DEBUG_STATS_RL:                Uvel (DYNAMICS) mean=  5.68827170986805E-03
DEBUG_STATS_RL:                Uvel (DYNAMICS) S.D.=  2.20427998308312E-02
DEBUG_STATS_RL:                Vvel (DYNAMICS)  min= -9.94827372510766E-02
DEBUG_STATS_RL:                Vvel (DYNAMICS)  max=  1.21874838964058E-01
DEBUG_STATS_RL:                Vvel (DYNAMICS) mean=  1.15147503656896E-03
DEBUG_STATS_RL:                Vvel (DYNAMICS) S.D.=  1.38156099893306E-02
DEBUG_STATS_RL:                Wvel (DYNAMICS)  min= -9.13593532962925E-05
DEBUG_STATS_RL:                Wvel (DYNAMICS)  max=  1.43137532715131E-04
DEBUG_STATS_RL:                Wvel (DYNAMICS) mean=  3.77279792897249E-09
DEBUG_STATS_RL:                Wvel (DYNAMICS) S.D.=  9.68490936151527E-06
DEBUG_STATS_RL:               Theta (DYNAMICS)  min= -1.90828744887492E+00
DEBUG_STATS_RL:               Theta (DYNAMICS)  max=  3.01363916441872E+01
DEBUG_STATS_RL:               Theta (DYNAMICS) mean=  3.20891267368923E+00
DEBUG_STATS_RL:               Theta (DYNAMICS) S.D.=  5.87303958847762E+00
DEBUG_STATS_RL:                Salt (DYNAMICS)  min= -6.86352596184166E-04
DEBUG_STATS_RL:                Salt (DYNAMICS)  max=  3.74393953359496E+01
DEBUG_STATS_RL:                Salt (DYNAMICS) mean=  1.88440977614388E+01
DEBUG_STATS_RL:                Salt (DYNAMICS) S.D.=  1.73003250954082E+01
DEBUG_STATS_RL:                  Gu (DYNAMICS)  min= -1.27529452630242E-01
DEBUG_STATS_RL:                  Gu (DYNAMICS)  max=  1.41043462744134E-01
DEBUG_STATS_RL:                  Gu (DYNAMICS) mean=  5.68159378610042E-03
DEBUG_STATS_RL:                  Gu (DYNAMICS) S.D.=  2.23506093765974E-02
DEBUG_STATS_RL:                  Gv (DYNAMICS)  min= -9.88696046845021E-02
DEBUG_STATS_RL:                  Gv (DYNAMICS)  max=  1.21386188923543E-01
DEBUG_STATS_RL:                  Gv (DYNAMICS) mean=  3.80093662431867E-03
DEBUG_STATS_RL:                  Gv (DYNAMICS) S.D.=  1.50839983867532E-02
DEBUG_STATS_RL:               GuNm1 (DYNAMICS)  min= -9.10076337531712E-06
DEBUG_STATS_RL:               GuNm1 (DYNAMICS)  max=  9.12068390828818E-06
DEBUG_STATS_RL:               GuNm1 (DYNAMICS) mean=  1.10378477619237E-08
DEBUG_STATS_RL:               GuNm1 (DYNAMICS) S.D.=  1.22106551645355E-06
DEBUG_STATS_RL:               GvNm1 (DYNAMICS)  min= -9.33111638104056E-06
DEBUG_STATS_RL:               GvNm1 (DYNAMICS)  max=  1.50564247888449E-05
DEBUG_STATS_RL:               GvNm1 (DYNAMICS) mean=  7.42741191365241E-07
DEBUG_STATS_RL:               GvNm1 (DYNAMICS) S.D.=  2.59921715506849E-06
DEBUG_STATS_RL:               GtNm1 (DYNAMICS)  min= -1.97563884278761E-06
DEBUG_STATS_RL:               GtNm1 (DYNAMICS)  max=  2.09614433209121E-06
DEBUG_STATS_RL:               GtNm1 (DYNAMICS) mean= -2.07912033318094E-09
DEBUG_STATS_RL:               GtNm1 (DYNAMICS) S.D.=  1.34507483185514E-07
DEBUG_STATS_RL:               GsNm1 (DYNAMICS)  min= -3.73670967031410E-07
DEBUG_STATS_RL:               GsNm1 (DYNAMICS)  max=  2.82937902277634E-07
DEBUG_STATS_RL:               GsNm1 (DYNAMICS) mean= -1.94310159724154E-10
DEBUG_STATS_RL:               GsNm1 (DYNAMICS) S.D.=  1.28013974486791E-08
DEBUG_STATS_RL:    cg2d_b (SOLVE_FOR_PRESSURE)  min= -2.47899566777633E+04
DEBUG_STATS_RL:    cg2d_b (SOLVE_FOR_PRESSURE)  max=  2.69383475534697E+04
DEBUG_STATS_RL:    cg2d_b (SOLVE_FOR_PRESSURE) mean=  5.50319092904383E+00
DEBUG_STATS_RL:    cg2d_b (SOLVE_FOR_PRESSURE) S.D.=  3.98093080568854E+03
 cg2d: Sum(rhs),rhsMax =   4.72927560810938E-01  1.76938279273626E+00
(PID.TID 0000.0001)  cg2d: iter=     1 ; resid.=  2.26443268831471E-01
(PID.TID 0000.0001)  cg2d: iter=     2 ; resid.=  2.57511905717789E-01
(PID.TID 0000.0001)  cg2d: iter=     3 ; resid.=  2.45796542449566E-01
(PID.TID 0000.0001)  cg2d: iter=     4 ; resid.=  2.32423835050879E-01
(PID.TID 0000.0001)  cg2d: iter=     5 ; resid.=  1.92921770585145E-01
(PID.TID 0000.0001)  cg2d: iter=     6 ; resid.=  1.29723707909498E-01
(PID.TID 0000.0001)  cg2d: iter=     7 ; resid.=  1.19447812054709E-01
(PID.TID 0000.0001)  cg2d: iter=     8 ; resid.=  8.57034283088661E-02
(PID.TID 0000.0001)  cg2d: iter=     9 ; resid.=  6.97097570433476E-02
(PID.TID 0000.0001)  cg2d: iter=    10 ; resid.=  6.19787729264753E-02
(PID.TID 0000.0001)  cg2d: iter=    11 ; resid.=  4.91729041005766E-02
(PID.TID 0000.0001)  cg2d: iter=    12 ; resid.=  3.30184914977276E-02
(PID.TID 0000.0001)  cg2d: iter=    13 ; resid.=  2.65843407563410E-02
(PID.TID 0000.0001)  cg2d: iter=    14 ; resid.=  2.61036018045956E-02
(PID.TID 0000.0001)  cg2d: iter=    15 ; resid.=  2.18086658278459E-02
(PID.TID 0000.0001)  cg2d: iter=    16 ; resid.=  1.95744525939366E-02
(PID.TID 0000.0001)  cg2d: iter=    17 ; resid.=  1.87601837461707E-02
(PID.TID 0000.0001)  cg2d: iter=    18 ; resid.=  1.43588803820972E-02
(PID.TID 0000.0001)  cg2d: iter=    19 ; resid.=  1.06064443264806E-02
(PID.TID 0000.0001)  cg2d: iter=    20 ; resid.=  1.02830513757990E-02
(PID.TID 0000.0001)  cg2d: iter=    21 ; resid.=  8.08871411233782E-03
(PID.TID 0000.0001)  cg2d: iter=    22 ; resid.=  7.32893138817482E-03
(PID.TID 0000.0001)  cg2d: iter=    23 ; resid.=  6.01123440871394E-03
(PID.TID 0000.0001)  cg2d: iter=    24 ; resid.=  5.11662798939417E-03
(PID.TID 0000.0001)  cg2d: iter=    25 ; resid.=  3.75378352810964E-03
(PID.TID 0000.0001)  cg2d: iter=    26 ; resid.=  3.15781100009160E-03
(PID.TID 0000.0001)  cg2d: iter=    27 ; resid.=  2.67556098534982E-03
(PID.TID 0000.0001)  cg2d: iter=    28 ; resid.=  2.35372298923972E-03
(PID.TID 0000.0001)  cg2d: iter=    29 ; resid.=  1.75034274925356E-03
(PID.TID 0000.0001)  cg2d: iter=    30 ; resid.=  1.43185244958626E-03
(PID.TID 0000.0001)  cg2d: iter=    31 ; resid.=  1.21660182841388E-03
(PID.TID 0000.0001)  cg2d: iter=    32 ; resid.=  1.05129660128437E-03
(PID.TID 0000.0001)  cg2d: iter=    33 ; resid.=  8.47440065962010E-04
(PID.TID 0000.0001)  cg2d: iter=    34 ; resid.=  7.64557746386459E-04
(PID.TID 0000.0001)  cg2d: iter=    35 ; resid.=  6.14199970588773E-04
(PID.TID 0000.0001)  cg2d: iter=    36 ; resid.=  5.15016900165523E-04
(PID.TID 0000.0001)  cg2d: iter=    37 ; resid.=  4.90562545263026E-04
(PID.TID 0000.0001)  cg2d: iter=    38 ; resid.=  4.26334026807470E-04
(PID.TID 0000.0001)  cg2d: iter=    39 ; resid.=  3.34323563141486E-04
(PID.TID 0000.0001)  cg2d: iter=    40 ; resid.=  2.82148714922893E-04
(PID.TID 0000.0001)  cg2d: iter=    41 ; resid.=  2.35724534602543E-04
(PID.TID 0000.0001)  cg2d: iter=    42 ; resid.=  2.17053437307563E-04
(PID.TID 0000.0001)  cg2d: iter=    43 ; resid.=  1.59865960112447E-04
(PID.TID 0000.0001)  cg2d: iter=    44 ; resid.=  1.23175874214545E-04
(PID.TID 0000.0001)  cg2d: iter=    45 ; resid.=  9.99903049310430E-05
(PID.TID 0000.0001)  cg2d: iter=    46 ; resid.=  9.28180206916833E-05
(PID.TID 0000.0001)  cg2d: iter=    47 ; resid.=  8.61818516176454E-05
(PID.TID 0000.0001)  cg2d: iter=    48 ; resid.=  6.82901324114659E-05
(PID.TID 0000.0001)  cg2d: iter=    49 ; resid.=  5.19844758359188E-05
(PID.TID 0000.0001)  cg2d: iter=    50 ; resid.=  4.53983652873632E-05
(PID.TID 0000.0001)  cg2d: iter=    51 ; resid.=  4.11956846251373E-05
(PID.TID 0000.0001)  cg2d: iter=    52 ; resid.=  3.74982868242344E-05
(PID.TID 0000.0001)  cg2d: iter=    53 ; resid.=  3.27646663023612E-05
(PID.TID 0000.0001)  cg2d: iter=    54 ; resid.=  2.52742969091925E-05
(PID.TID 0000.0001)  cg2d: iter=    55 ; resid.=  2.16788356343132E-05
(PID.TID 0000.0001)  cg2d: iter=    56 ; resid.=  1.69768379266663E-05
(PID.TID 0000.0001)  cg2d: iter=    57 ; resid.=  1.20124690991497E-05
(PID.TID 0000.0001)  cg2d: iter=    58 ; resid.=  8.21459292389872E-06
(PID.TID 0000.0001)  cg2d: iter=    59 ; resid.=  6.67958867739648E-06
(PID.TID 0000.0001)  cg2d: iter=    60 ; resid.=  5.63017816390956E-06
(PID.TID 0000.0001)  cg2d: iter=    61 ; resid.=  4.94965313490905E-06
(PID.TID 0000.0001)  cg2d: iter=    62 ; resid.=  3.92952472363246E-06
(PID.TID 0000.0001)  cg2d: iter=    63 ; resid.=  3.67597989575678E-06
(PID.TID 0000.0001)  cg2d: iter=    64 ; resid.=  3.10431819531355E-06
(PID.TID 0000.0001)  cg2d: iter=    65 ; resid.=  2.41254837811956E-06
(PID.TID 0000.0001)  cg2d: iter=    66 ; resid.=  1.90733086578840E-06
(PID.TID 0000.0001)  cg2d: iter=    67 ; resid.=  1.68194355125085E-06
(PID.TID 0000.0001)  cg2d: iter=    68 ; resid.=  1.45155909868836E-06
(PID.TID 0000.0001)  cg2d: iter=    69 ; resid.=  1.37049953929945E-06
(PID.TID 0000.0001)  cg2d: iter=    70 ; resid.=  1.15947423143835E-06
(PID.TID 0000.0001)  cg2d: iter=    71 ; resid.=  9.62950490827264E-07
(PID.TID 0000.0001)  cg2d: iter=    72 ; resid.=  7.86023683580742E-07
(PID.TID 0000.0001)  cg2d: iter=    73 ; resid.=  6.83317570270815E-07
(PID.TID 0000.0001)  cg2d: iter=    74 ; resid.=  5.22972564860287E-07
(PID.TID 0000.0001)  cg2d: iter=    75 ; resid.=  4.02012073150969E-07
(PID.TID 0000.0001)  cg2d: iter=    76 ; resid.=  3.10398211191783E-07
(PID.TID 0000.0001)  cg2d: iter=    77 ; resid.=  2.52071000002977E-07
(PID.TID 0000.0001)  cg2d: iter=    78 ; resid.=  2.09469146620630E-07
(PID.TID 0000.0001)  cg2d: iter=    79 ; resid.=  1.70837862803867E-07
(PID.TID 0000.0001)  cg2d: iter=    80 ; resid.=  1.28511520297597E-07
(PID.TID 0000.0001)  cg2d: iter=    81 ; resid.=  9.54534685640385E-08
(PID.TID 0000.0001)  cg2d: iter=    82 ; resid.=  7.05209894144559E-08
(PID.TID 0000.0001)  cg2d: iter=    83 ; resid.=  5.35573844869763E-08
(PID.TID 0000.0001)  cg2d: iter=    84 ; resid.=  4.15551560890370E-08
(PID.TID 0000.0001)  cg2d: iter=    85 ; resid.=  3.13949435769732E-08
(PID.TID 0000.0001)  cg2d: iter=    86 ; resid.=  2.42759795288389E-08
(PID.TID 0000.0001)  cg2d: iter=    87 ; resid.=  1.97513940313109E-08
(PID.TID 0000.0001)  cg2d: iter=    88 ; resid.=  1.77786825936881E-08
(PID.TID 0000.0001)  cg2d: iter=    89 ; resid.=  1.34573591957106E-08
(PID.TID 0000.0001)  cg2d: iter=    90 ; resid.=  1.00971406700978E-08
(PID.TID 0000.0001)  cg2d: iter=    91 ; resid.=  8.54096738873124E-09
(PID.TID 0000.0001)  cg2d: iter=    92 ; resid.=  7.07227359885213E-09
(PID.TID 0000.0001)  cg2d: iter=    93 ; resid.=  5.16187383023729E-09
(PID.TID 0000.0001)  cg2d: iter=    94 ; resid.=  4.11058922129179E-09
(PID.TID 0000.0001)  cg2d: iter=    95 ; resid.=  3.54444724515172E-09
(PID.TID 0000.0001)  cg2d: iter=    96 ; resid.=  2.86985261589787E-09
(PID.TID 0000.0001)  cg2d: iter=    97 ; resid.=  2.19270396770642E-09
(PID.TID 0000.0001)  cg2d: iter=    98 ; resid.=  1.69787145899907E-09
(PID.TID 0000.0001)  cg2d: iter=    99 ; resid.=  1.50107137704212E-09
(PID.TID 0000.0001)  cg2d: iter=   100 ; resid.=  1.39092326875777E-09
(PID.TID 0000.0001)  cg2d: iter=   101 ; resid.=  1.09815463765770E-09
(PID.TID 0000.0001)  cg2d: iter=   102 ; resid.=  9.08461776030550E-10
(PID.TID 0000.0001)  cg2d: iter=   103 ; resid.=  8.00036921423673E-10
(PID.TID 0000.0001)  cg2d: iter=   104 ; resid.=  6.47390234208808E-10
(PID.TID 0000.0001)  cg2d: iter=   105 ; resid.=  4.40054927423224E-10
(PID.TID 0000.0001)  cg2d: iter=   106 ; resid.=  3.15822552734580E-10
(PID.TID 0000.0001)  cg2d: iter=   107 ; resid.=  2.41100085374089E-10
(PID.TID 0000.0001)  cg2d: iter=   108 ; resid.=  1.77826970972551E-10
(PID.TID 0000.0001)  cg2d: iter=   109 ; resid.=  1.25851150093065E-10
(PID.TID 0000.0001)  cg2d: iter=   110 ; resid.=  9.59575273125582E-11
(PID.TID 0000.0001)  cg2d: iter=   111 ; resid.=  7.63663787570053E-11
(PID.TID 0000.0001)  cg2d: iter=   112 ; resid.=  5.29325721506924E-11
(PID.TID 0000.0001)  cg2d: iter=   113 ; resid.=  3.90686837836031E-11
(PID.TID 0000.0001)  cg2d: iter=   114 ; resid.=  3.07578204840042E-11
(PID.TID 0000.0001)  cg2d: iter=   115 ; resid.=  2.45497232444643E-11
(PID.TID 0000.0001)  cg2d: iter=   116 ; resid.=  1.84462985536331E-11
(PID.TID 0000.0001)  cg2d: iter=   117 ; resid.=  1.38786308530552E-11
(PID.TID 0000.0001)  cg2d: iter=   118 ; resid.=  1.08036001469933E-11
(PID.TID 0000.0001)  cg2d: iter=   119 ; resid.=  8.27476955953873E-12
(PID.TID 0000.0001)  cg2d: iter=   120 ; resid.=  6.62397800594604E-12
(PID.TID 0000.0001)  cg2d: iter=   121 ; resid.=  5.15655510083778E-12
(PID.TID 0000.0001)  cg2d: iter=   122 ; resid.=  4.07335521568953E-12
(PID.TID 0000.0001)  cg2d: iter=   123 ; resid.=  2.77242029378021E-12
(PID.TID 0000.0001)  cg2d: iter=   124 ; resid.=  1.81148235293109E-12
(PID.TID 0000.0001)  cg2d: iter=   125 ; resid.=  1.41333736943061E-12
(PID.TID 0000.0001)  cg2d: iter=   126 ; resid.=  9.93733624670223E-13
(PID.TID 0000.0001)  cg2d: iter=   127 ; resid.=  6.06706118368021E-13
(PID.TID 0000.0001)  cg2d: iter=   128 ; resid.=  4.20091892873544E-13
(PID.TID 0000.0001)  cg2d: iter=   129 ; resid.=  3.28030669323679E-13
(PID.TID 0000.0001)  cg2d: iter=   130 ; resid.=  2.49044537897289E-13
(PID.TID 0000.0001)  cg2d: iter=   131 ; resid.=  1.78964184517881E-13
(PID.TID 0000.0001)  cg2d: iter=   132 ; resid.=  1.38015814734471E-13
(PID.TID 0000.0001)  cg2d: iter=   133 ; resid.=  1.11200735844054E-13
(PID.TID 0000.0001)  cg2d: iter=   134 ; resid.=  8.63306559553845E-14
DEBUG_STATS_RL:    cg2d_x (SOLVE_FOR_PRESSURE)  min= -1.80989922766349E+01
DEBUG_STATS_RL:    cg2d_x (SOLVE_FOR_PRESSURE)  max=  7.89416067088432E+00
DEBUG_STATS_RL:    cg2d_x (SOLVE_FOR_PRESSURE) mean= -1.79534223618532E+00
DEBUG_STATS_RL:    cg2d_x (SOLVE_FOR_PRESSURE) S.D.=  7.02472657529070E+00
(PID.TID 0000.0001)      cg2d_init_res =   2.73688455206068E-01
(PID.TID 0000.0001)      cg2d_iters(min,last) =      -1     134
(PID.TID 0000.0001)      cg2d_last_res =   8.63306559553845E-14
(PID.TID 0000.0001) // =======================================================
(PID.TID 0000.0001) // Begin MONITOR dynamic field statistics
(PID.TID 0000.0001) // =======================================================
(PID.TID 0000.0001) %MON time_tsnumber                =                    93
(PID.TID 0000.0001) %MON time_secondsf                =   8.0352000000000E+06
(PID.TID 0000.0001) %MON dynstat_eta_max              =   8.0470547103811E-01
(PID.TID 0000.0001) %MON dynstat_eta_min              =  -1.8449533411452E+00
(PID.TID 0000.0001) %MON dynstat_eta_mean             =  -5.7418973613105E-03
(PID.TID 0000.0001) %MON dynstat_eta_sd               =   6.0925181057490E-01
(PID.TID 0000.0001) %MON dynstat_eta_del2             =   2.5340468916631E-03
(PID.TID 0000.0001) %MON dynstat_uvel_max             =   1.4946045756389E-01
(PID.TID 0000.0001) %MON dynstat_uvel_min             =  -1.2808498641458E-01
(PID.TID 0000.0001) %MON dynstat_uvel_mean            =   2.3079161560567E-03
(PID.TID 0000.0001) %MON dynstat_uvel_sd              =   1.3780769030840E-02
(PID.TID 0000.0001) %MON dynstat_uvel_del2            =   9.4121594215838E-05
(PID.TID 0000.0001) %MON dynstat_vvel_max             =   1.2214786254163E-01
(PID.TID 0000.0001) %MON dynstat_vvel_min             =  -9.6006130385737E-02
(PID.TID 0000.0001) %MON dynstat_vvel_mean            =   1.7980843087474E-04
(PID.TID 0000.0001) %MON dynstat_vvel_sd              =   8.8100151356399E-03
(PID.TID 0000.0001) %MON dynstat_vvel_del2            =   8.2567078611470E-05
(PID.TID 0000.0001) %MON dynstat_wvel_max             =   1.3314130581678E-04
(PID.TID 0000.0001) %MON dynstat_wvel_min             =  -9.1199209514581E-05
(PID.TID 0000.0001) %MON dynstat_wvel_mean            =  -2.1085913206594E-22
(PID.TID 0000.0001) %MON dynstat_wvel_sd              =   1.0323599189117E-05
(PID.TID 0000.0001) %MON dynstat_wvel_del2            =   1.0341221099078E-07
(PID.TID 0000.0001) %MON dynstat_theta_max            =   3.0136391644187E+01
(PID.TID 0000.0001) %MON dynstat_theta_min            =  -1.9082874488749E+00
(PID.TID 0000.0001) %MON dynstat_theta_mean           =   3.6217304683317E+00
(PID.TID 0000.0001) %MON dynstat_theta_sd             =   4.4235725039565E+00
(PID.TID 0000.0001) %MON dynstat_theta_del2           =   4.5760830631685E-03
(PID.TID 0000.0001) %MON dynstat_salt_max             =   3.7439395335950E+01
(PID.TID 0000.0001) %MON dynstat_salt_min             =   2.9918712594802E+01
(PID.TID 0000.0001) %MON dynstat_salt_mean            =   3.4717270642855E+01
(PID.TID 0000.0001) %MON dynstat_salt_sd              =   2.9619293117566E-01
(PID.TID 0000.0001) %MON dynstat_salt_del2            =   9.5787033091513E-04
(PID.TID 0000.0001) %MON dynstat_sst_max              =   3.0136391644187E+01
(PID.TID 0000.0001) %MON dynstat_sst_min              =  -1.9082874488749E+00
(PID.TID 0000.0001) %MON dynstat_sst_mean             =   1.8765685962994E+01
(PID.TID 0000.0001) %MON dynstat_sst_sd               =   9.3952543856258E+00
(PID.TID 0000.0001) %MON dynstat_sst_del2             =   2.3131567600097E-02
(PID.TID 0000.0001) %MON dynstat_sss_max              =   3.7408052043790E+01
(PID.TID 0000.0001) %MON dynstat_sss_min              =   2.9918712594802E+01
(PID.TID 0000.0001) %MON dynstat_sss_mean             =   3.4838830545343E+01
(PID.TID 0000.0001) %MON dynstat_sss_sd               =   9.8573877448608E-01
(PID.TID 0000.0001) %MON dynstat_sss_del2             =   7.6101735042914E-03
(PID.TID 0000.0001) %MON forcing_qnet_max             =   1.9451869913737E+02
(PID.TID 0000.0001) %MON forcing_qnet_min             =  -1.5657965342204E+02
(PID.TID 0000.0001) %MON forcing_qnet_mean            =  -5.1544669766086E-01
(PID.TID 0000.0001) %MON forcing_qnet_sd              =   3.9728111557903E+01
(PID.TID 0000.0001) %MON forcing_qnet_del2            =   7.8346921016286E-01
(PID.TID 0000.0001) %MON forcing_qsw_max              =   0.0000000000000E+00
(PID.TID 0000.0001) %MON forcing_qsw_min              =   0.0000000000000E+00
(PID.TID 0000.0001) %MON forcing_qsw_mean             =   0.0000000000000E+00
(PID.TID 0000.0001) %MON forcing_qsw_sd               =   0.0000000000000E+00
(PID.TID 0000.0001) %MON forcing_qsw_del2             =   0.0000000000000E+00
(PID.TID 0000.0001) %MON forcing_empmr_max            =   6.7473914574142E-05
(PID.TID 0000.0001) %MON forcing_empmr_min            =  -8.3516800941652E-05
(PID.TID 0000.0001) %MON forcing_empmr_mean           =   1.6913985161008E-07
(PID.TID 0000.0001) %MON forcing_empmr_sd             =   2.5530162049708E-05
(PID.TID 0000.0001) %MON forcing_empmr_del2           =   3.6488800752658E-07
(PID.TID 0000.0001) %MON forcing_fu_max               =   3.4690555334091E-01
(PID.TID 0000.0001) %MON forcing_fu_min               =  -4.0441864430904E-01
(PID.TID 0000.0001) %MON forcing_fu_mean              =   1.8294463652530E-02
(PID.TID 0000.0001) %MON forcing_fu_sd                =   1.0052224849844E-01
(PID.TID 0000.0001) %MON forcing_fu_del2              =   7.7883912812643E-04
(PID.TID 0000.0001) %MON forcing_fv_max               =   1.8166832526525E-01
(PID.TID 0000.0001) %MON forcing_fv_min               =  -1.4357230017583E-01
(PID.TID 0000.0001) %MON forcing_fv_mean              =  -6.9094720097030E-03
(PID.TID 0000.0001) %MON forcing_fv_sd                =   3.8668513823794E-02
(PID.TID 0000.0001) %MON forcing_fv_del2              =   4.1497869888265E-04
(PID.TID 0000.0001) %MON trAdv_CFL_u_max              =   5.6492819826360E-02
(PID.TID 0000.0001) %MON trAdv_CFL_v_max              =   2.3639845637485E-02
(PID.TID 0000.0001) %MON trAdv_CFL_w_max              =   4.0020448477047E-02
(PID.TID 0000.0001) %MON advcfl_uvel_max              =   5.4796592249068E-02
(PID.TID 0000.0001) %MON advcfl_vvel_max              =   2.3731370675649E-02
(PID.TID 0000.0001) %MON advcfl_wvel_max              =   3.1222274601525E-02
(PID.TID 0000.0001) %MON advcfl_W_hf_max              =   3.7912762016138E-02
(PID.TID 0000.0001) %MON pe_b_mean                    =   4.7502167865222E-04
(PID.TID 0000.0001) %MON ke_max                       =   1.3271266004796E-02
(PID.TID 0000.0001) %MON ke_mean                      =   1.2355860640384E-04
(PID.TID 0000.0001) %MON ke_vol                       =   1.3226782436723E+18
(PID.TID 0000.0001) %MON vort_r_min                   =  -3.9607076510821E-07
(PID.TID 0000.0001) %MON vort_r_max                   =   5.7497462028881E-07
(PID.TID 0000.0001) %MON vort_a_mean                  =  -2.5274807519248E-05
(PID.TID 0000.0001) %MON vort_a_sd                    =   7.3604647529132E-05
(PID.TID 0000.0001) %MON vort_p_mean                  =  -3.1845655952934E-05
(PID.TID 0000.0001) %MON vort_p_sd                    =   1.3162442078055E-04
(PID.TID 0000.0001) %MON surfExpan_theta_mean         =  -1.1717055920765E-06
(PID.TID 0000.0001) %MON surfExpan_salt_mean          =   2.8792586560393E-07
(PID.TID 0000.0001) // =======================================================
(PID.TID 0000.0001) // End MONITOR dynamic field statistics
(PID.TID 0000.0001) // =======================================================
 EXTERNAL_FIELDS_LOAD,        93 : iP,iLd,i0,i1=    3    4    3    4 ; Wght=  0.4000000000  0.6000000000
 EXTERNAL_FIELDS_LOAD: (fu0,1),fu,fv= -2.7199E-02 -3.7252E-02 -3.3231E-02 -2.1361E-02
 EXTERNAL_FIELDS_LOAD: SST,SSS,Q,E-P= -5.2360E-02  3.4573E+01  1.4862E+02  8.2938E-06
DEBUG_STATS_RL:          Uvel (THERMODYNAMICS)  min= -1.28084986414575E-01
DEBUG_STATS_RL:          Uvel (THERMODYNAMICS)  max=  1.49460457563891E-01
DEBUG_STATS_RL:          Uvel (THERMODYNAMICS) mean=  5.70076678701891E-03
DEBUG_STATS_RL:          Uvel (THERMODYNAMICS) S.D.=  2.19943347941726E-02
DEBUG_STATS_RL:          Vvel (THERMODYNAMICS)  min= -9.60061303857375E-02
DEBUG_STATS_RL:          Vvel (THERMODYNAMICS)  max=  1.22147862541635E-01
DEBUG_STATS_RL:          Vvel (THERMODYNAMICS) mean=  1.07917482278304E-03
DEBUG_STATS_RL:          Vvel (THERMODYNAMICS) S.D.=  1.35920546119040E-02
DEBUG_STATS_RL:          Wvel (THERMODYNAMICS)  min= -9.11992095145812E-05
DEBUG_STATS_RL:          Wvel (THERMODYNAMICS)  max=  1.33141305816785E-04
DEBUG_STATS_RL:          Wvel (THERMODYNAMICS) mean= -5.12819921999226E-10
DEBUG_STATS_RL:          Wvel (THERMODYNAMICS) S.D.=  9.22538318328207E-06
DEBUG_STATS_RL:         Theta (THERMODYNAMICS)  min= -1.90673441493158E+00
DEBUG_STATS_RL:         Theta (THERMODYNAMICS)  max=  3.01476956159882E+01
DEBUG_STATS_RL:         Theta (THERMODYNAMICS) mean=  3.20873532883939E+00
DEBUG_STATS_RL:         Theta (THERMODYNAMICS) S.D.=  5.87305161404063E+00
DEBUG_STATS_RL:          Salt (THERMODYNAMICS)  min= -6.86352596184166E-04
DEBUG_STATS_RL:          Salt (THERMODYNAMICS)  max=  3.74391854546584E+01
DEBUG_STATS_RL:          Salt (THERMODYNAMICS) mean=  1.88440927911546E+01
DEBUG_STATS_RL:          Salt (THERMODYNAMICS) S.D.=  1.73003204462557E+01
DEBUG_STATS_RL:         GtNm1 (THERMODYNAMICS)  min= -1.95550001625685E-06
DEBUG_STATS_RL:         GtNm1 (THERMODYNAMICS)  max=  2.28616513928583E-06
DEBUG_STATS_RL:         GtNm1 (THERMODYNAMICS) mean= -2.29488506476613E-09
DEBUG_STATS_RL:         GtNm1 (THERMODYNAMICS) S.D.=  1.34500874933874E-07
DEBUG_STATS_RL:         GsNm1 (THERMODYNAMICS)  min= -5.34563770741717E-07
DEBUG_STATS_RL:         GsNm1 (THERMODYNAMICS)  max=  3.10750672938137E-07
DEBUG_STATS_RL:         GsNm1 (THERMODYNAMICS) mean= -1.88758708129097E-10
DEBUG_STATS_RL:         GsNm1 (THERMODYNAMICS) S.D.=  1.27321601543908E-08
DEBUG_STATS_RL:                EtaN (DYNAMICS)  min= -1.84495334114524E+00
DEBUG_STATS_RL:                EtaN (DYNAMICS)  max=  8.04705471038115E-01
DEBUG_STATS_RL:                EtaN (DYNAMICS) mean= -1.83011440997487E-01
DEBUG_STATS_RL:                EtaN (DYNAMICS) S.D.=  7.16078142231466E-01
DEBUG_STATS_RL:                Uvel (DYNAMICS)  min= -1.28084986414575E-01
DEBUG_STATS_RL:                Uvel (DYNAMICS)  max=  1.49460457563891E-01
DEBUG_STATS_RL:                Uvel (DYNAMICS) mean=  5.70076678701891E-03
DEBUG_STATS_RL:                Uvel (DYNAMICS) S.D.=  2.19943347941726E-02
DEBUG_STATS_RL:                Vvel (DYNAMICS)  min= -9.60061303857375E-02
DEBUG_STATS_RL:                Vvel (DYNAMICS)  max=  1.22147862541635E-01
DEBUG_STATS_RL:                Vvel (DYNAMICS) mean=  1.07917482278304E-03
DEBUG_STATS_RL:                Vvel (DYNAMICS) S.D.=  1.35920546119040E-02
DEBUG_STATS_RL:                Wvel (DYNAMICS)  min= -9.11992095145812E-05
DEBUG_STATS_RL:                Wvel (DYNAMICS)  max=  1.33141305816785E-04
DEBUG_STATS_RL:                Wvel (DYNAMICS) mean= -5.12819921999226E-10
DEBUG_STATS_RL:                Wvel (DYNAMICS) S.D.=  9.22538318328207E-06
DEBUG_STATS_RL:               Theta (DYNAMICS)  min= -1.90673441493158E+00
DEBUG_STATS_RL:               Theta (DYNAMICS)  max=  3.01476956159882E+01
DEBUG_STATS_RL:               Theta (DYNAMICS) mean=  3.20873532883939E+00
DEBUG_STATS_RL:               Theta (DYNAMICS) S.D.=  5.87305161404063E+00
DEBUG_STATS_RL:                Salt (DYNAMICS)  min= -6.86352596184166E-04
DEBUG_STATS_RL:                Salt (DYNAMICS)  max=  3.74391854546584E+01
DEBUG_STATS_RL:                Salt (DYNAMICS) mean=  1.88440927911546E+01
DEBUG_STATS_RL:                Salt (DYNAMICS) S.D.=  1.73003204462557E+01
DEBUG_STATS_RL:                  Gu (DYNAMICS)  min= -1.27062755578358E-01
DEBUG_STATS_RL:                  Gu (DYNAMICS)  max=  1.36776920699644E-01
DEBUG_STATS_RL:                  Gu (DYNAMICS) mean=  5.71540482026333E-03
DEBUG_STATS_RL:                  Gu (DYNAMICS) S.D.=  2.23194086357701E-02
DEBUG_STATS_RL:                  Gv (DYNAMICS)  min= -9.53673492430444E-02
DEBUG_STATS_RL:                  Gv (DYNAMICS)  max=  1.21633275221062E-01
DEBUG_STATS_RL:                  Gv (DYNAMICS) mean=  3.72904545928457E-03
DEBUG_STATS_RL:                  Gv (DYNAMICS) S.D.=  1.48449378785972E-02
DEBUG_STATS_RL:               GuNm1 (DYNAMICS)  min= -9.08118921048568E-06
DEBUG_STATS_RL:               GuNm1 (DYNAMICS)  max=  9.12180207023717E-06
DEBUG_STATS_RL:               GuNm1 (DYNAMICS) mean=  1.16812435623149E-08
DEBUG_STATS_RL:               GuNm1 (DYNAMICS) S.D.=  1.22134033799669E-06
DEBUG_STATS_RL:               GvNm1 (DYNAMICS)  min= -9.32433866458110E-06
DEBUG_STATS_RL:               GvNm1 (DYNAMICS)  max=  1.50163577950061E-05
DEBUG_STATS_RL:               GvNm1 (DYNAMICS) mean=  7.43840583227036E-07
DEBUG_STATS_RL:               GvNm1 (DYNAMICS) S.D.=  2.59842734357146E-06
DEBUG_STATS_RL:               GtNm1 (DYNAMICS)  min= -1.95550001625685E-06
DEBUG_STATS_RL:               GtNm1 (DYNAMICS)  max=  2.28616513928583E-06
DEBUG_STATS_RL:               GtNm1 (DYNAMICS) mean= -2.29488506476613E-09
DEBUG_STATS_RL:               GtNm1 (DYNAMICS) S.D.=  1.34500874933874E-07
DEBUG_STATS_RL:               GsNm1 (DYNAMICS)  min= -5.34563770741717E-07
DEBUG_STATS_RL:               GsNm1 (DYNAMICS)  max=  3.10750672938137E-07
DEBUG_STATS_RL:               GsNm1 (DYNAMICS) mean= -1.88758708129097E-10
DEBUG_STATS_RL:               GsNm1 (DYNAMICS) S.D.=  1.27321601543908E-08
DEBUG_STATS_RL:    cg2d_b (SOLVE_FOR_PRESSURE)  min= -2.48544164456151E+04
DEBUG_STATS_RL:    cg2d_b (SOLVE_FOR_PRESSURE)  max=  2.69738636018091E+04
DEBUG_STATS_RL:    cg2d_b (SOLVE_FOR_PRESSURE) mean=  5.51492763813787E+00
DEBUG_STATS_RL:    cg2d_b (SOLVE_FOR_PRESSURE) S.D.=  3.98488824207119E+03
 cg2d: Sum(rhs),rhsMax =   4.73312153970884E-01  1.77171558188277E+00
(PID.TID 0000.0001)  cg2d: iter=     1 ; resid.=  1.81918375592004E-01
(PID.TID 0000.0001)  cg2d: iter=     2 ; resid.=  2.00718954370208E-01
(PID.TID 0000.0001)  cg2d: iter=     3 ; resid.=  1.88151386243921E-01
(PID.TID 0000.0001)  cg2d: iter=     4 ; resid.=  1.87712368537838E-01
(PID.TID 0000.0001)  cg2d: iter=     5 ; resid.=  1.57831323921190E-01
(PID.TID 0000.0001)  cg2d: iter=     6 ; resid.=  1.05497129615865E-01
(PID.TID 0000.0001)  cg2d: iter=     7 ; resid.=  9.79458465869108E-02
(PID.TID 0000.0001)  cg2d: iter=     8 ; resid.=  6.78459547705833E-02
(PID.TID 0000.0001)  cg2d: iter=     9 ; resid.=  5.21887052312272E-02
(PID.TID 0000.0001)  cg2d: iter=    10 ; resid.=  4.76166388335483E-02
(PID.TID 0000.0001)  cg2d: iter=    11 ; resid.=  4.06473494230117E-02
(PID.TID 0000.0001)  cg2d: iter=    12 ; resid.=  2.69449355654518E-02
(PID.TID 0000.0001)  cg2d: iter=    13 ; resid.=  2.11716321192013E-02
(PID.TID 0000.0001)  cg2d: iter=    14 ; resid.=  2.06887705189508E-02
(PID.TID 0000.0001)  cg2d: iter=    15 ; resid.=  1.65657041368915E-02
(PID.TID 0000.0001)  cg2d: iter=    16 ; resid.=  1.48121924783022E-02
(PID.TID 0000.0001)  cg2d: iter=    17 ; resid.=  1.40870640816502E-02
(PID.TID 0000.0001)  cg2d: iter=    18 ; resid.=  1.09755942376733E-02
(PID.TID 0000.0001)  cg2d: iter=    19 ; resid.=  8.15336802937059E-03
(PID.TID 0000.0001)  cg2d: iter=    20 ; resid.=  7.70973613596906E-03
(PID.TID 0000.0001)  cg2d: iter=    21 ; resid.=  6.46735048723995E-03
(PID.TID 0000.0001)  cg2d: iter=    22 ; resid.=  5.75168071376834E-03
(PID.TID 0000.0001)  cg2d: iter=    23 ; resid.=  4.83668417306780E-03
(PID.TID 0000.0001)  cg2d: iter=    24 ; resid.=  3.99551817606776E-03
(PID.TID 0000.0001)  cg2d: iter=    25 ; resid.=  2.75091243249581E-03
(PID.TID 0000.0001)  cg2d: iter=    26 ; resid.=  2.31593540046688E-03
(PID.TID 0000.0001)  cg2d: iter=    27 ; resid.=  2.02296165465035E-03
(PID.TID 0000.0001)  cg2d: iter=    28 ; resid.=  1.78666471402665E-03
(PID.TID 0000.0001)  cg2d: iter=    29 ; resid.=  1.31628399867874E-03
(PID.TID 0000.0001)  cg2d: iter=    30 ; resid.=  1.05767656518082E-03
(PID.TID 0000.0001)  cg2d: iter=    31 ; resid.=  9.00412391000110E-04
(PID.TID 0000.0001)  cg2d: iter=    32 ; resid.=  7.95639095729780E-04
(PID.TID 0000.0001)  cg2d: iter=    33 ; resid.=  6.34960118741291E-04
(PID.TID 0000.0001)  cg2d: iter=    34 ; resid.=  5.63133713304826E-04
(PID.TID 0000.0001)  cg2d: iter=    35 ; resid.=  4.44445523474046E-04
(PID.TID 0000.0001)  cg2d: iter=    36 ; resid.=  3.75791222157425E-04
(PID.TID 0000.0001)  cg2d: iter=    37 ; resid.=  3.48698520039242E-04
(PID.TID 0000.0001)  cg2d: iter=    38 ; resid.=  3.03181649839017E-04
(PID.TID 0000.0001)  cg2d: iter=    39 ; resid.=  2.38034953118818E-04
(PID.TID 0000.0001)  cg2d: iter=    40 ; resid.=  2.09999656049905E-04
(PID.TID 0000.0001)  cg2d: iter=    41 ; resid.=  1.79215874501400E-04
(PID.TID 0000.0001)  cg2d: iter=    42 ; resid.=  1.61221647049479E-04
(PID.TID 0000.0001)  cg2d: iter=    43 ; resid.=  1.20739589345339E-04
(PID.TID 0000.0001)  cg2d: iter=    44 ; resid.=  8.93335073834318E-05
(PID.TID 0000.0001)  cg2d: iter=    45 ; resid.=  7.42364676185277E-05
(PID.TID 0000.0001)  cg2d: iter=    46 ; resid.=  6.58173905636669E-05
(PID.TID 0000.0001)  cg2d: iter=    47 ; resid.=  6.07347202926523E-05
(PID.TID 0000.0001)  cg2d: iter=    48 ; resid.=  4.92250648455575E-05
(PID.TID 0000.0001)  cg2d: iter=    49 ; resid.=  3.81108867906301E-05
(PID.TID 0000.0001)  cg2d: iter=    50 ; resid.=  3.40311872673747E-05
(PID.TID 0000.0001)  cg2d: iter=    51 ; resid.=  3.14595846483152E-05
(PID.TID 0000.0001)  cg2d: iter=    52 ; resid.=  2.80460684333470E-05
(PID.TID 0000.0001)  cg2d: iter=    53 ; resid.=  2.45347106382529E-05
(PID.TID 0000.0001)  cg2d: iter=    54 ; resid.=  1.93675139463533E-05
(PID.TID 0000.0001)  cg2d: iter=    55 ; resid.=  1.65506926482857E-05
(PID.TID 0000.0001)  cg2d: iter=    56 ; resid.=  1.33621555080797E-05
(PID.TID 0000.0001)  cg2d: iter=    57 ; resid.=  9.49496592885698E-06
(PID.TID 0000.0001)  cg2d: iter=    58 ; resid.=  6.35580226721893E-06
(PID.TID 0000.0001)  cg2d: iter=    59 ; resid.=  5.15847432084913E-06
(PID.TID 0000.0001)  cg2d: iter=    60 ; resid.=  4.23210741741661E-06
(PID.TID 0000.0001)  cg2d: iter=    61 ; resid.=  3.60133494471729E-06
(PID.TID 0000.0001)  cg2d: iter=    62 ; resid.=  2.83684564106803E-06
(PID.TID 0000.0001)  cg2d: iter=    63 ; resid.=  2.55598215903351E-06
(PID.TID 0000.0001)  cg2d: iter=    64 ; resid.=  2.21468819596137E-06
(PID.TID 0000.0001)  cg2d: iter=    65 ; resid.=  1.81003393485920E-06
(PID.TID 0000.0001)  cg2d: iter=    66 ; resid.=  1.43665495266499E-06
(PID.TID 0000.0001)  cg2d: iter=    67 ; resid.=  1.30902226147744E-06
(PID.TID 0000.0001)  cg2d: iter=    68 ; resid.=  1.13778905570610E-06
(PID.TID 0000.0001)  cg2d: iter=    69 ; resid.=  1.04713762726403E-06
(PID.TID 0000.0001)  cg2d: iter=    70 ; resid.=  8.91824743793812E-07
(PID.TID 0000.0001)  cg2d: iter=    71 ; resid.=  7.50474704780482E-07
(PID.TID 0000.0001)  cg2d: iter=    72 ; resid.=  6.11133558426277E-07
(PID.TID 0000.0001)  cg2d: iter=    73 ; resid.=  5.35391175685725E-07
(PID.TID 0000.0001)  cg2d: iter=    74 ; resid.=  4.09891489283677E-07
(PID.TID 0000.0001)  cg2d: iter=    75 ; resid.=  2.88214718029275E-07
(PID.TID 0000.0001)  cg2d: iter=    76 ; resid.=  2.24815220321393E-07
(PID.TID 0000.0001)  cg2d: iter=    77 ; resid.=  1.79022223573463E-07
(PID.TID 0000.0001)  cg2d: iter=    78 ; resid.=  1.41893939128525E-07
(PID.TID 0000.0001)  cg2d: iter=    79 ; resid.=  1.18718921274203E-07
(PID.TID 0000.0001)  cg2d: iter=    80 ; resid.=  9.07958690787354E-08
(PID.TID 0000.0001)  cg2d: iter=    81 ; resid.=  6.76240461636306E-08
(PID.TID 0000.0001)  cg2d: iter=    82 ; resid.=  5.18997425974520E-08
(PID.TID 0000.0001)  cg2d: iter=    83 ; resid.=  3.81781451927660E-08
(PID.TID 0000.0001)  cg2d: iter=    84 ; resid.=  2.80886456125019E-08
(PID.TID 0000.0001)  cg2d: iter=    85 ; resid.=  2.06318375531639E-08
(PID.TID 0000.0001)  cg2d: iter=    86 ; resid.=  1.45739641927947E-08
(PID.TID 0000.0001)  cg2d: iter=    87 ; resid.=  1.17285112742645E-08
(PID.TID 0000.0001)  cg2d: iter=    88 ; resid.=  1.11660088941363E-08
(PID.TID 0000.0001)  cg2d: iter=    89 ; resid.=  8.82524901571885E-09
(PID.TID 0000.0001)  cg2d: iter=    90 ; resid.=  7.07336853637379E-09
(PID.TID 0000.0001)  cg2d: iter=    91 ; resid.=  6.09521445348962E-09
(PID.TID 0000.0001)  cg2d: iter=    92 ; resid.=  5.01012561322208E-09
(PID.TID 0000.0001)  cg2d: iter=    93 ; resid.=  3.82106625161824E-09
(PID.TID 0000.0001)  cg2d: iter=    94 ; resid.=  3.02409903540419E-09
(PID.TID 0000.0001)  cg2d: iter=    95 ; resid.=  2.55730788908704E-09
(PID.TID 0000.0001)  cg2d: iter=    96 ; resid.=  2.08627999041522E-09
(PID.TID 0000.0001)  cg2d: iter=    97 ; resid.=  1.59441702211007E-09
(PID.TID 0000.0001)  cg2d: iter=    98 ; resid.=  1.23376962240420E-09
(PID.TID 0000.0001)  cg2d: iter=    99 ; resid.=  1.05100919841144E-09
(PID.TID 0000.0001)  cg2d: iter=   100 ; resid.=  9.29401754866722E-10
(PID.TID 0000.0001)  cg2d: iter=   101 ; resid.=  7.14531726622763E-10
(PID.TID 0000.0001)  cg2d: iter=   102 ; resid.=  5.85228879613071E-10
(PID.TID 0000.0001)  cg2d: iter=   103 ; resid.=  4.98957734061578E-10
(PID.TID 0000.0001)  cg2d: iter=   104 ; resid.=  4.20882761381421E-10
(PID.TID 0000.0001)  cg2d: iter=   105 ; resid.=  3.09660471313816E-10
(PID.TID 0000.0001)  cg2d: iter=   106 ; resid.=  2.30016722420942E-10
(PID.TID 0000.0001)  cg2d: iter=   107 ; resid.=  1.90397823271382E-10
(PID.TID 0000.0001)  cg2d: iter=   108 ; resid.=  1.41878856080374E-10
(PID.TID 0000.0001)  cg2d: iter=   109 ; resid.=  1.01762001590075E-10
(PID.TID 0000.0001)  cg2d: iter=   110 ; resid.=  7.42338836594718E-11
(PID.TID 0000.0001)  cg2d: iter=   111 ; resid.=  5.63723616425922E-11
(PID.TID 0000.0001)  cg2d: iter=   112 ; resid.=  3.97807687926754E-11
(PID.TID 0000.0001)  cg2d: iter=   113 ; resid.=  2.95592552117253E-11
(PID.TID 0000.0001)  cg2d: iter=   114 ; resid.=  2.19586565569250E-11
(PID.TID 0000.0001)  cg2d: iter=   115 ; resid.=  1.77043527281063E-11
(PID.TID 0000.0001)  cg2d: iter=   116 ; resid.=  1.36877561333962E-11
(PID.TID 0000.0001)  cg2d: iter=   117 ; resid.=  1.05471209878887E-11
(PID.TID 0000.0001)  cg2d: iter=   118 ; resid.=  8.06004504749318E-12
(PID.TID 0000.0001)  cg2d: iter=   119 ; resid.=  6.30291604013765E-12
(PID.TID 0000.0001)  cg2d: iter=   120 ; resid.=  5.15004705798493E-12
(PID.TID 0000.0001)  cg2d: iter=   121 ; resid.=  4.04959746675230E-12
(PID.TID 0000.0001)  cg2d: iter=   122 ; resid.=  3.17976326428560E-12
(PID.TID 0000.0001)  cg2d: iter=   123 ; resid.=  2.19224262200735E-12
(PID.TID 0000.0001)  cg2d: iter=   124 ; resid.=  1.46381885145831E-12
(PID.TID 0000.0001)  cg2d: iter=   125 ; resid.=  1.13807752136049E-12
(PID.TID 0000.0001)  cg2d: iter=   126 ; resid.=  8.01694183889773E-13
(PID.TID 0000.0001)  cg2d: iter=   127 ; resid.=  4.87305914947985E-13
(PID.TID 0000.0001)  cg2d: iter=   128 ; resid.=  3.47582767676843E-13
(PID.TID 0000.0001)  cg2d: iter=   129 ; resid.=  2.77127116650680E-13
(PID.TID 0000.0001)  cg2d: iter=   130 ; resid.=  2.05317586478083E-13
(PID.TID 0000.0001)  cg2d: iter=   131 ; resid.=  1.45255037516055E-13
(PID.TID 0000.0001)  cg2d: iter=   132 ; resid.=  1.12716770639029E-13
(PID.TID 0000.0001)  cg2d: iter=   133 ; resid.=  9.12164379872512E-14
DEBUG_STATS_RL:    cg2d_x (SOLVE_FOR_PRESSURE)  min= -1.82994475622734E+01
DEBUG_STATS_RL:    cg2d_x (SOLVE_FOR_PRESSURE)  max=  7.94964762150690E+00
DEBUG_STATS_RL:    cg2d_x (SOLVE_FOR_PRESSURE) mean= -1.74657937727761E+00
DEBUG_STATS_RL:    cg2d_x (SOLVE_FOR_PRESSURE) S.D.=  6.98273073520311E+00
(PID.TID 0000.0001)      cg2d_init_res =   2.33367416204702E-01
(PID.TID 0000.0001)      cg2d_iters(min,last) =      -1     133
(PID.TID 0000.0001)      cg2d_last_res =   9.12164379872512E-14
(PID.TID 0000.0001) // =======================================================
(PID.TID 0000.0001) // Begin MONITOR dynamic field statistics
(PID.TID 0000.0001) // =======================================================
(PID.TID 0000.0001) %MON time_tsnumber                =                    94
(PID.TID 0000.0001) %MON time_secondsf                =   8.1216000000000E+06
(PID.TID 0000.0001) %MON dynstat_eta_max              =   8.1036163318112E-01
(PID.TID 0000.0001) %MON dynstat_eta_min              =  -1.8653871113430E+00
(PID.TID 0000.0001) %MON dynstat_eta_mean             =  -5.7541431619462E-03
(PID.TID 0000.0001) %MON dynstat_eta_sd               =   6.0340866756384E-01
(PID.TID 0000.0001) %MON dynstat_eta_del2             =   2.5405717119370E-03
(PID.TID 0000.0001) %MON dynstat_uvel_max             =   1.4286206071902E-01
(PID.TID 0000.0001) %MON dynstat_uvel_min             =  -1.2750642638055E-01
(PID.TID 0000.0001) %MON dynstat_uvel_mean            =   2.3408929048143E-03
(PID.TID 0000.0001) %MON dynstat_uvel_sd              =   1.3715751206427E-02
(PID.TID 0000.0001) %MON dynstat_uvel_del2            =   9.1926621502957E-05
(PID.TID 0000.0001) %MON dynstat_vvel_max             =   1.2198582448689E-01
(PID.TID 0000.0001) %MON dynstat_vvel_min             =  -9.1921547368235E-02
(PID.TID 0000.0001) %MON dynstat_vvel_mean            =   1.3627147473535E-04
(PID.TID 0000.0001) %MON dynstat_vvel_sd              =   8.5686626588007E-03
(PID.TID 0000.0001) %MON dynstat_vvel_del2            =   8.2045080934780E-05
(PID.TID 0000.0001) %MON dynstat_wvel_max             =   1.2291191122796E-04
(PID.TID 0000.0001) %MON dynstat_wvel_min             =  -8.9518831599965E-05
(PID.TID 0000.0001) %MON dynstat_wvel_mean            =   1.4996160181085E-22
(PID.TID 0000.0001) %MON dynstat_wvel_sd              =   9.9150431288211E-06
(PID.TID 0000.0001) %MON dynstat_wvel_del2            =   9.8888063996931E-08
(PID.TID 0000.0001) %MON dynstat_theta_max            =   3.0147695615988E+01
(PID.TID 0000.0001) %MON dynstat_theta_min            =  -1.9067344149316E+00
(PID.TID 0000.0001) %MON dynstat_theta_mean           =   3.6217407342749E+00
(PID.TID 0000.0001) %MON dynstat_theta_sd             =   4.4236506370043E+00
(PID.TID 0000.0001) %MON dynstat_theta_del2           =   4.5689345289417E-03
(PID.TID 0000.0001) %MON dynstat_salt_max             =   3.7439185454658E+01
(PID.TID 0000.0001) %MON dynstat_salt_min             =   2.9925082425751E+01
(PID.TID 0000.0001) %MON dynstat_salt_mean            =   3.4717266023622E+01
(PID.TID 0000.0001) %MON dynstat_salt_sd              =   2.9617681165982E-01
(PID.TID 0000.0001) %MON dynstat_salt_del2            =   9.5698964069110E-04
(PID.TID 0000.0001) %MON dynstat_sst_max              =   3.0147695615988E+01
(PID.TID 0000.0001) %MON dynstat_sst_min              =  -1.9067344149316E+00
(PID.TID 0000.0001) %MON dynstat_sst_mean             =   1.8760913366348E+01
(PID.TID 0000.0001) %MON dynstat_sst_sd               =   9.4032967428820E+00
(PID.TID 0000.0001) %MON dynstat_sst_del2             =   2.3037429672500E-02
(PID.TID 0000.0001) %MON dynstat_sss_max              =   3.7408842844675E+01
(PID.TID 0000.0001) %MON dynstat_sss_min              =   2.9925082425751E+01
(PID.TID 0000.0001) %MON dynstat_sss_mean             =   3.4838742085066E+01
(PID.TID 0000.0001) %MON dynstat_sss_sd               =   9.8591573614546E-01
(PID.TID 0000.0001) %MON dynstat_sss_del2             =   7.5999570955945E-03
(PID.TID 0000.0001) %MON forcing_qnet_max             =   1.8981346435547E+02
(PID.TID 0000.0001) %MON forcing_qnet_min             =  -1.5615165710449E+02
(PID.TID 0000.0001) %MON forcing_qnet_mean            =  -1.1841026869120E-01
(PID.TID 0000.0001) %MON forcing_qnet_sd              =   4.0013480692075E+01
(PID.TID 0000.0001) %MON forcing_qnet_del2            =   7.8393243873400E-01
(PID.TID 0000.0001) %MON forcing_qsw_max              =   0.0000000000000E+00
(PID.TID 0000.0001) %MON forcing_qsw_min              =   0.0000000000000E+00
(PID.TID 0000.0001) %MON forcing_qsw_mean             =   0.0000000000000E+00
(PID.TID 0000.0001) %MON forcing_qsw_sd               =   0.0000000000000E+00
(PID.TID 0000.0001) %MON forcing_qsw_del2             =   0.0000000000000E+00
(PID.TID 0000.0001) %MON forcing_empmr_max            =   6.7377743562247E-05
(PID.TID 0000.0001) %MON forcing_empmr_min            =  -8.3531647021573E-05
(PID.TID 0000.0001) %MON forcing_empmr_mean           =   1.4669448678252E-07
(PID.TID 0000.0001) %MON forcing_empmr_sd             =   2.5518064463179E-05
(PID.TID 0000.0001) %MON forcing_empmr_del2           =   3.6546096507275E-07
(PID.TID 0000.0001) %MON forcing_fu_max               =   3.4641349911690E-01
(PID.TID 0000.0001) %MON forcing_fu_min               =  -4.0535171627998E-01
(PID.TID 0000.0001) %MON forcing_fu_mean              =   1.8167271555597E-02
(PID.TID 0000.0001) %MON forcing_fu_sd                =   1.0064293488596E-01
(PID.TID 0000.0001) %MON forcing_fu_del2              =   7.8101122025666E-04
(PID.TID 0000.0001) %MON forcing_fv_max               =   1.8157232403755E-01
(PID.TID 0000.0001) %MON forcing_fv_min               =  -1.4387770295143E-01
(PID.TID 0000.0001) %MON forcing_fv_mean              =  -6.8729953373301E-03
(PID.TID 0000.0001) %MON forcing_fv_sd                =   3.8666482891470E-02
(PID.TID 0000.0001) %MON forcing_fv_del2              =   4.1536218314166E-04
(PID.TID 0000.0001) %MON trAdv_CFL_u_max              =   5.4807721828866E-02
(PID.TID 0000.0001) %MON trAdv_CFL_v_max              =   2.3692803534982E-02
(PID.TID 0000.0001) %MON trAdv_CFL_w_max              =   3.0946054012013E-02
(PID.TID 0000.0001) %MON advcfl_uvel_max              =   5.2377426221483E-02
(PID.TID 0000.0001) %MON advcfl_vvel_max              =   2.3699889280390E-02
(PID.TID 0000.0001) %MON advcfl_wvel_max              =   2.8461799005956E-02
(PID.TID 0000.0001) %MON advcfl_W_hf_max              =   3.4560755935804E-02
(PID.TID 0000.0001) %MON pe_b_mean                    =   4.6595478939892E-04
(PID.TID 0000.0001) %MON ke_max                       =   1.2419212193663E-02
(PID.TID 0000.0001) %MON ke_mean                      =   1.2092682372628E-04
(PID.TID 0000.0001) %MON ke_vol                       =   1.3226782436723E+18
(PID.TID 0000.0001) %MON vort_r_min                   =  -3.8318996536735E-07
(PID.TID 0000.0001) %MON vort_r_max                   =   5.3702283970848E-07
(PID.TID 0000.0001) %MON vort_a_mean                  =  -2.5274807140483E-05
(PID.TID 0000.0001) %MON vort_a_sd                    =   7.3604655605156E-05
(PID.TID 0000.0001) %MON vort_p_mean                  =  -3.1845655475699E-05
(PID.TID 0000.0001) %MON vort_p_sd                    =   1.3162451039601E-04
(PID.TID 0000.0001) %MON surfExpan_theta_mean         =  -9.7974566962312E-07
(PID.TID 0000.0001) %MON surfExpan_salt_mean          =   2.4095114357919E-07
(PID.TID 0000.0001) // =======================================================
(PID.TID 0000.0001) // End MONITOR dynamic field statistics
(PID.TID 0000.0001) // =======================================================
 EXTERNAL_FIELDS_LOAD,        94 : iP,iLd,i0,i1=    3    4    3    4 ; Wght=  0.3666666667  0.6333333333
 EXTERNAL_FIELDS_LOAD: (fu0,1),fu,fv= -2.7199E-02 -3.7252E-02 -3.3566E-02 -2.2515E-02
 EXTERNAL_FIELDS_LOAD: SST,SSS,Q,E-P= -4.5052E-02  3.4573E+01  1.4491E+02  8.2500E-06
DEBUG_STATS_RL:          Uvel (THERMODYNAMICS)  min= -1.27506426380553E-01
DEBUG_STATS_RL:          Uvel (THERMODYNAMICS)  max=  1.42862060719021E-01
DEBUG_STATS_RL:          Uvel (THERMODYNAMICS) mean=  5.73810809234618E-03
DEBUG_STATS_RL:          Uvel (THERMODYNAMICS) S.D.=  2.19484587015538E-02
DEBUG_STATS_RL:          Vvel (THERMODYNAMICS)  min= -9.19215473682348E-02
DEBUG_STATS_RL:          Vvel (THERMODYNAMICS)  max=  1.21985824486890E-01
DEBUG_STATS_RL:          Vvel (THERMODYNAMICS) mean=  1.00554219333813E-03
DEBUG_STATS_RL:          Vvel (THERMODYNAMICS) S.D.=  1.33247489257972E-02
DEBUG_STATS_RL:          Wvel (THERMODYNAMICS)  min= -8.95188315999653E-05
DEBUG_STATS_RL:          Wvel (THERMODYNAMICS)  max=  1.22911911227962E-04
DEBUG_STATS_RL:          Wvel (THERMODYNAMICS) mean= -7.93048317434360E-09
DEBUG_STATS_RL:          Wvel (THERMODYNAMICS) S.D.=  8.80050157659053E-06
DEBUG_STATS_RL:         Theta (THERMODYNAMICS)  min= -1.90497587450545E+00
DEBUG_STATS_RL:         Theta (THERMODYNAMICS)  max=  3.01586855445211E+01
DEBUG_STATS_RL:         Theta (THERMODYNAMICS) mean=  3.20853982108182E+00
DEBUG_STATS_RL:         Theta (THERMODYNAMICS) S.D.=  5.87303080516327E+00
DEBUG_STATS_RL:          Salt (THERMODYNAMICS)  min= -6.86352596184166E-04
DEBUG_STATS_RL:          Salt (THERMODYNAMICS)  max=  3.74391302724808E+01
DEBUG_STATS_RL:          Salt (THERMODYNAMICS) mean=  1.88440879583361E+01
DEBUG_STATS_RL:          Salt (THERMODYNAMICS) S.D.=  1.73003159433877E+01
DEBUG_STATS_RL:         GtNm1 (THERMODYNAMICS)  min= -2.44534081247014E-06
DEBUG_STATS_RL:         GtNm1 (THERMODYNAMICS)  max=  2.02626839065475E-06
DEBUG_STATS_RL:         GtNm1 (THERMODYNAMICS) mean= -2.60443765031465E-09
DEBUG_STATS_RL:         GtNm1 (THERMODYNAMICS) S.D.=  1.34385268436574E-07
DEBUG_STATS_RL:         GsNm1 (THERMODYNAMICS)  min= -8.64400315987509E-07
DEBUG_STATS_RL:         GsNm1 (THERMODYNAMICS)  max=  4.19226924923184E-07
DEBUG_STATS_RL:         GsNm1 (THERMODYNAMICS) mean= -1.87690294662754E-10
DEBUG_STATS_RL:         GsNm1 (THERMODYNAMICS) S.D.=  1.31670927486045E-08
DEBUG_STATS_RL:                EtaN (DYNAMICS)  min= -1.86538711134296E+00
DEBUG_STATS_RL:                EtaN (DYNAMICS)  max=  8.10361633181121E-01
DEBUG_STATS_RL:                EtaN (DYNAMICS) mean= -1.78040711241347E-01
DEBUG_STATS_RL:                EtaN (DYNAMICS) S.D.=  7.11797220713872E-01
DEBUG_STATS_RL:                Uvel (DYNAMICS)  min= -1.27506426380553E-01
DEBUG_STATS_RL:                Uvel (DYNAMICS)  max=  1.42862060719021E-01
DEBUG_STATS_RL:                Uvel (DYNAMICS) mean=  5.73810809234618E-03
DEBUG_STATS_RL:                Uvel (DYNAMICS) S.D.=  2.19484587015538E-02
DEBUG_STATS_RL:                Vvel (DYNAMICS)  min= -9.19215473682348E-02
DEBUG_STATS_RL:                Vvel (DYNAMICS)  max=  1.21985824486890E-01
DEBUG_STATS_RL:                Vvel (DYNAMICS) mean=  1.00554219333813E-03
DEBUG_STATS_RL:                Vvel (DYNAMICS) S.D.=  1.33247489257972E-02
DEBUG_STATS_RL:                Wvel (DYNAMICS)  min= -8.95188315999653E-05
DEBUG_STATS_RL:                Wvel (DYNAMICS)  max=  1.22911911227962E-04
DEBUG_STATS_RL:                Wvel (DYNAMICS) mean= -7.93048317434360E-09
DEBUG_STATS_RL:                Wvel (DYNAMICS) S.D.=  8.80050157659053E-06
DEBUG_STATS_RL:               Theta (DYNAMICS)  min= -1.90497587450545E+00
DEBUG_STATS_RL:               Theta (DYNAMICS)  max=  3.01586855445211E+01
DEBUG_STATS_RL:               Theta (DYNAMICS) mean=  3.20853982108182E+00
DEBUG_STATS_RL:               Theta (DYNAMICS) S.D.=  5.87303080516327E+00
DEBUG_STATS_RL:                Salt (DYNAMICS)  min= -6.86352596184166E-04
DEBUG_STATS_RL:                Salt (DYNAMICS)  max=  3.74391302724808E+01
DEBUG_STATS_RL:                Salt (DYNAMICS) mean=  1.88440879583361E+01
DEBUG_STATS_RL:                Salt (DYNAMICS) S.D.=  1.73003159433877E+01
DEBUG_STATS_RL:                  Gu (DYNAMICS)  min= -1.26484365261332E-01
DEBUG_STATS_RL:                  Gu (DYNAMICS)  max=  1.32612511914751E-01
DEBUG_STATS_RL:                  Gu (DYNAMICS) mean=  5.77001985606895E-03
DEBUG_STATS_RL:                  Gu (DYNAMICS) S.D.=  2.23119705137755E-02
DEBUG_STATS_RL:                  Gv (DYNAMICS)  min= -9.08703352368174E-02
DEBUG_STATS_RL:                  Gv (DYNAMICS)  max=  1.21439324354878E-01
DEBUG_STATS_RL:                  Gv (DYNAMICS) mean=  3.65660436484352E-03
DEBUG_STATS_RL:                  Gv (DYNAMICS) S.D.=  1.45933752454462E-02
DEBUG_STATS_RL:               GuNm1 (DYNAMICS)  min= -9.08502413291056E-06
DEBUG_STATS_RL:               GuNm1 (DYNAMICS)  max=  9.13865389989218E-06
DEBUG_STATS_RL:               GuNm1 (DYNAMICS) mean=  1.22675172122294E-08
DEBUG_STATS_RL:               GuNm1 (DYNAMICS) S.D.=  1.22142609733889E-06
DEBUG_STATS_RL:               GvNm1 (DYNAMICS)  min= -9.32621408842970E-06
DEBUG_STATS_RL:               GvNm1 (DYNAMICS)  max=  1.49772195582380E-05
DEBUG_STATS_RL:               GvNm1 (DYNAMICS) mean=  7.44916666456709E-07
DEBUG_STATS_RL:               GvNm1 (DYNAMICS) S.D.=  2.59709455742161E-06
DEBUG_STATS_RL:               GtNm1 (DYNAMICS)  min= -2.44534081247014E-06
DEBUG_STATS_RL:               GtNm1 (DYNAMICS)  max=  2.02626839065475E-06
DEBUG_STATS_RL:               GtNm1 (DYNAMICS) mean= -2.60443765031465E-09
DEBUG_STATS_RL:               GtNm1 (DYNAMICS) S.D.=  1.34385268436574E-07
DEBUG_STATS_RL:               GsNm1 (DYNAMICS)  min= -8.64400315987509E-07
DEBUG_STATS_RL:               GsNm1 (DYNAMICS)  max=  4.19226924923184E-07
DEBUG_STATS_RL:               GsNm1 (DYNAMICS) mean= -1.87690294662754E-10
DEBUG_STATS_RL:               GsNm1 (DYNAMICS) S.D.=  1.31670927486045E-08
DEBUG_STATS_RL:    cg2d_b (SOLVE_FOR_PRESSURE)  min= -2.49217900771688E+04
DEBUG_STATS_RL:    cg2d_b (SOLVE_FOR_PRESSURE)  max=  2.71856346688299E+04
DEBUG_STATS_RL:    cg2d_b (SOLVE_FOR_PRESSURE) mean=  5.52486854206441E+00
DEBUG_STATS_RL:    cg2d_b (SOLVE_FOR_PRESSURE) S.D.=  3.98955489259793E+03
 cg2d: Sum(rhs),rhsMax =   4.70471660150089E-01  1.78562527256600E+00
(PID.TID 0000.0001)  cg2d: iter=     1 ; resid.=  1.42710882844732E-01
(PID.TID 0000.0001)  cg2d: iter=     2 ; resid.=  1.44180713841469E-01
(PID.TID 0000.0001)  cg2d: iter=     3 ; resid.=  1.39574220242221E-01
(PID.TID 0000.0001)  cg2d: iter=     4 ; resid.=  1.39524684259767E-01
(PID.TID 0000.0001)  cg2d: iter=     5 ; resid.=  1.23292336069088E-01
(PID.TID 0000.0001)  cg2d: iter=     6 ; resid.=  8.52197098341384E-02
(PID.TID 0000.0001)  cg2d: iter=     7 ; resid.=  7.78753310270679E-02
(PID.TID 0000.0001)  cg2d: iter=     8 ; resid.=  5.47475488794427E-02
(PID.TID 0000.0001)  cg2d: iter=     9 ; resid.=  3.89505077031490E-02
(PID.TID 0000.0001)  cg2d: iter=    10 ; resid.=  3.58328410342414E-02
(PID.TID 0000.0001)  cg2d: iter=    11 ; resid.=  3.27589197012347E-02
(PID.TID 0000.0001)  cg2d: iter=    12 ; resid.=  2.15693885203443E-02
(PID.TID 0000.0001)  cg2d: iter=    13 ; resid.=  1.65440273777818E-02
(PID.TID 0000.0001)  cg2d: iter=    14 ; resid.=  1.52199606166622E-02
(PID.TID 0000.0001)  cg2d: iter=    15 ; resid.=  1.21370848027433E-02
(PID.TID 0000.0001)  cg2d: iter=    16 ; resid.=  1.04576558881016E-02
(PID.TID 0000.0001)  cg2d: iter=    17 ; resid.=  9.80491273534966E-03
(PID.TID 0000.0001)  cg2d: iter=    18 ; resid.=  8.03351229509918E-03
(PID.TID 0000.0001)  cg2d: iter=    19 ; resid.=  6.08916496224117E-03
(PID.TID 0000.0001)  cg2d: iter=    20 ; resid.=  5.68304992940479E-03
(PID.TID 0000.0001)  cg2d: iter=    21 ; resid.=  4.84464014168655E-03
(PID.TID 0000.0001)  cg2d: iter=    22 ; resid.=  4.35771939857347E-03
(PID.TID 0000.0001)  cg2d: iter=    23 ; resid.=  3.75942842850704E-03
(PID.TID 0000.0001)  cg2d: iter=    24 ; resid.=  3.13124120946265E-03
(PID.TID 0000.0001)  cg2d: iter=    25 ; resid.=  2.06833370044703E-03
(PID.TID 0000.0001)  cg2d: iter=    26 ; resid.=  1.60124987651538E-03
(PID.TID 0000.0001)  cg2d: iter=    27 ; resid.=  1.43345187380878E-03
(PID.TID 0000.0001)  cg2d: iter=    28 ; resid.=  1.30285081717622E-03
(PID.TID 0000.0001)  cg2d: iter=    29 ; resid.=  9.58287577969192E-04
(PID.TID 0000.0001)  cg2d: iter=    30 ; resid.=  7.67077770410222E-04
(PID.TID 0000.0001)  cg2d: iter=    31 ; resid.=  6.42809898439179E-04
(PID.TID 0000.0001)  cg2d: iter=    32 ; resid.=  5.91762224648040E-04
(PID.TID 0000.0001)  cg2d: iter=    33 ; resid.=  4.85865201624923E-04
(PID.TID 0000.0001)  cg2d: iter=    34 ; resid.=  4.00900770930604E-04
(PID.TID 0000.0001)  cg2d: iter=    35 ; resid.=  3.09925707370806E-04
(PID.TID 0000.0001)  cg2d: iter=    36 ; resid.=  2.55725998963986E-04
(PID.TID 0000.0001)  cg2d: iter=    37 ; resid.=  2.40779068943502E-04
(PID.TID 0000.0001)  cg2d: iter=    38 ; resid.=  2.07237904554767E-04
(PID.TID 0000.0001)  cg2d: iter=    39 ; resid.=  1.62939203780975E-04
(PID.TID 0000.0001)  cg2d: iter=    40 ; resid.=  1.46318912850202E-04
(PID.TID 0000.0001)  cg2d: iter=    41 ; resid.=  1.25068956036513E-04
(PID.TID 0000.0001)  cg2d: iter=    42 ; resid.=  1.14509727458237E-04
(PID.TID 0000.0001)  cg2d: iter=    43 ; resid.=  8.83358505473073E-05
(PID.TID 0000.0001)  cg2d: iter=    44 ; resid.=  6.41910583578176E-05
(PID.TID 0000.0001)  cg2d: iter=    45 ; resid.=  5.42035635066815E-05
(PID.TID 0000.0001)  cg2d: iter=    46 ; resid.=  4.53198270725162E-05
(PID.TID 0000.0001)  cg2d: iter=    47 ; resid.=  4.04932730125127E-05
(PID.TID 0000.0001)  cg2d: iter=    48 ; resid.=  3.43014335682012E-05
(PID.TID 0000.0001)  cg2d: iter=    49 ; resid.=  2.68933333273586E-05
(PID.TID 0000.0001)  cg2d: iter=    50 ; resid.=  2.39408779201726E-05
(PID.TID 0000.0001)  cg2d: iter=    51 ; resid.=  2.18722889799356E-05
(PID.TID 0000.0001)  cg2d: iter=    52 ; resid.=  1.92715411121469E-05
(PID.TID 0000.0001)  cg2d: iter=    53 ; resid.=  1.69133063903969E-05
(PID.TID 0000.0001)  cg2d: iter=    54 ; resid.=  1.39229801912610E-05
(PID.TID 0000.0001)  cg2d: iter=    55 ; resid.=  1.20330700255370E-05
(PID.TID 0000.0001)  cg2d: iter=    56 ; resid.=  1.01305378129074E-05
(PID.TID 0000.0001)  cg2d: iter=    57 ; resid.=  7.63970951270785E-06
(PID.TID 0000.0001)  cg2d: iter=    58 ; resid.=  5.19988825208183E-06
(PID.TID 0000.0001)  cg2d: iter=    59 ; resid.=  4.09429651240590E-06
(PID.TID 0000.0001)  cg2d: iter=    60 ; resid.=  3.28307715178778E-06
(PID.TID 0000.0001)  cg2d: iter=    61 ; resid.=  2.65766614147451E-06
(PID.TID 0000.0001)  cg2d: iter=    62 ; resid.=  2.00325811465501E-06
(PID.TID 0000.0001)  cg2d: iter=    63 ; resid.=  1.70101026774108E-06
(PID.TID 0000.0001)  cg2d: iter=    64 ; resid.=  1.47677451660093E-06
(PID.TID 0000.0001)  cg2d: iter=    65 ; resid.=  1.22607804517261E-06
(PID.TID 0000.0001)  cg2d: iter=    66 ; resid.=  9.97815451683414E-07
(PID.TID 0000.0001)  cg2d: iter=    67 ; resid.=  9.43295265886920E-07
(PID.TID 0000.0001)  cg2d: iter=    68 ; resid.=  8.30407877126768E-07
(PID.TID 0000.0001)  cg2d: iter=    69 ; resid.=  7.42424318736540E-07
(PID.TID 0000.0001)  cg2d: iter=    70 ; resid.=  6.34611211340500E-07
(PID.TID 0000.0001)  cg2d: iter=    71 ; resid.=  5.34768524990088E-07
(PID.TID 0000.0001)  cg2d: iter=    72 ; resid.=  4.42679094641782E-07
(PID.TID 0000.0001)  cg2d: iter=    73 ; resid.=  3.99363382588530E-07
(PID.TID 0000.0001)  cg2d: iter=    74 ; resid.=  3.23107239596519E-07
(PID.TID 0000.0001)  cg2d: iter=    75 ; resid.=  2.28781144996649E-07
(PID.TID 0000.0001)  cg2d: iter=    76 ; resid.=  1.72630690253261E-07
(PID.TID 0000.0001)  cg2d: iter=    77 ; resid.=  1.37286536866160E-07
(PID.TID 0000.0001)  cg2d: iter=    78 ; resid.=  1.08530876422836E-07
(PID.TID 0000.0001)  cg2d: iter=    79 ; resid.=  8.70332793934087E-08
(PID.TID 0000.0001)  cg2d: iter=    80 ; resid.=  6.66328320982379E-08
(PID.TID 0000.0001)  cg2d: iter=    81 ; resid.=  5.09893014267376E-08
(PID.TID 0000.0001)  cg2d: iter=    82 ; resid.=  3.90989373735097E-08
(PID.TID 0000.0001)  cg2d: iter=    83 ; resid.=  2.96520312384664E-08
(PID.TID 0000.0001)  cg2d: iter=    84 ; resid.=  2.25751025205720E-08
(PID.TID 0000.0001)  cg2d: iter=    85 ; resid.=  1.60679431048207E-08
(PID.TID 0000.0001)  cg2d: iter=    86 ; resid.=  1.09780981033566E-08
(PID.TID 0000.0001)  cg2d: iter=    87 ; resid.=  8.13453286833265E-09
(PID.TID 0000.0001)  cg2d: iter=    88 ; resid.=  7.23517448387050E-09
(PID.TID 0000.0001)  cg2d: iter=    89 ; resid.=  6.06426027904607E-09
(PID.TID 0000.0001)  cg2d: iter=    90 ; resid.=  4.84294973682017E-09
(PID.TID 0000.0001)  cg2d: iter=    91 ; resid.=  4.01608059434105E-09
(PID.TID 0000.0001)  cg2d: iter=    92 ; resid.=  3.36195017539112E-09
(PID.TID 0000.0001)  cg2d: iter=    93 ; resid.=  2.72061384707163E-09
(PID.TID 0000.0001)  cg2d: iter=    94 ; resid.=  2.15519515264006E-09
(PID.TID 0000.0001)  cg2d: iter=    95 ; resid.=  1.83039795474043E-09
(PID.TID 0000.0001)  cg2d: iter=    96 ; resid.=  1.54166955324713E-09
(PID.TID 0000.0001)  cg2d: iter=    97 ; resid.=  1.22054024837928E-09
(PID.TID 0000.0001)  cg2d: iter=    98 ; resid.=  9.50221834645869E-10
(PID.TID 0000.0001)  cg2d: iter=    99 ; resid.=  7.73644902881240E-10
(PID.TID 0000.0001)  cg2d: iter=   100 ; resid.=  6.61088061492290E-10
(PID.TID 0000.0001)  cg2d: iter=   101 ; resid.=  4.89644971607338E-10
(PID.TID 0000.0001)  cg2d: iter=   102 ; resid.=  3.81902596492858E-10
(PID.TID 0000.0001)  cg2d: iter=   103 ; resid.=  3.16455533291604E-10
(PID.TID 0000.0001)  cg2d: iter=   104 ; resid.=  2.69946419900892E-10
(PID.TID 0000.0001)  cg2d: iter=   105 ; resid.=  2.09987054601309E-10
(PID.TID 0000.0001)  cg2d: iter=   106 ; resid.=  1.65315417216610E-10
(PID.TID 0000.0001)  cg2d: iter=   107 ; resid.=  1.48694942149540E-10
(PID.TID 0000.0001)  cg2d: iter=   108 ; resid.=  1.18443677423705E-10
(PID.TID 0000.0001)  cg2d: iter=   109 ; resid.=  8.69530029728749E-11
(PID.TID 0000.0001)  cg2d: iter=   110 ; resid.=  6.18710596867299E-11
(PID.TID 0000.0001)  cg2d: iter=   111 ; resid.=  4.63865608283748E-11
(PID.TID 0000.0001)  cg2d: iter=   112 ; resid.=  3.21113036697172E-11
(PID.TID 0000.0001)  cg2d: iter=   113 ; resid.=  2.25628932395480E-11
(PID.TID 0000.0001)  cg2d: iter=   114 ; resid.=  1.54631713400799E-11
(PID.TID 0000.0001)  cg2d: iter=   115 ; resid.=  1.17890440550771E-11
(PID.TID 0000.0001)  cg2d: iter=   116 ; resid.=  8.76463597253160E-12
(PID.TID 0000.0001)  cg2d: iter=   117 ; resid.=  6.81300746055291E-12
(PID.TID 0000.0001)  cg2d: iter=   118 ; resid.=  5.26548295611050E-12
(PID.TID 0000.0001)  cg2d: iter=   119 ; resid.=  4.37933488392552E-12
(PID.TID 0000.0001)  cg2d: iter=   120 ; resid.=  3.61607478785122E-12
(PID.TID 0000.0001)  cg2d: iter=   121 ; resid.=  2.86491587836984E-12
(PID.TID 0000.0001)  cg2d: iter=   122 ; resid.=  2.35794544425411E-12
(PID.TID 0000.0001)  cg2d: iter=   123 ; resid.=  1.76066076238488E-12
(PID.TID 0000.0001)  cg2d: iter=   124 ; resid.=  1.16935502779197E-12
(PID.TID 0000.0001)  cg2d: iter=   125 ; resid.=  9.26073008171299E-13
(PID.TID 0000.0001)  cg2d: iter=   126 ; resid.=  6.88540849636760E-13
(PID.TID 0000.0001)  cg2d: iter=   127 ; resid.=  4.34459990568020E-13
(PID.TID 0000.0001)  cg2d: iter=   128 ; resid.=  3.04478796453403E-13
(PID.TID 0000.0001)  cg2d: iter=   129 ; resid.=  2.38030707197950E-13
(PID.TID 0000.0001)  cg2d: iter=   130 ; resid.=  1.80246551883642E-13
(PID.TID 0000.0001)  cg2d: iter=   131 ; resid.=  1.32402667901092E-13
(PID.TID 0000.0001)  cg2d: iter=   132 ; resid.=  1.00761725481170E-13
(PID.TID 0000.0001)  cg2d: iter=   133 ; resid.=  7.87503629254738E-14
DEBUG_STATS_RL:    cg2d_x (SOLVE_FOR_PRESSURE)  min= -1.83798545861038E+01
DEBUG_STATS_RL:    cg2d_x (SOLVE_FOR_PRESSURE)  max=  7.91750351036408E+00
DEBUG_STATS_RL:    cg2d_x (SOLVE_FOR_PRESSURE) mean= -1.71365897555177E+00
DEBUG_STATS_RL:    cg2d_x (SOLVE_FOR_PRESSURE) S.D.=  6.97986399204387E+00
(PID.TID 0000.0001)      cg2d_init_res =   2.21042985407269E-01
(PID.TID 0000.0001)      cg2d_iters(min,last) =      -1     133
(PID.TID 0000.0001)      cg2d_last_res =   7.87503629254738E-14
(PID.TID 0000.0001) // =======================================================
(PID.TID 0000.0001) // Begin MONITOR dynamic field statistics
(PID.TID 0000.0001) // =======================================================
(PID.TID 0000.0001) %MON time_tsnumber                =                    95
(PID.TID 0000.0001) %MON time_secondsf                =   8.2080000000000E+06
(PID.TID 0000.0001) %MON dynstat_eta_max              =   8.0708496537861E-01
(PID.TID 0000.0001) %MON dynstat_eta_min              =  -1.8735835459840E+00
(PID.TID 0000.0001) %MON dynstat_eta_mean             =  -5.7645152625615E-03
(PID.TID 0000.0001) %MON dynstat_eta_sd               =   6.0250042209111E-01
(PID.TID 0000.0001) %MON dynstat_eta_del2             =   2.5449848611855E-03
(PID.TID 0000.0001) %MON dynstat_uvel_max             =   1.3461502715111E-01
(PID.TID 0000.0001) %MON dynstat_uvel_min             =  -1.2683837056563E-01
(PID.TID 0000.0001) %MON dynstat_uvel_mean            =   2.3959075919060E-03
(PID.TID 0000.0001) %MON dynstat_uvel_sd              =   1.3667089671392E-02
(PID.TID 0000.0001) %MON dynstat_uvel_del2            =   8.9726858798964E-05
(PID.TID 0000.0001) %MON dynstat_vvel_max             =   1.2147306041196E-01
(PID.TID 0000.0001) %MON dynstat_vvel_min             =  -8.9656306027755E-02
(PID.TID 0000.0001) %MON dynstat_vvel_mean            =   9.3489294638606E-05
(PID.TID 0000.0001) %MON dynstat_vvel_sd              =   8.3149848416800E-03
(PID.TID 0000.0001) %MON dynstat_vvel_del2            =   8.1313425678908E-05
(PID.TID 0000.0001) %MON dynstat_wvel_max             =   1.1288536397377E-04
(PID.TID 0000.0001) %MON dynstat_wvel_min             =  -8.6255185690458E-05
(PID.TID 0000.0001) %MON dynstat_wvel_mean            =  -1.0846870831500E-22
(PID.TID 0000.0001) %MON dynstat_wvel_sd              =   9.5783108065659E-06
(PID.TID 0000.0001) %MON dynstat_wvel_del2            =   9.6249312299467E-08
(PID.TID 0000.0001) %MON dynstat_theta_max            =   3.0158685544521E+01
(PID.TID 0000.0001) %MON dynstat_theta_min            =  -1.9049758745055E+00
(PID.TID 0000.0001) %MON dynstat_theta_mean           =   3.6217430928153E+00
(PID.TID 0000.0001) %MON dynstat_theta_sd             =   4.4237076812401E+00
(PID.TID 0000.0001) %MON dynstat_theta_del2           =   4.5616989247955E-03
(PID.TID 0000.0001) %MON dynstat_salt_max             =   3.7439130272481E+01
(PID.TID 0000.0001) %MON dynstat_salt_min             =   2.9931522170903E+01
(PID.TID 0000.0001) %MON dynstat_salt_mean            =   3.4717262606236E+01
(PID.TID 0000.0001) %MON dynstat_salt_sd              =   2.9616280162403E-01
(PID.TID 0000.0001) %MON dynstat_salt_del2            =   9.5608280146704E-04
(PID.TID 0000.0001) %MON dynstat_sst_max              =   3.0158685544521E+01
(PID.TID 0000.0001) %MON dynstat_sst_min              =  -1.9049758745055E+00
(PID.TID 0000.0001) %MON dynstat_sst_mean             =   1.8755967161366E+01
(PID.TID 0000.0001) %MON dynstat_sst_sd               =   9.4113792488644E+00
(PID.TID 0000.0001) %MON dynstat_sst_del2             =   2.2944113854927E-02
(PID.TID 0000.0001) %MON dynstat_sss_max              =   3.7409588581706E+01
(PID.TID 0000.0001) %MON dynstat_sss_min              =   2.9931522170903E+01
(PID.TID 0000.0001) %MON dynstat_sss_mean             =   3.4838644955146E+01
(PID.TID 0000.0001) %MON dynstat_sss_sd               =   9.8608687172656E-01
(PID.TID 0000.0001) %MON dynstat_sss_del2             =   7.5891927586772E-03
(PID.TID 0000.0001) %MON forcing_qnet_max             =   1.8510822957357E+02
(PID.TID 0000.0001) %MON forcing_qnet_min             =  -1.5572366078695E+02
(PID.TID 0000.0001) %MON forcing_qnet_mean            =   2.7862616027840E-01
(PID.TID 0000.0001) %MON forcing_qnet_sd              =   4.0375401003210E+01
(PID.TID 0000.0001) %MON forcing_qnet_del2            =   7.8491634723733E-01
(PID.TID 0000.0001) %MON forcing_qsw_max              =   0.0000000000000E+00
(PID.TID 0000.0001) %MON forcing_qsw_min              =   0.0000000000000E+00
(PID.TID 0000.0001) %MON forcing_qsw_mean             =   0.0000000000000E+00
(PID.TID 0000.0001) %MON forcing_qsw_sd               =   0.0000000000000E+00
(PID.TID 0000.0001) %MON forcing_qsw_del2             =   0.0000000000000E+00
(PID.TID 0000.0001) %MON forcing_empmr_max            =   6.7281572550352E-05
(PID.TID 0000.0001) %MON forcing_empmr_min            =  -8.3546493101494E-05
(PID.TID 0000.0001) %MON forcing_empmr_mean           =   1.2424912195495E-07
(PID.TID 0000.0001) %MON forcing_empmr_sd             =   2.5509651539751E-05
(PID.TID 0000.0001) %MON forcing_empmr_del2           =   3.6610701590472E-07
(PID.TID 0000.0001) %MON forcing_fu_max               =   3.4592144489288E-01
(PID.TID 0000.0001) %MON forcing_fu_min               =  -4.0628478825092E-01
(PID.TID 0000.0001) %MON forcing_fu_mean              =   1.8040079458664E-02
(PID.TID 0000.0001) %MON forcing_fu_sd                =   1.0078745737191E-01
(PID.TID 0000.0001) %MON forcing_fu_del2              =   7.8389038691565E-04
(PID.TID 0000.0001) %MON forcing_fv_max               =   1.8147632280986E-01
(PID.TID 0000.0001) %MON forcing_fv_min               =  -1.4418310572704E-01
(PID.TID 0000.0001) %MON forcing_fv_mean              =  -6.8365186649570E-03
(PID.TID 0000.0001) %MON forcing_fv_sd                =   3.8691832000774E-02
(PID.TID 0000.0001) %MON forcing_fv_del2              =   4.1645921546217E-04
(PID.TID 0000.0001) %MON trAdv_CFL_u_max              =   5.2388064451358E-02
(PID.TID 0000.0001) %MON trAdv_CFL_v_max              =   2.3661373301850E-02
(PID.TID 0000.0001) %MON trAdv_CFL_w_max              =   2.7767143095334E-02
(PID.TID 0000.0001) %MON advcfl_uvel_max              =   4.9353821563428E-02
(PID.TID 0000.0001) %MON advcfl_vvel_max              =   2.3600267444379E-02
(PID.TID 0000.0001) %MON advcfl_wvel_max              =   2.5763583951923E-02
(PID.TID 0000.0001) %MON advcfl_W_hf_max              =   3.0332024846195E-02
(PID.TID 0000.0001) %MON pe_b_mean                    =   4.6455342321126E-04
(PID.TID 0000.0001) %MON ke_max                       =   1.1351393149013E-02
(PID.TID 0000.0001) %MON ke_mean                      =   1.1851260196887E-04
(PID.TID 0000.0001) %MON ke_vol                       =   1.3226782436723E+18
(PID.TID 0000.0001) %MON vort_r_min                   =  -3.8042367433344E-07
(PID.TID 0000.0001) %MON vort_r_max                   =   4.8643995138999E-07
(PID.TID 0000.0001) %MON vort_a_mean                  =  -2.5274806829518E-05
(PID.TID 0000.0001) %MON vort_a_sd                    =   7.3604667260034E-05
(PID.TID 0000.0001) %MON vort_p_mean                  =  -3.1845655083891E-05
(PID.TID 0000.0001) %MON vort_p_sd                    =   1.3162462673268E-04
(PID.TID 0000.0001) %MON surfExpan_theta_mean         =  -7.0696887041536E-07
(PID.TID 0000.0001) %MON surfExpan_salt_mean          =   1.7971557632912E-07
(PID.TID 0000.0001) // =======================================================
(PID.TID 0000.0001) // End MONITOR dynamic field statistics
(PID.TID 0000.0001) // =======================================================
 EXTERNAL_FIELDS_LOAD,        95 : iP,iLd,i0,i1=    3    4    3    4 ; Wght=  0.3333333333  0.6666666667
 EXTERNAL_FIELDS_LOAD: (fu0,1),fu,fv= -2.7199E-02 -3.7252E-02 -3.3901E-02 -2.3670E-02
 EXTERNAL_FIELDS_LOAD: SST,SSS,Q,E-P= -3.7744E-02  3.4572E+01  1.4120E+02  8.2063E-06
DEBUG_STATS_RL:          Uvel (THERMODYNAMICS)  min= -1.26838370565632E-01
DEBUG_STATS_RL:          Uvel (THERMODYNAMICS)  max=  1.34615027151111E-01
DEBUG_STATS_RL:          Uvel (THERMODYNAMICS) mean=  5.80052064837844E-03
DEBUG_STATS_RL:          Uvel (THERMODYNAMICS) S.D.=  2.19246564191764E-02
DEBUG_STATS_RL:          Vvel (THERMODYNAMICS)  min= -8.96563060277552E-02
DEBUG_STATS_RL:          Vvel (THERMODYNAMICS)  max=  1.21473060411965E-01
DEBUG_STATS_RL:          Vvel (THERMODYNAMICS) mean=  9.37214499735113E-04
DEBUG_STATS_RL:          Vvel (THERMODYNAMICS) S.D.=  1.30491049712723E-02
DEBUG_STATS_RL:          Wvel (THERMODYNAMICS)  min= -8.62551856904581E-05
DEBUG_STATS_RL:          Wvel (THERMODYNAMICS)  max=  1.12885363973773E-04
DEBUG_STATS_RL:          Wvel (THERMODYNAMICS) mean= -1.73433965859341E-08
DEBUG_STATS_RL:          Wvel (THERMODYNAMICS) S.D.=  8.45953425487770E-06
DEBUG_STATS_RL:         Theta (THERMODYNAMICS)  min= -1.90351344918370E+00
DEBUG_STATS_RL:         Theta (THERMODYNAMICS)  max=  3.01693096771531E+01
DEBUG_STATS_RL:         Theta (THERMODYNAMICS) mean=  3.20832410741677E+00
DEBUG_STATS_RL:         Theta (THERMODYNAMICS) S.D.=  5.87297403743961E+00
DEBUG_STATS_RL:          Salt (THERMODYNAMICS)  min= -6.86352596184166E-04
DEBUG_STATS_RL:          Salt (THERMODYNAMICS)  max=  3.74392539117350E+01
DEBUG_STATS_RL:          Salt (THERMODYNAMICS) mean=  1.88440836600151E+01
DEBUG_STATS_RL:          Salt (THERMODYNAMICS) S.D.=  1.73003119775599E+01
DEBUG_STATS_RL:         GtNm1 (THERMODYNAMICS)  min= -2.95582683122644E-06
DEBUG_STATS_RL:         GtNm1 (THERMODYNAMICS)  max=  2.79766220818493E-06
DEBUG_STATS_RL:         GtNm1 (THERMODYNAMICS) mean= -2.96522796781790E-09
DEBUG_STATS_RL:         GtNm1 (THERMODYNAMICS) S.D.=  1.36997863616753E-07
DEBUG_STATS_RL:         GsNm1 (THERMODYNAMICS)  min= -1.06735244638651E-06
DEBUG_STATS_RL:         GsNm1 (THERMODYNAMICS)  max=  5.89752729651164E-07
DEBUG_STATS_RL:         GsNm1 (THERMODYNAMICS) mean= -1.79927326625458E-10
DEBUG_STATS_RL:         GsNm1 (THERMODYNAMICS) S.D.=  1.40500380540901E-08
DEBUG_STATS_RL:                EtaN (DYNAMICS)  min= -1.87358354598404E+00
DEBUG_STATS_RL:                EtaN (DYNAMICS)  max=  8.07084965378612E-01
DEBUG_STATS_RL:                EtaN (DYNAMICS) mean= -1.74684910861547E-01
DEBUG_STATS_RL:                EtaN (DYNAMICS) S.D.=  7.11504994092138E-01
DEBUG_STATS_RL:                Uvel (DYNAMICS)  min= -1.26838370565632E-01
DEBUG_STATS_RL:                Uvel (DYNAMICS)  max=  1.34615027151111E-01
DEBUG_STATS_RL:                Uvel (DYNAMICS) mean=  5.80052064837844E-03
DEBUG_STATS_RL:                Uvel (DYNAMICS) S.D.=  2.19246564191764E-02
DEBUG_STATS_RL:                Vvel (DYNAMICS)  min= -8.96563060277552E-02
DEBUG_STATS_RL:                Vvel (DYNAMICS)  max=  1.21473060411965E-01
DEBUG_STATS_RL:                Vvel (DYNAMICS) mean=  9.37214499735113E-04
DEBUG_STATS_RL:                Vvel (DYNAMICS) S.D.=  1.30491049712723E-02
DEBUG_STATS_RL:                Wvel (DYNAMICS)  min= -8.62551856904581E-05
DEBUG_STATS_RL:                Wvel (DYNAMICS)  max=  1.12885363973773E-04
DEBUG_STATS_RL:                Wvel (DYNAMICS) mean= -1.73433965859341E-08
DEBUG_STATS_RL:                Wvel (DYNAMICS) S.D.=  8.45953425487770E-06
DEBUG_STATS_RL:               Theta (DYNAMICS)  min= -1.90351344918370E+00
DEBUG_STATS_RL:               Theta (DYNAMICS)  max=  3.01693096771531E+01
DEBUG_STATS_RL:               Theta (DYNAMICS) mean=  3.20832410741677E+00
DEBUG_STATS_RL:               Theta (DYNAMICS) S.D.=  5.87297403743961E+00
DEBUG_STATS_RL:                Salt (DYNAMICS)  min= -6.86352596184166E-04
DEBUG_STATS_RL:                Salt (DYNAMICS)  max=  3.74392539117350E+01
DEBUG_STATS_RL:                Salt (DYNAMICS) mean=  1.88440836600151E+01
DEBUG_STATS_RL:                Salt (DYNAMICS) S.D.=  1.73003119775599E+01
DEBUG_STATS_RL:                  Gu (DYNAMICS)  min= -1.25817482228395E-01
DEBUG_STATS_RL:                  Gu (DYNAMICS)  max=  1.32785990534529E-01
DEBUG_STATS_RL:                  Gu (DYNAMICS) mean=  5.84540817663864E-03
DEBUG_STATS_RL:                  Gu (DYNAMICS) S.D.=  2.23447200882217E-02
DEBUG_STATS_RL:                  Gv (DYNAMICS)  min= -8.72462496769942E-02
DEBUG_STATS_RL:                  Gv (DYNAMICS)  max=  1.20890387281213E-01
DEBUG_STATS_RL:                  Gv (DYNAMICS) mean=  3.58957700743825E-03
DEBUG_STATS_RL:                  Gv (DYNAMICS) S.D.=  1.43578414556608E-02
DEBUG_STATS_RL:               GuNm1 (DYNAMICS)  min= -9.10400267639383E-06
DEBUG_STATS_RL:               GuNm1 (DYNAMICS)  max=  9.19609643803098E-06
DEBUG_STATS_RL:               GuNm1 (DYNAMICS) mean=  1.27090529027212E-08
DEBUG_STATS_RL:               GuNm1 (DYNAMICS) S.D.=  1.22149797174489E-06
DEBUG_STATS_RL:               GvNm1 (DYNAMICS)  min= -9.33584864238594E-06
DEBUG_STATS_RL:               GvNm1 (DYNAMICS)  max=  1.49404874704348E-05
DEBUG_STATS_RL:               GvNm1 (DYNAMICS) mean=  7.45883961864211E-07
DEBUG_STATS_RL:               GvNm1 (DYNAMICS) S.D.=  2.59562290357023E-06
DEBUG_STATS_RL:               GtNm1 (DYNAMICS)  min= -2.95582683122644E-06
DEBUG_STATS_RL:               GtNm1 (DYNAMICS)  max=  2.79766220818493E-06
DEBUG_STATS_RL:               GtNm1 (DYNAMICS) mean= -2.96522796781790E-09
DEBUG_STATS_RL:               GtNm1 (DYNAMICS) S.D.=  1.36997863616753E-07
DEBUG_STATS_RL:               GsNm1 (DYNAMICS)  min= -1.06735244638651E-06
DEBUG_STATS_RL:               GsNm1 (DYNAMICS)  max=  5.89752729651164E-07
DEBUG_STATS_RL:               GsNm1 (DYNAMICS) mean= -1.79927326625458E-10
DEBUG_STATS_RL:               GsNm1 (DYNAMICS) S.D.=  1.40500380540901E-08
DEBUG_STATS_RL:    cg2d_b (SOLVE_FOR_PRESSURE)  min= -2.50426363297304E+04
DEBUG_STATS_RL:    cg2d_b (SOLVE_FOR_PRESSURE)  max=  2.73806199176595E+04
DEBUG_STATS_RL:    cg2d_b (SOLVE_FOR_PRESSURE) mean=  5.53301364082286E+00
DEBUG_STATS_RL:    cg2d_b (SOLVE_FOR_PRESSURE) S.D.=  3.99440652682280E+03
 cg2d: Sum(rhs),rhsMax =   4.67809955253941E-01  1.79843242576765E+00
(PID.TID 0000.0001)  cg2d: iter=     1 ; resid.=  1.04490746571496E-01
(PID.TID 0000.0001)  cg2d: iter=     2 ; resid.=  9.08102584334386E-02
(PID.TID 0000.0001)  cg2d: iter=     3 ; resid.=  8.64412836921409E-02
(PID.TID 0000.0001)  cg2d: iter=     4 ; resid.=  8.21650073498921E-02
(PID.TID 0000.0001)  cg2d: iter=     5 ; resid.=  7.69813902320783E-02
(PID.TID 0000.0001)  cg2d: iter=     6 ; resid.=  5.51242075441798E-02
(PID.TID 0000.0001)  cg2d: iter=     7 ; resid.=  5.08534081653732E-02
(PID.TID 0000.0001)  cg2d: iter=     8 ; resid.=  3.89889675172052E-02
(PID.TID 0000.0001)  cg2d: iter=     9 ; resid.=  2.68856999848676E-02
(PID.TID 0000.0001)  cg2d: iter=    10 ; resid.=  2.47099582484008E-02
(PID.TID 0000.0001)  cg2d: iter=    11 ; resid.=  2.33572059197591E-02
(PID.TID 0000.0001)  cg2d: iter=    12 ; resid.=  1.53748815941255E-02
(PID.TID 0000.0001)  cg2d: iter=    13 ; resid.=  1.13539123602597E-02
(PID.TID 0000.0001)  cg2d: iter=    14 ; resid.=  9.67604916009315E-03
(PID.TID 0000.0001)  cg2d: iter=    15 ; resid.=  7.74137346548993E-03
(PID.TID 0000.0001)  cg2d: iter=    16 ; resid.=  6.29625179591593E-03
(PID.TID 0000.0001)  cg2d: iter=    17 ; resid.=  5.52521032753560E-03
(PID.TID 0000.0001)  cg2d: iter=    18 ; resid.=  4.59072393165476E-03
(PID.TID 0000.0001)  cg2d: iter=    19 ; resid.=  3.58484280433706E-03
(PID.TID 0000.0001)  cg2d: iter=    20 ; resid.=  3.22231937692954E-03
(PID.TID 0000.0001)  cg2d: iter=    21 ; resid.=  2.69223868319450E-03
(PID.TID 0000.0001)  cg2d: iter=    22 ; resid.=  2.47398894798971E-03
(PID.TID 0000.0001)  cg2d: iter=    23 ; resid.=  2.21638323620623E-03
(PID.TID 0000.0001)  cg2d: iter=    24 ; resid.=  2.00228969155704E-03
(PID.TID 0000.0001)  cg2d: iter=    25 ; resid.=  1.36150145671261E-03
(PID.TID 0000.0001)  cg2d: iter=    26 ; resid.=  9.92280382687386E-04
(PID.TID 0000.0001)  cg2d: iter=    27 ; resid.=  8.85691867554498E-04
(PID.TID 0000.0001)  cg2d: iter=    28 ; resid.=  8.22956023985617E-04
(PID.TID 0000.0001)  cg2d: iter=    29 ; resid.=  6.03218263682860E-04
(PID.TID 0000.0001)  cg2d: iter=    30 ; resid.=  4.63254994956227E-04
(PID.TID 0000.0001)  cg2d: iter=    31 ; resid.=  3.73972349460993E-04
(PID.TID 0000.0001)  cg2d: iter=    32 ; resid.=  3.51206406625008E-04
(PID.TID 0000.0001)  cg2d: iter=    33 ; resid.=  3.11711748423617E-04
(PID.TID 0000.0001)  cg2d: iter=    34 ; resid.=  2.49717536526470E-04
(PID.TID 0000.0001)  cg2d: iter=    35 ; resid.=  1.82645326033381E-04
(PID.TID 0000.0001)  cg2d: iter=    36 ; resid.=  1.44168928369764E-04
(PID.TID 0000.0001)  cg2d: iter=    37 ; resid.=  1.33399096373832E-04
(PID.TID 0000.0001)  cg2d: iter=    38 ; resid.=  1.16408512520989E-04
(PID.TID 0000.0001)  cg2d: iter=    39 ; resid.=  8.99986239363184E-05
(PID.TID 0000.0001)  cg2d: iter=    40 ; resid.=  7.77544581770732E-05
(PID.TID 0000.0001)  cg2d: iter=    41 ; resid.=  6.67286379731367E-05
(PID.TID 0000.0001)  cg2d: iter=    42 ; resid.=  6.36717905543040E-05
(PID.TID 0000.0001)  cg2d: iter=    43 ; resid.=  5.28409753704181E-05
(PID.TID 0000.0001)  cg2d: iter=    44 ; resid.=  3.96635407115049E-05
(PID.TID 0000.0001)  cg2d: iter=    45 ; resid.=  3.39727509840247E-05
(PID.TID 0000.0001)  cg2d: iter=    46 ; resid.=  2.82497915908465E-05
(PID.TID 0000.0001)  cg2d: iter=    47 ; resid.=  2.38832216940963E-05
(PID.TID 0000.0001)  cg2d: iter=    48 ; resid.=  2.04537320754368E-05
(PID.TID 0000.0001)  cg2d: iter=    49 ; resid.=  1.59014362460041E-05
(PID.TID 0000.0001)  cg2d: iter=    50 ; resid.=  1.33395700679567E-05
(PID.TID 0000.0001)  cg2d: iter=    51 ; resid.=  1.15852729031584E-05
(PID.TID 0000.0001)  cg2d: iter=    52 ; resid.=  1.00917447433384E-05
(PID.TID 0000.0001)  cg2d: iter=    53 ; resid.=  8.87348722673058E-06
(PID.TID 0000.0001)  cg2d: iter=    54 ; resid.=  7.66967010689913E-06
(PID.TID 0000.0001)  cg2d: iter=    55 ; resid.=  6.70750963383879E-06
(PID.TID 0000.0001)  cg2d: iter=    56 ; resid.=  5.98910808736015E-06
(PID.TID 0000.0001)  cg2d: iter=    57 ; resid.=  5.12118325434783E-06
(PID.TID 0000.0001)  cg2d: iter=    58 ; resid.=  3.82322538055621E-06
(PID.TID 0000.0001)  cg2d: iter=    59 ; resid.=  3.03159189779359E-06
(PID.TID 0000.0001)  cg2d: iter=    60 ; resid.=  2.46148504180056E-06
(PID.TID 0000.0001)  cg2d: iter=    61 ; resid.=  1.96901170837062E-06
(PID.TID 0000.0001)  cg2d: iter=    62 ; resid.=  1.45216982346537E-06
(PID.TID 0000.0001)  cg2d: iter=    63 ; resid.=  1.13681921134323E-06
(PID.TID 0000.0001)  cg2d: iter=    64 ; resid.=  9.30203014011535E-07
(PID.TID 0000.0001)  cg2d: iter=    65 ; resid.=  7.43918620212357E-07
(PID.TID 0000.0001)  cg2d: iter=    66 ; resid.=  5.96216538780087E-07
(PID.TID 0000.0001)  cg2d: iter=    67 ; resid.=  5.43157717938303E-07
(PID.TID 0000.0001)  cg2d: iter=    68 ; resid.=  4.60098092485350E-07
(PID.TID 0000.0001)  cg2d: iter=    69 ; resid.=  3.77039549422481E-07
(PID.TID 0000.0001)  cg2d: iter=    70 ; resid.=  3.16180275446382E-07
(PID.TID 0000.0001)  cg2d: iter=    71 ; resid.=  2.62738044836642E-07
(PID.TID 0000.0001)  cg2d: iter=    72 ; resid.=  2.13035374409984E-07
(PID.TID 0000.0001)  cg2d: iter=    73 ; resid.=  1.93492555363128E-07
(PID.TID 0000.0001)  cg2d: iter=    74 ; resid.=  1.72517955462089E-07
(PID.TID 0000.0001)  cg2d: iter=    75 ; resid.=  1.39228560933196E-07
(PID.TID 0000.0001)  cg2d: iter=    76 ; resid.=  1.12948186709479E-07
(PID.TID 0000.0001)  cg2d: iter=    77 ; resid.=  1.00632356923324E-07
(PID.TID 0000.0001)  cg2d: iter=    78 ; resid.=  8.79393489185312E-08
(PID.TID 0000.0001)  cg2d: iter=    79 ; resid.=  7.35711027837082E-08
(PID.TID 0000.0001)  cg2d: iter=    80 ; resid.=  5.96041446011434E-08
(PID.TID 0000.0001)  cg2d: iter=    81 ; resid.=  4.95029714184920E-08
(PID.TID 0000.0001)  cg2d: iter=    82 ; resid.=  3.93589674103876E-08
(PID.TID 0000.0001)  cg2d: iter=    83 ; resid.=  3.14853399270985E-08
(PID.TID 0000.0001)  cg2d: iter=    84 ; resid.=  2.51120040936255E-08
(PID.TID 0000.0001)  cg2d: iter=    85 ; resid.=  1.79363211198589E-08
(PID.TID 0000.0001)  cg2d: iter=    86 ; resid.=  1.24417589031189E-08
(PID.TID 0000.0001)  cg2d: iter=    87 ; resid.=  9.22279245564295E-09
(PID.TID 0000.0001)  cg2d: iter=    88 ; resid.=  7.81817430417355E-09
(PID.TID 0000.0001)  cg2d: iter=    89 ; resid.=  6.65202158350976E-09
(PID.TID 0000.0001)  cg2d: iter=    90 ; resid.=  5.06416514908753E-09
(PID.TID 0000.0001)  cg2d: iter=    91 ; resid.=  3.64835801282342E-09
(PID.TID 0000.0001)  cg2d: iter=    92 ; resid.=  2.64521334715835E-09
(PID.TID 0000.0001)  cg2d: iter=    93 ; resid.=  1.98096971615157E-09
(PID.TID 0000.0001)  cg2d: iter=    94 ; resid.=  1.48426981108308E-09
(PID.TID 0000.0001)  cg2d: iter=    95 ; resid.=  1.17905036540059E-09
(PID.TID 0000.0001)  cg2d: iter=    96 ; resid.=  9.61880614057488E-10
(PID.TID 0000.0001)  cg2d: iter=    97 ; resid.=  7.77763061160546E-10
(PID.TID 0000.0001)  cg2d: iter=    98 ; resid.=  6.01923946021705E-10
(PID.TID 0000.0001)  cg2d: iter=    99 ; resid.=  4.70509881602762E-10
(PID.TID 0000.0001)  cg2d: iter=   100 ; resid.=  4.09880296363058E-10
(PID.TID 0000.0001)  cg2d: iter=   101 ; resid.=  3.10407075796500E-10
(PID.TID 0000.0001)  cg2d: iter=   102 ; resid.=  2.36118609472954E-10
(PID.TID 0000.0001)  cg2d: iter=   103 ; resid.=  1.95740833815927E-10
(PID.TID 0000.0001)  cg2d: iter=   104 ; resid.=  1.77295274915722E-10
(PID.TID 0000.0001)  cg2d: iter=   105 ; resid.=  1.54067153615266E-10
(PID.TID 0000.0001)  cg2d: iter=   106 ; resid.=  1.26876665744656E-10
(PID.TID 0000.0001)  cg2d: iter=   107 ; resid.=  1.19928904202756E-10
(PID.TID 0000.0001)  cg2d: iter=   108 ; resid.=  1.00624581549916E-10
(PID.TID 0000.0001)  cg2d: iter=   109 ; resid.=  7.52369782748932E-11
(PID.TID 0000.0001)  cg2d: iter=   110 ; resid.=  5.16930230198464E-11
(PID.TID 0000.0001)  cg2d: iter=   111 ; resid.=  3.89568228036854E-11
(PID.TID 0000.0001)  cg2d: iter=   112 ; resid.=  2.85553000412627E-11
(PID.TID 0000.0001)  cg2d: iter=   113 ; resid.=  2.06738620488827E-11
(PID.TID 0000.0001)  cg2d: iter=   114 ; resid.=  1.43795623047948E-11
(PID.TID 0000.0001)  cg2d: iter=   115 ; resid.=  1.09846422287842E-11
(PID.TID 0000.0001)  cg2d: iter=   116 ; resid.=  8.03814311900964E-12
(PID.TID 0000.0001)  cg2d: iter=   117 ; resid.=  6.11329807261056E-12
(PID.TID 0000.0001)  cg2d: iter=   118 ; resid.=  4.73133553109838E-12
(PID.TID 0000.0001)  cg2d: iter=   119 ; resid.=  3.96994207272710E-12
(PID.TID 0000.0001)  cg2d: iter=   120 ; resid.=  3.13193713593849E-12
(PID.TID 0000.0001)  cg2d: iter=   121 ; resid.=  2.33153379059691E-12
(PID.TID 0000.0001)  cg2d: iter=   122 ; resid.=  1.86086003930937E-12
(PID.TID 0000.0001)  cg2d: iter=   123 ; resid.=  1.55039447457713E-12
(PID.TID 0000.0001)  cg2d: iter=   124 ; resid.=  1.11168535510493E-12
(PID.TID 0000.0001)  cg2d: iter=   125 ; resid.=  9.07202881008052E-13
(PID.TID 0000.0001)  cg2d: iter=   126 ; resid.=  6.88292364928672E-13
(PID.TID 0000.0001)  cg2d: iter=   127 ; resid.=  4.37424233423393E-13
(PID.TID 0000.0001)  cg2d: iter=   128 ; resid.=  2.90480808984752E-13
(PID.TID 0000.0001)  cg2d: iter=   129 ; resid.=  2.10538191835132E-13
(PID.TID 0000.0001)  cg2d: iter=   130 ; resid.=  1.55362980062132E-13
(PID.TID 0000.0001)  cg2d: iter=   131 ; resid.=  1.16116187300810E-13
(PID.TID 0000.0001)  cg2d: iter=   132 ; resid.=  9.03393134255423E-14
DEBUG_STATS_RL:    cg2d_x (SOLVE_FOR_PRESSURE)  min= -1.83957340875593E+01
DEBUG_STATS_RL:    cg2d_x (SOLVE_FOR_PRESSURE)  max=  7.86952600499816E+00
DEBUG_STATS_RL:    cg2d_x (SOLVE_FOR_PRESSURE) mean= -1.69806181131125E+00
DEBUG_STATS_RL:    cg2d_x (SOLVE_FOR_PRESSURE) S.D.=  6.98709180099937E+00
(PID.TID 0000.0001)      cg2d_init_res =   2.09847956569222E-01
(PID.TID 0000.0001)      cg2d_iters(min,last) =      -1     132
(PID.TID 0000.0001)      cg2d_last_res =   9.03393134255423E-14
(PID.TID 0000.0001) // =======================================================
(PID.TID 0000.0001) // Begin MONITOR dynamic field statistics
(PID.TID 0000.0001) // =======================================================
(PID.TID 0000.0001) %MON time_tsnumber                =                    96
(PID.TID 0000.0001) %MON time_secondsf                =   8.2944000000000E+06
(PID.TID 0000.0001) %MON dynstat_eta_max              =   8.0219429204874E-01
(PID.TID 0000.0001) %MON dynstat_eta_min              =  -1.8752022515350E+00
(PID.TID 0000.0001) %MON dynstat_eta_mean             =  -5.7730136631568E-03
(PID.TID 0000.0001) %MON dynstat_eta_sd               =   6.0318327709442E-01
(PID.TID 0000.0001) %MON dynstat_eta_del2             =   2.5482335853287E-03
(PID.TID 0000.0001) %MON dynstat_uvel_max             =   1.2907745508454E-01
(PID.TID 0000.0001) %MON dynstat_uvel_min             =  -1.2610214564793E-01
(PID.TID 0000.0001) %MON dynstat_uvel_mean            =   2.4685171242961E-03
(PID.TID 0000.0001) %MON dynstat_uvel_sd              =   1.3650687096806E-02
(PID.TID 0000.0001) %MON dynstat_uvel_del2            =   8.7791699374702E-05
(PID.TID 0000.0001) %MON dynstat_vvel_max             =   1.2069998152670E-01
(PID.TID 0000.0001) %MON dynstat_vvel_min             =  -8.8229337109267E-02
(PID.TID 0000.0001) %MON dynstat_vvel_mean            =   5.3722612055019E-05
(PID.TID 0000.0001) %MON dynstat_vvel_sd              =   8.0812066205587E-03
(PID.TID 0000.0001) %MON dynstat_vvel_del2            =   8.0447778068665E-05
(PID.TID 0000.0001) %MON dynstat_wvel_max             =   1.0369192952041E-04
(PID.TID 0000.0001) %MON dynstat_wvel_min             =  -8.1598873471285E-05
(PID.TID 0000.0001) %MON dynstat_wvel_mean            =  -2.2569932117142E-23
(PID.TID 0000.0001) %MON dynstat_wvel_sd              =   9.3525635662891E-06
(PID.TID 0000.0001) %MON dynstat_wvel_del2            =   9.5500466466730E-08
(PID.TID 0000.0001) %MON dynstat_theta_max            =   3.0169309677153E+01
(PID.TID 0000.0001) %MON dynstat_theta_min            =  -1.9035134491837E+00
(PID.TID 0000.0001) %MON dynstat_theta_mean           =   3.6217365341319E+00
(PID.TID 0000.0001) %MON dynstat_theta_sd             =   4.4237405248523E+00
(PID.TID 0000.0001) %MON dynstat_theta_del2           =   4.5543590403927E-03
(PID.TID 0000.0001) %MON dynstat_salt_max             =   3.7439253911735E+01
(PID.TID 0000.0001) %MON dynstat_salt_min             =   2.9937468050546E+01
(PID.TID 0000.0001) %MON dynstat_salt_mean            =   3.4717260770727E+01
(PID.TID 0000.0001) %MON dynstat_salt_sd              =   2.9615185226465E-01
(PID.TID 0000.0001) %MON dynstat_salt_del2            =   9.5513124033499E-04
(PID.TID 0000.0001) %MON dynstat_sst_max              =   3.0169309677153E+01
(PID.TID 0000.0001) %MON dynstat_sst_min              =  -1.9035134491837E+00
(PID.TID 0000.0001) %MON dynstat_sst_mean             =   1.8750851015213E+01
(PID.TID 0000.0001) %MON dynstat_sst_sd               =   9.4194943100309E+00
(PID.TID 0000.0001) %MON dynstat_sst_del2             =   2.2850040991351E-02
(PID.TID 0000.0001) %MON dynstat_sss_max              =   3.7410291369777E+01
(PID.TID 0000.0001) %MON dynstat_sss_min              =   2.9937468050546E+01
(PID.TID 0000.0001) %MON dynstat_sss_mean             =   3.4838543042819E+01
(PID.TID 0000.0001) %MON dynstat_sss_sd               =   9.8625511797558E-01
(PID.TID 0000.0001) %MON dynstat_sss_del2             =   7.5775176852901E-03
(PID.TID 0000.0001) %MON forcing_qnet_max             =   1.8040299479167E+02
(PID.TID 0000.0001) %MON forcing_qnet_min             =  -1.5529566446940E+02
(PID.TID 0000.0001) %MON forcing_qnet_mean            =   6.7566258924804E-01
(PID.TID 0000.0001) %MON forcing_qnet_sd              =   4.0811835969263E+01
(PID.TID 0000.0001) %MON forcing_qnet_del2            =   7.8641898136812E-01
(PID.TID 0000.0001) %MON forcing_qsw_max              =   0.0000000000000E+00
(PID.TID 0000.0001) %MON forcing_qsw_min              =   0.0000000000000E+00
(PID.TID 0000.0001) %MON forcing_qsw_mean             =   0.0000000000000E+00
(PID.TID 0000.0001) %MON forcing_qsw_sd               =   0.0000000000000E+00
(PID.TID 0000.0001) %MON forcing_qsw_del2             =   0.0000000000000E+00
(PID.TID 0000.0001) %MON forcing_empmr_max            =   6.7185401538457E-05
(PID.TID 0000.0001) %MON forcing_empmr_min            =  -8.3561339181415E-05
(PID.TID 0000.0001) %MON forcing_empmr_mean           =   1.0180375712738E-07
(PID.TID 0000.0001) %MON forcing_empmr_sd             =   2.5504926925635E-05
(PID.TID 0000.0001) %MON forcing_empmr_del2           =   3.6682577382862E-07
(PID.TID 0000.0001) %MON forcing_fu_max               =   3.4542939066887E-01
(PID.TID 0000.0001) %MON forcing_fu_min               =  -4.0721786022186E-01
(PID.TID 0000.0001) %MON forcing_fu_mean              =   1.7912887361731E-02
(PID.TID 0000.0001) %MON forcing_fu_sd                =   1.0095571358910E-01
(PID.TID 0000.0001) %MON forcing_fu_del2              =   7.8746887246203E-04
(PID.TID 0000.0001) %MON forcing_fv_max               =   1.8138032158216E-01
(PID.TID 0000.0001) %MON forcing_fv_min               =  -1.4448850850264E-01
(PID.TID 0000.0001) %MON forcing_fv_mean              =  -6.8000419925840E-03
(PID.TID 0000.0001) %MON forcing_fv_sd                =   3.8744507410474E-02
(PID.TID 0000.0001) %MON forcing_fv_del2              =   4.1826418135410E-04
(PID.TID 0000.0001) %MON trAdv_CFL_u_max              =   4.9363845677572E-02
(PID.TID 0000.0001) %MON trAdv_CFL_v_max              =   2.3561913366701E-02
(PID.TID 0000.0001) %MON trAdv_CFL_w_max              =   2.6826155069789E-02
(PID.TID 0000.0001) %MON advcfl_uvel_max              =   4.6193810545912E-02
(PID.TID 0000.0001) %MON advcfl_vvel_max              =   2.3450070615666E-02
(PID.TID 0000.0001) %MON advcfl_wvel_max              =   2.3805371247903E-02
(PID.TID 0000.0001) %MON advcfl_W_hf_max              =   2.5660981493682E-02
(PID.TID 0000.0001) %MON pe_b_mean                    =   4.6560706940810E-04
(PID.TID 0000.0001) %MON ke_max                       =   1.0370381062965E-02
(PID.TID 0000.0001) %MON ke_mean                      =   1.1674603487821E-04
(PID.TID 0000.0001) %MON ke_vol                       =   1.3226782436723E+18
(PID.TID 0000.0001) %MON vort_r_min                   =  -3.7721536256427E-07
(PID.TID 0000.0001) %MON vort_r_max                   =   4.4271292177657E-07
(PID.TID 0000.0001) %MON vort_a_mean                  =  -2.5274806572996E-05
(PID.TID 0000.0001) %MON vort_a_sd                    =   7.3604681759519E-05
(PID.TID 0000.0001) %MON vort_p_mean                  =  -3.1845654760678E-05
(PID.TID 0000.0001) %MON vort_p_sd                    =   1.3162476392019E-04
(PID.TID 0000.0001) %MON surfExpan_theta_mean         =  -3.9302061953170E-07
(PID.TID 0000.0001) %MON surfExpan_salt_mean          =   1.0689287775689E-07
(PID.TID 0000.0001) // =======================================================
(PID.TID 0000.0001) // End MONITOR dynamic field statistics
(PID.TID 0000.0001) // =======================================================
 EXTERNAL_FIELDS_LOAD,        96 : iP,iLd,i0,i1=    3    4    3    4 ; Wght=  0.3000000000  0.7000000000
 EXTERNAL_FIELDS_LOAD: (fu0,1),fu,fv= -2.7199E-02 -3.7252E-02 -3.4236E-02 -2.4825E-02
 EXTERNAL_FIELDS_LOAD: SST,SSS,Q,E-P= -3.0436E-02  3.4572E+01  1.3750E+02  8.1626E-06
DEBUG_STATS_RL:          Uvel (THERMODYNAMICS)  min= -1.26102145647930E-01
DEBUG_STATS_RL:          Uvel (THERMODYNAMICS)  max=  1.29077455084543E-01
DEBUG_STATS_RL:          Uvel (THERMODYNAMICS) mean=  5.88374569588138E-03
DEBUG_STATS_RL:          Uvel (THERMODYNAMICS) S.D.=  2.19407477490014E-02
DEBUG_STATS_RL:          Vvel (THERMODYNAMICS)  min= -8.82293371092673E-02
DEBUG_STATS_RL:          Vvel (THERMODYNAMICS)  max=  1.20699981526697E-01
DEBUG_STATS_RL:          Vvel (THERMODYNAMICS) mean=  8.77162996258946E-04
DEBUG_STATS_RL:          Vvel (THERMODYNAMICS) S.D.=  1.27964082589678E-02
DEBUG_STATS_RL:          Wvel (THERMODYNAMICS)  min= -8.15988734712852E-05
DEBUG_STATS_RL:          Wvel (THERMODYNAMICS)  max=  1.03691929520408E-04
DEBUG_STATS_RL:          Wvel (THERMODYNAMICS) mean= -2.73647797280920E-08
DEBUG_STATS_RL:          Wvel (THERMODYNAMICS) S.D.=  8.24306633744888E-06
DEBUG_STATS_RL:         Theta (THERMODYNAMICS)  min= -1.90361498190879E+00
DEBUG_STATS_RL:         Theta (THERMODYNAMICS)  max=  3.01795195252771E+01
DEBUG_STATS_RL:         Theta (THERMODYNAMICS) mean=  3.20808670684257E+00
DEBUG_STATS_RL:         Theta (THERMODYNAMICS) S.D.=  5.87287836487997E+00
DEBUG_STATS_RL:          Salt (THERMODYNAMICS)  min= -6.86352596184166E-04
DEBUG_STATS_RL:          Salt (THERMODYNAMICS)  max=  3.74395538352937E+01
DEBUG_STATS_RL:          Salt (THERMODYNAMICS) mean=  1.88440801693535E+01
DEBUG_STATS_RL:          Salt (THERMODYNAMICS) S.D.=  1.73003088124769E+01
DEBUG_STATS_RL:         GtNm1 (THERMODYNAMICS)  min= -1.81807849622048E-06
DEBUG_STATS_RL:         GtNm1 (THERMODYNAMICS)  max=  2.54456799511381E-06
DEBUG_STATS_RL:         GtNm1 (THERMODYNAMICS) mean= -3.41362308192678E-09
DEBUG_STATS_RL:         GtNm1 (THERMODYNAMICS) S.D.=  1.33649216005631E-07
DEBUG_STATS_RL:         GsNm1 (THERMODYNAMICS)  min= -6.70252801815954E-07
DEBUG_STATS_RL:         GsNm1 (THERMODYNAMICS)  max=  3.30068023327584E-07
DEBUG_STATS_RL:         GsNm1 (THERMODYNAMICS) mean= -1.66293573448619E-10
DEBUG_STATS_RL:         GsNm1 (THERMODYNAMICS) S.D.=  1.24180419400172E-08
DEBUG_STATS_RL:                EtaN (DYNAMICS)  min= -1.87520225153499E+00
DEBUG_STATS_RL:                EtaN (DYNAMICS)  max=  8.02194292048738E-01
DEBUG_STATS_RL:                EtaN (DYNAMICS) mean= -1.73094985862514E-01
DEBUG_STATS_RL:                EtaN (DYNAMICS) S.D.=  7.12241773802179E-01
DEBUG_STATS_RL:                Uvel (DYNAMICS)  min= -1.26102145647930E-01
DEBUG_STATS_RL:                Uvel (DYNAMICS)  max=  1.29077455084543E-01
DEBUG_STATS_RL:                Uvel (DYNAMICS) mean=  5.88374569588138E-03
DEBUG_STATS_RL:                Uvel (DYNAMICS) S.D.=  2.19407477490014E-02
DEBUG_STATS_RL:                Vvel (DYNAMICS)  min= -8.82293371092673E-02
DEBUG_STATS_RL:                Vvel (DYNAMICS)  max=  1.20699981526697E-01
DEBUG_STATS_RL:                Vvel (DYNAMICS) mean=  8.77162996258946E-04
DEBUG_STATS_RL:                Vvel (DYNAMICS) S.D.=  1.27964082589678E-02
DEBUG_STATS_RL:                Wvel (DYNAMICS)  min= -8.15988734712852E-05
DEBUG_STATS_RL:                Wvel (DYNAMICS)  max=  1.03691929520408E-04
DEBUG_STATS_RL:                Wvel (DYNAMICS) mean= -2.73647797280920E-08
DEBUG_STATS_RL:                Wvel (DYNAMICS) S.D.=  8.24306633744888E-06
DEBUG_STATS_RL:               Theta (DYNAMICS)  min= -1.90361498190879E+00
DEBUG_STATS_RL:               Theta (DYNAMICS)  max=  3.01795195252771E+01
DEBUG_STATS_RL:               Theta (DYNAMICS) mean=  3.20808670684257E+00
DEBUG_STATS_RL:               Theta (DYNAMICS) S.D.=  5.87287836487997E+00
DEBUG_STATS_RL:                Salt (DYNAMICS)  min= -6.86352596184166E-04
DEBUG_STATS_RL:                Salt (DYNAMICS)  max=  3.74395538352937E+01
DEBUG_STATS_RL:                Salt (DYNAMICS) mean=  1.88440801693535E+01
DEBUG_STATS_RL:                Salt (DYNAMICS) S.D.=  1.73003088124769E+01
DEBUG_STATS_RL:                  Gu (DYNAMICS)  min= -1.25082929581377E-01
DEBUG_STATS_RL:                  Gu (DYNAMICS)  max=  1.35108280406267E-01
DEBUG_STATS_RL:                  Gu (DYNAMICS) mean=  5.93768145928409E-03
DEBUG_STATS_RL:                  Gu (DYNAMICS) S.D.=  2.24274855323897E-02
DEBUG_STATS_RL:                  Gv (DYNAMICS)  min= -8.57905961274498E-02
DEBUG_STATS_RL:                  Gv (DYNAMICS)  max=  1.20078694636672E-01
DEBUG_STATS_RL:                  Gv (DYNAMICS) mean=  3.53041124832478E-03
DEBUG_STATS_RL:                  Gv (DYNAMICS) S.D.=  1.41631658061202E-02
DEBUG_STATS_RL:               GuNm1 (DYNAMICS)  min= -9.13452680426701E-06
DEBUG_STATS_RL:               GuNm1 (DYNAMICS)  max=  9.25325160931634E-06
DEBUG_STATS_RL:               GuNm1 (DYNAMICS) mean=  1.30243614452226E-08
DEBUG_STATS_RL:               GuNm1 (DYNAMICS) S.D.=  1.22155387897885E-06
DEBUG_STATS_RL:               GvNm1 (DYNAMICS)  min= -9.35285962622068E-06
DEBUG_STATS_RL:               GvNm1 (DYNAMICS)  max=  1.49076124209559E-05
DEBUG_STATS_RL:               GvNm1 (DYNAMICS) mean=  7.46687005274139E-07
DEBUG_STATS_RL:               GvNm1 (DYNAMICS) S.D.=  2.59406488961371E-06
DEBUG_STATS_RL:               GtNm1 (DYNAMICS)  min= -1.81807849622048E-06
DEBUG_STATS_RL:               GtNm1 (DYNAMICS)  max=  2.54456799511381E-06
DEBUG_STATS_RL:               GtNm1 (DYNAMICS) mean= -3.41362308192678E-09
DEBUG_STATS_RL:               GtNm1 (DYNAMICS) S.D.=  1.33649216005631E-07
DEBUG_STATS_RL:               GsNm1 (DYNAMICS)  min= -6.70252801815954E-07
DEBUG_STATS_RL:               GsNm1 (DYNAMICS)  max=  3.30068023327584E-07
DEBUG_STATS_RL:               GsNm1 (DYNAMICS) mean= -1.66293573448619E-10
DEBUG_STATS_RL:               GsNm1 (DYNAMICS) S.D.=  1.24180419400172E-08
DEBUG_STATS_RL:    cg2d_b (SOLVE_FOR_PRESSURE)  min= -2.52337769005999E+04
DEBUG_STATS_RL:    cg2d_b (SOLVE_FOR_PRESSURE)  max=  2.75573055397264E+04
DEBUG_STATS_RL:    cg2d_b (SOLVE_FOR_PRESSURE) mean=  5.53936293441117E+00
DEBUG_STATS_RL:    cg2d_b (SOLVE_FOR_PRESSURE) S.D.=  3.99866442130929E+03
 cg2d: Sum(rhs),rhsMax =   4.65343942087474E-01  1.81003761048763E+00
(PID.TID 0000.0001)  cg2d: iter=     1 ; resid.=  8.01583960999687E-02
(PID.TID 0000.0001)  cg2d: iter=     2 ; resid.=  6.06854265519249E-02
(PID.TID 0000.0001)  cg2d: iter=     3 ; resid.=  5.52579906839340E-02
(PID.TID 0000.0001)  cg2d: iter=     4 ; resid.=  4.62858397669288E-02
(PID.TID 0000.0001)  cg2d: iter=     5 ; resid.=  4.05514819840447E-02
(PID.TID 0000.0001)  cg2d: iter=     6 ; resid.=  2.70280398668984E-02
(PID.TID 0000.0001)  cg2d: iter=     7 ; resid.=  2.19758003900667E-02
(PID.TID 0000.0001)  cg2d: iter=     8 ; resid.=  1.90163264281588E-02
(PID.TID 0000.0001)  cg2d: iter=     9 ; resid.=  1.40249493521017E-02
(PID.TID 0000.0001)  cg2d: iter=    10 ; resid.=  1.21224491582325E-02
(PID.TID 0000.0001)  cg2d: iter=    11 ; resid.=  1.23268299709386E-02
(PID.TID 0000.0001)  cg2d: iter=    12 ; resid.=  8.61959599067788E-03
(PID.TID 0000.0001)  cg2d: iter=    13 ; resid.=  6.33496159288933E-03
(PID.TID 0000.0001)  cg2d: iter=    14 ; resid.=  5.39274627253728E-03
(PID.TID 0000.0001)  cg2d: iter=    15 ; resid.=  4.91583331315929E-03
(PID.TID 0000.0001)  cg2d: iter=    16 ; resid.=  4.16893754145195E-03
(PID.TID 0000.0001)  cg2d: iter=    17 ; resid.=  3.61831332502540E-03
(PID.TID 0000.0001)  cg2d: iter=    18 ; resid.=  3.01312304425435E-03
(PID.TID 0000.0001)  cg2d: iter=    19 ; resid.=  2.48973710676434E-03
(PID.TID 0000.0001)  cg2d: iter=    20 ; resid.=  2.18339662073989E-03
(PID.TID 0000.0001)  cg2d: iter=    21 ; resid.=  1.78220763269791E-03
(PID.TID 0000.0001)  cg2d: iter=    22 ; resid.=  1.52750649217118E-03
(PID.TID 0000.0001)  cg2d: iter=    23 ; resid.=  1.33444723469577E-03
(PID.TID 0000.0001)  cg2d: iter=    24 ; resid.=  1.26373811575873E-03
(PID.TID 0000.0001)  cg2d: iter=    25 ; resid.=  9.48214205805578E-04
(PID.TID 0000.0001)  cg2d: iter=    26 ; resid.=  6.79830279615559E-04
(PID.TID 0000.0001)  cg2d: iter=    27 ; resid.=  5.99888885987687E-04
(PID.TID 0000.0001)  cg2d: iter=    28 ; resid.=  5.53143528027572E-04
(PID.TID 0000.0001)  cg2d: iter=    29 ; resid.=  4.14946914413601E-04
(PID.TID 0000.0001)  cg2d: iter=    30 ; resid.=  3.19997351496974E-04
(PID.TID 0000.0001)  cg2d: iter=    31 ; resid.=  2.57238098907475E-04
(PID.TID 0000.0001)  cg2d: iter=    32 ; resid.=  2.26078752162312E-04
(PID.TID 0000.0001)  cg2d: iter=    33 ; resid.=  2.04518090106118E-04
(PID.TID 0000.0001)  cg2d: iter=    34 ; resid.=  1.63019054520583E-04
(PID.TID 0000.0001)  cg2d: iter=    35 ; resid.=  1.14534833921472E-04
(PID.TID 0000.0001)  cg2d: iter=    36 ; resid.=  8.37603243079993E-05
(PID.TID 0000.0001)  cg2d: iter=    37 ; resid.=  6.78941086976518E-05
(PID.TID 0000.0001)  cg2d: iter=    38 ; resid.=  5.73022878699684E-05
(PID.TID 0000.0001)  cg2d: iter=    39 ; resid.=  4.39706628753163E-05
(PID.TID 0000.0001)  cg2d: iter=    40 ; resid.=  3.43418843937876E-05
(PID.TID 0000.0001)  cg2d: iter=    41 ; resid.=  2.55993638219292E-05
(PID.TID 0000.0001)  cg2d: iter=    42 ; resid.=  2.29591920562275E-05
(PID.TID 0000.0001)  cg2d: iter=    43 ; resid.=  2.02131423371914E-05
(PID.TID 0000.0001)  cg2d: iter=    44 ; resid.=  1.64351145253925E-05
(PID.TID 0000.0001)  cg2d: iter=    45 ; resid.=  1.38005960429926E-05
(PID.TID 0000.0001)  cg2d: iter=    46 ; resid.=  1.15000288709353E-05
(PID.TID 0000.0001)  cg2d: iter=    47 ; resid.=  1.00495366535206E-05
(PID.TID 0000.0001)  cg2d: iter=    48 ; resid.=  9.63444420063380E-06
(PID.TID 0000.0001)  cg2d: iter=    49 ; resid.=  8.19998554655140E-06
(PID.TID 0000.0001)  cg2d: iter=    50 ; resid.=  6.60505003267385E-06
(PID.TID 0000.0001)  cg2d: iter=    51 ; resid.=  5.51727217675088E-06
(PID.TID 0000.0001)  cg2d: iter=    52 ; resid.=  5.06741687193941E-06
(PID.TID 0000.0001)  cg2d: iter=    53 ; resid.=  4.56966519614597E-06
(PID.TID 0000.0001)  cg2d: iter=    54 ; resid.=  3.88489675318768E-06
(PID.TID 0000.0001)  cg2d: iter=    55 ; resid.=  3.15917776225272E-06
(PID.TID 0000.0001)  cg2d: iter=    56 ; resid.=  2.62735113091860E-06
(PID.TID 0000.0001)  cg2d: iter=    57 ; resid.=  2.30835747771170E-06
(PID.TID 0000.0001)  cg2d: iter=    58 ; resid.=  1.87007186004668E-06
(PID.TID 0000.0001)  cg2d: iter=    59 ; resid.=  1.45682176036284E-06
(PID.TID 0000.0001)  cg2d: iter=    60 ; resid.=  1.13893506018729E-06
(PID.TID 0000.0001)  cg2d: iter=    61 ; resid.=  8.85564567061699E-07
(PID.TID 0000.0001)  cg2d: iter=    62 ; resid.=  6.47743063146396E-07
(PID.TID 0000.0001)  cg2d: iter=    63 ; resid.=  4.82491360977767E-07
(PID.TID 0000.0001)  cg2d: iter=    64 ; resid.=  3.88502923056614E-07
(PID.TID 0000.0001)  cg2d: iter=    65 ; resid.=  3.11001978096317E-07
(PID.TID 0000.0001)  cg2d: iter=    66 ; resid.=  2.51584416583599E-07
(PID.TID 0000.0001)  cg2d: iter=    67 ; resid.=  2.23524422807651E-07
(PID.TID 0000.0001)  cg2d: iter=    68 ; resid.=  1.98214480021202E-07
(PID.TID 0000.0001)  cg2d: iter=    69 ; resid.=  1.69752281070051E-07
(PID.TID 0000.0001)  cg2d: iter=    70 ; resid.=  1.58745553603312E-07
(PID.TID 0000.0001)  cg2d: iter=    71 ; resid.=  1.44823481350758E-07
(PID.TID 0000.0001)  cg2d: iter=    72 ; resid.=  1.17740730999584E-07
(PID.TID 0000.0001)  cg2d: iter=    73 ; resid.=  1.00115527174466E-07
(PID.TID 0000.0001)  cg2d: iter=    74 ; resid.=  8.05326036268394E-08
(PID.TID 0000.0001)  cg2d: iter=    75 ; resid.=  6.30035281777280E-08
(PID.TID 0000.0001)  cg2d: iter=    76 ; resid.=  4.60622020048836E-08
(PID.TID 0000.0001)  cg2d: iter=    77 ; resid.=  3.69668802507772E-08
(PID.TID 0000.0001)  cg2d: iter=    78 ; resid.=  3.05339373254509E-08
(PID.TID 0000.0001)  cg2d: iter=    79 ; resid.=  2.36085038207902E-08
(PID.TID 0000.0001)  cg2d: iter=    80 ; resid.=  1.69753646624909E-08
(PID.TID 0000.0001)  cg2d: iter=    81 ; resid.=  1.40603804047248E-08
(PID.TID 0000.0001)  cg2d: iter=    82 ; resid.=  1.15192228603460E-08
(PID.TID 0000.0001)  cg2d: iter=    83 ; resid.=  9.51598748275525E-09
(PID.TID 0000.0001)  cg2d: iter=    84 ; resid.=  7.52898421645370E-09
(PID.TID 0000.0001)  cg2d: iter=    85 ; resid.=  5.47603104333227E-09
(PID.TID 0000.0001)  cg2d: iter=    86 ; resid.=  4.01024789121358E-09
(PID.TID 0000.0001)  cg2d: iter=    87 ; resid.=  3.13339759287454E-09
(PID.TID 0000.0001)  cg2d: iter=    88 ; resid.=  2.39727400636278E-09
(PID.TID 0000.0001)  cg2d: iter=    89 ; resid.=  2.01748465920405E-09
(PID.TID 0000.0001)  cg2d: iter=    90 ; resid.=  1.78599433505145E-09
(PID.TID 0000.0001)  cg2d: iter=    91 ; resid.=  1.47204030204973E-09
(PID.TID 0000.0001)  cg2d: iter=    92 ; resid.=  1.14381394026936E-09
(PID.TID 0000.0001)  cg2d: iter=    93 ; resid.=  9.00971782258908E-10
(PID.TID 0000.0001)  cg2d: iter=    94 ; resid.=  7.33989059214955E-10
(PID.TID 0000.0001)  cg2d: iter=    95 ; resid.=  6.30170113031371E-10
(PID.TID 0000.0001)  cg2d: iter=    96 ; resid.=  5.41431340174369E-10
(PID.TID 0000.0001)  cg2d: iter=    97 ; resid.=  4.71386793462565E-10
(PID.TID 0000.0001)  cg2d: iter=    98 ; resid.=  3.92720789845999E-10
(PID.TID 0000.0001)  cg2d: iter=    99 ; resid.=  3.14727716326162E-10
(PID.TID 0000.0001)  cg2d: iter=   100 ; resid.=  2.72471484503870E-10
(PID.TID 0000.0001)  cg2d: iter=   101 ; resid.=  1.96144542333622E-10
(PID.TID 0000.0001)  cg2d: iter=   102 ; resid.=  1.35792199711059E-10
(PID.TID 0000.0001)  cg2d: iter=   103 ; resid.=  9.62097531523654E-11
(PID.TID 0000.0001)  cg2d: iter=   104 ; resid.=  7.09614622046682E-11
(PID.TID 0000.0001)  cg2d: iter=   105 ; resid.=  5.13786366079646E-11
(PID.TID 0000.0001)  cg2d: iter=   106 ; resid.=  3.46865335637819E-11
(PID.TID 0000.0001)  cg2d: iter=   107 ; resid.=  2.63146684520202E-11
(PID.TID 0000.0001)  cg2d: iter=   108 ; resid.=  2.02523561320996E-11
(PID.TID 0000.0001)  cg2d: iter=   109 ; resid.=  1.53464068932082E-11
(PID.TID 0000.0001)  cg2d: iter=   110 ; resid.=  1.06545985273111E-11
(PID.TID 0000.0001)  cg2d: iter=   111 ; resid.=  8.35847582754677E-12
(PID.TID 0000.0001)  cg2d: iter=   112 ; resid.=  7.18096174339088E-12
(PID.TID 0000.0001)  cg2d: iter=   113 ; resid.=  6.06484463115176E-12
(PID.TID 0000.0001)  cg2d: iter=   114 ; resid.=  4.47868810735202E-12
(PID.TID 0000.0001)  cg2d: iter=   115 ; resid.=  3.52819985299023E-12
(PID.TID 0000.0001)  cg2d: iter=   116 ; resid.=  2.88429466971740E-12
(PID.TID 0000.0001)  cg2d: iter=   117 ; resid.=  2.30978729312442E-12
(PID.TID 0000.0001)  cg2d: iter=   118 ; resid.=  1.68690451779625E-12
(PID.TID 0000.0001)  cg2d: iter=   119 ; resid.=  1.24657718049629E-12
(PID.TID 0000.0001)  cg2d: iter=   120 ; resid.=  9.52659893287448E-13
(PID.TID 0000.0001)  cg2d: iter=   121 ; resid.=  7.12222346969871E-13
(PID.TID 0000.0001)  cg2d: iter=   122 ; resid.=  5.28023921572549E-13
(PID.TID 0000.0001)  cg2d: iter=   123 ; resid.=  4.34230525072508E-13
(PID.TID 0000.0001)  cg2d: iter=   124 ; resid.=  3.56003199376187E-13
(PID.TID 0000.0001)  cg2d: iter=   125 ; resid.=  3.46389357111684E-13
(PID.TID 0000.0001)  cg2d: iter=   126 ; resid.=  3.29906886838043E-13
(PID.TID 0000.0001)  cg2d: iter=   127 ; resid.=  2.54620929998604E-13
(PID.TID 0000.0001)  cg2d: iter=   128 ; resid.=  2.05386413901378E-13
(PID.TID 0000.0001)  cg2d: iter=   129 ; resid.=  1.66944117392490E-13
(PID.TID 0000.0001)  cg2d: iter=   130 ; resid.=  1.23963325828700E-13
(PID.TID 0000.0001)  cg2d: iter=   131 ; resid.=  9.14426236968275E-14
DEBUG_STATS_RL:    cg2d_x (SOLVE_FOR_PRESSURE)  min= -1.83666277912978E+01
DEBUG_STATS_RL:    cg2d_x (SOLVE_FOR_PRESSURE)  max=  8.51995406931947E+00
DEBUG_STATS_RL:    cg2d_x (SOLVE_FOR_PRESSURE) mean= -1.69947950084865E+00
DEBUG_STATS_RL:    cg2d_x (SOLVE_FOR_PRESSURE) S.D.=  6.98868074833116E+00
(PID.TID 0000.0001)      cg2d_init_res =   2.04121801185112E-01
(PID.TID 0000.0001)      cg2d_iters(min,last) =      -1     131
(PID.TID 0000.0001)      cg2d_last_res =   9.14426236968275E-14
(PID.TID 0000.0001) // =======================================================
(PID.TID 0000.0001) // Begin MONITOR dynamic field statistics
(PID.TID 0000.0001) // =======================================================
(PID.TID 0000.0001) %MON time_tsnumber                =                    97
(PID.TID 0000.0001) %MON time_secondsf                =   8.3808000000000E+06
(PID.TID 0000.0001) %MON dynstat_eta_max              =   8.6849684702543E-01
(PID.TID 0000.0001) %MON dynstat_eta_min              =  -1.8722352488579E+00
(PID.TID 0000.0001) %MON dynstat_eta_mean             =  -5.7796383637309E-03
(PID.TID 0000.0001) %MON dynstat_eta_sd               =   6.0353494441624E-01
(PID.TID 0000.0001) %MON dynstat_eta_del2             =   2.5508970816562E-03
(PID.TID 0000.0001) %MON dynstat_uvel_max             =   1.2842636230086E-01
(PID.TID 0000.0001) %MON dynstat_uvel_min             =  -1.2530591747549E-01
(PID.TID 0000.0001) %MON dynstat_uvel_mean            =   2.5533801845702E-03
(PID.TID 0000.0001) %MON dynstat_uvel_sd              =   1.3676842186751E-02
(PID.TID 0000.0001) %MON dynstat_uvel_del2            =   8.6298818869767E-05
(PID.TID 0000.0001) %MON dynstat_vvel_max             =   1.1975027053189E-01
(PID.TID 0000.0001) %MON dynstat_vvel_min             =  -8.9085227058364E-02
(PID.TID 0000.0001) %MON dynstat_vvel_mean            =   1.7335034093057E-05
(PID.TID 0000.0001) %MON dynstat_vvel_sd              =   7.8938773484555E-03
(PID.TID 0000.0001) %MON dynstat_vvel_del2            =   7.9566706727407E-05
(PID.TID 0000.0001) %MON dynstat_wvel_max             =   9.6001863391789E-05
(PID.TID 0000.0001) %MON dynstat_wvel_min             =  -7.5857974311786E-05
(PID.TID 0000.0001) %MON dynstat_wvel_mean            =  -1.6987085087353E-22
(PID.TID 0000.0001) %MON dynstat_wvel_sd              =   9.2519706681088E-06
(PID.TID 0000.0001) %MON dynstat_wvel_del2            =   9.6204240543189E-08
(PID.TID 0000.0001) %MON dynstat_theta_max            =   3.0179519525277E+01
(PID.TID 0000.0001) %MON dynstat_theta_min            =  -1.9036149819088E+00
(PID.TID 0000.0001) %MON dynstat_theta_mean           =   3.6217207044541E+00
(PID.TID 0000.0001) %MON dynstat_theta_sd             =   4.4237476270751E+00
(PID.TID 0000.0001) %MON dynstat_theta_del2           =   4.5473400833068E-03
(PID.TID 0000.0001) %MON dynstat_salt_max             =   3.7439553835294E+01
(PID.TID 0000.0001) %MON dynstat_salt_min             =   2.9942508866487E+01
(PID.TID 0000.0001) %MON dynstat_salt_mean            =   3.4717260742282E+01
(PID.TID 0000.0001) %MON dynstat_salt_sd              =   2.9614450482313E-01
(PID.TID 0000.0001) %MON dynstat_salt_del2            =   9.5424597073365E-04
(PID.TID 0000.0001) %MON dynstat_sst_max              =   3.0179519525277E+01
(PID.TID 0000.0001) %MON dynstat_sst_min              =  -1.9036149819088E+00
(PID.TID 0000.0001) %MON dynstat_sst_mean             =   1.8745500547876E+01
(PID.TID 0000.0001) %MON dynstat_sst_sd               =   9.4276583852985E+00
(PID.TID 0000.0001) %MON dynstat_sst_del2             =   2.2765263119343E-02
(PID.TID 0000.0001) %MON dynstat_sss_max              =   3.7410949378199E+01
(PID.TID 0000.0001) %MON dynstat_sss_min              =   2.9942508866487E+01
(PID.TID 0000.0001) %MON dynstat_sss_mean             =   3.4838434283683E+01
(PID.TID 0000.0001) %MON dynstat_sss_sd               =   9.8641734216328E-01
(PID.TID 0000.0001) %MON dynstat_sss_del2             =   7.5672759949103E-03
(PID.TID 0000.0001) %MON forcing_qnet_max             =   1.7569776000977E+02
(PID.TID 0000.0001) %MON forcing_qnet_min             =  -1.5486766815186E+02
(PID.TID 0000.0001) %MON forcing_qnet_mean            =   1.0726990182177E+00
(PID.TID 0000.0001) %MON forcing_qnet_sd              =   4.1320424539580E+01
(PID.TID 0000.0001) %MON forcing_qnet_del2            =   7.8843737531048E-01
(PID.TID 0000.0001) %MON forcing_qsw_max              =   0.0000000000000E+00
(PID.TID 0000.0001) %MON forcing_qsw_min              =   0.0000000000000E+00
(PID.TID 0000.0001) %MON forcing_qsw_mean             =   0.0000000000000E+00
(PID.TID 0000.0001) %MON forcing_qsw_sd               =   0.0000000000000E+00
(PID.TID 0000.0001) %MON forcing_qsw_del2             =   0.0000000000000E+00
(PID.TID 0000.0001) %MON forcing_empmr_max            =   6.7089230526562E-05
(PID.TID 0000.0001) %MON forcing_empmr_min            =  -8.3576185261336E-05
(PID.TID 0000.0001) %MON forcing_empmr_mean           =   7.9358392299823E-08
(PID.TID 0000.0001) %MON forcing_empmr_sd             =   2.5503892670617E-05
(PID.TID 0000.0001) %MON forcing_empmr_del2           =   3.6761681237783E-07
(PID.TID 0000.0001) %MON forcing_fu_max               =   3.4493733644485E-01
(PID.TID 0000.0001) %MON forcing_fu_min               =  -4.0815093219280E-01
(PID.TID 0000.0001) %MON forcing_fu_mean              =   1.7785695264799E-02
(PID.TID 0000.0001) %MON forcing_fu_sd                =   1.0114758509639E-01
(PID.TID 0000.0001) %MON forcing_fu_del2              =   7.9173719462986E-04
(PID.TID 0000.0001) %MON forcing_fv_max               =   1.8128432035446E-01
(PID.TID 0000.0001) %MON forcing_fv_min               =  -1.4479391127825E-01
(PID.TID 0000.0001) %MON forcing_fv_mean              =  -6.7635653202109E-03
(PID.TID 0000.0001) %MON forcing_fv_sd                =   3.8824397894992E-02
(PID.TID 0000.0001) %MON forcing_fv_del2              =   4.2076797046063E-04
(PID.TID 0000.0001) %MON trAdv_CFL_u_max              =   4.6203192839217E-02
(PID.TID 0000.0001) %MON trAdv_CFL_v_max              =   2.3411960631020E-02
(PID.TID 0000.0001) %MON trAdv_CFL_w_max              =   2.5595900051366E-02
(PID.TID 0000.0001) %MON advcfl_uvel_max              =   4.6615654012593E-02
(PID.TID 0000.0001) %MON advcfl_vvel_max              =   2.3265557000907E-02
(PID.TID 0000.0001) %MON advcfl_wvel_max              =   2.2217812488478E-02
(PID.TID 0000.0001) %MON advcfl_W_hf_max              =   2.4549325133318E-02
(PID.TID 0000.0001) %MON pe_b_mean                    =   4.6615019141655E-04
(PID.TID 0000.0001) %MON ke_max                       =   9.9174335043318E-03
(PID.TID 0000.0001) %MON ke_mean                      =   1.1591970501212E-04
(PID.TID 0000.0001) %MON ke_vol                       =   1.3226782436723E+18
(PID.TID 0000.0001) %MON vort_r_min                   =  -3.7385505616369E-07
(PID.TID 0000.0001) %MON vort_r_max                   =   4.0782134139573E-07
(PID.TID 0000.0001) %MON vort_a_mean                  =  -2.5274806401379E-05
(PID.TID 0000.0001) %MON vort_a_sd                    =   7.3604697783609E-05
(PID.TID 0000.0001) %MON vort_p_mean                  =  -3.1845654544446E-05
(PID.TID 0000.0001) %MON vort_p_sd                    =   1.3162491040522E-04
(PID.TID 0000.0001) %MON surfExpan_theta_mean         =  -6.5353988564274E-08
(PID.TID 0000.0001) %MON surfExpan_salt_mean          =   2.7418459069775E-08
(PID.TID 0000.0001) // =======================================================
(PID.TID 0000.0001) // End MONITOR dynamic field statistics
(PID.TID 0000.0001) // =======================================================
 EXTERNAL_FIELDS_LOAD,        97 : iP,iLd,i0,i1=    3    4    3    4 ; Wght=  0.2666666667  0.7333333333
 EXTERNAL_FIELDS_LOAD: (fu0,1),fu,fv= -2.7199E-02 -3.7252E-02 -3.4571E-02 -2.5979E-02
 EXTERNAL_FIELDS_LOAD: SST,SSS,Q,E-P= -2.3128E-02  3.4572E+01  1.3379E+02  8.1189E-06
DEBUG_STATS_RL:          Uvel (THERMODYNAMICS)  min= -1.25305917475494E-01
DEBUG_STATS_RL:          Uvel (THERMODYNAMICS)  max=  1.28426362300864E-01
DEBUG_STATS_RL:          Uvel (THERMODYNAMICS) mean=  5.98213688076658E-03
DEBUG_STATS_RL:          Uvel (THERMODYNAMICS) S.D.=  2.20071025598860E-02
DEBUG_STATS_RL:          Vvel (THERMODYNAMICS)  min= -8.90852270583645E-02
DEBUG_STATS_RL:          Vvel (THERMODYNAMICS)  max=  1.19750270531885E-01
DEBUG_STATS_RL:          Vvel (THERMODYNAMICS) mean=  8.26242844814102E-04
DEBUG_STATS_RL:          Vvel (THERMODYNAMICS) S.D.=  1.25918309326333E-02
DEBUG_STATS_RL:          Wvel (THERMODYNAMICS)  min= -7.58579743117861E-05
DEBUG_STATS_RL:          Wvel (THERMODYNAMICS)  max=  9.60018633917894E-05
DEBUG_STATS_RL:          Wvel (THERMODYNAMICS) mean= -3.67874565448148E-08
DEBUG_STATS_RL:          Wvel (THERMODYNAMICS) S.D.=  8.16178630359095E-06
DEBUG_STATS_RL:         Theta (THERMODYNAMICS)  min= -1.90372025357806E+00
DEBUG_STATS_RL:         Theta (THERMODYNAMICS)  max=  3.01892865735964E+01
DEBUG_STATS_RL:         Theta (THERMODYNAMICS) mean=  3.20783000773937E+00
DEBUG_STATS_RL:         Theta (THERMODYNAMICS) S.D.=  5.87274787781502E+00
DEBUG_STATS_RL:          Salt (THERMODYNAMICS)  min= -6.86352596184166E-04
DEBUG_STATS_RL:          Salt (THERMODYNAMICS)  max=  3.74400192055675E+01
DEBUG_STATS_RL:          Salt (THERMODYNAMICS) mean=  1.88440779264498E+01
DEBUG_STATS_RL:          Salt (THERMODYNAMICS) S.D.=  1.73003068749488E+01
DEBUG_STATS_RL:         GtNm1 (THERMODYNAMICS)  min= -2.51442078292086E-06
DEBUG_STATS_RL:         GtNm1 (THERMODYNAMICS)  max=  3.30513857207655E-06
DEBUG_STATS_RL:         GtNm1 (THERMODYNAMICS) mean= -3.79767405277755E-09
DEBUG_STATS_RL:         GtNm1 (THERMODYNAMICS) S.D.=  1.36236525731419E-07
DEBUG_STATS_RL:         GsNm1 (THERMODYNAMICS)  min= -6.38508983198723E-07
DEBUG_STATS_RL:         GsNm1 (THERMODYNAMICS)  max=  5.01246137255333E-07
DEBUG_STATS_RL:         GsNm1 (THERMODYNAMICS) mean= -1.39528313002455E-10
DEBUG_STATS_RL:         GsNm1 (THERMODYNAMICS) S.D.=  1.25476923278685E-08
DEBUG_STATS_RL:                EtaN (DYNAMICS)  min= -1.87223524885795E+00
DEBUG_STATS_RL:                EtaN (DYNAMICS)  max=  8.68496847025426E-01
DEBUG_STATS_RL:                EtaN (DYNAMICS) mean= -1.73239500596196E-01
DEBUG_STATS_RL:                EtaN (DYNAMICS) S.D.=  7.12403746007256E-01
DEBUG_STATS_RL:                Uvel (DYNAMICS)  min= -1.25305917475494E-01
DEBUG_STATS_RL:                Uvel (DYNAMICS)  max=  1.28426362300864E-01
DEBUG_STATS_RL:                Uvel (DYNAMICS) mean=  5.98213688076658E-03
DEBUG_STATS_RL:                Uvel (DYNAMICS) S.D.=  2.20071025598860E-02
DEBUG_STATS_RL:                Vvel (DYNAMICS)  min= -8.90852270583645E-02
DEBUG_STATS_RL:                Vvel (DYNAMICS)  max=  1.19750270531885E-01
DEBUG_STATS_RL:                Vvel (DYNAMICS) mean=  8.26242844814102E-04
DEBUG_STATS_RL:                Vvel (DYNAMICS) S.D.=  1.25918309326333E-02
DEBUG_STATS_RL:                Wvel (DYNAMICS)  min= -7.58579743117861E-05
DEBUG_STATS_RL:                Wvel (DYNAMICS)  max=  9.60018633917894E-05
DEBUG_STATS_RL:                Wvel (DYNAMICS) mean= -3.67874565448148E-08
DEBUG_STATS_RL:                Wvel (DYNAMICS) S.D.=  8.16178630359095E-06
DEBUG_STATS_RL:               Theta (DYNAMICS)  min= -1.90372025357806E+00
DEBUG_STATS_RL:               Theta (DYNAMICS)  max=  3.01892865735964E+01
DEBUG_STATS_RL:               Theta (DYNAMICS) mean=  3.20783000773937E+00
DEBUG_STATS_RL:               Theta (DYNAMICS) S.D.=  5.87274787781502E+00
DEBUG_STATS_RL:                Salt (DYNAMICS)  min= -6.86352596184166E-04
DEBUG_STATS_RL:                Salt (DYNAMICS)  max=  3.74400192055675E+01
DEBUG_STATS_RL:                Salt (DYNAMICS) mean=  1.88440779264498E+01
DEBUG_STATS_RL:                Salt (DYNAMICS) S.D.=  1.73003068749488E+01
DEBUG_STATS_RL:                  Gu (DYNAMICS)  min= -1.24288568757064E-01
DEBUG_STATS_RL:                  Gu (DYNAMICS)  max=  1.37780084009092E-01
DEBUG_STATS_RL:                  Gu (DYNAMICS) mean=  6.04121355853362E-03
DEBUG_STATS_RL:                  Gu (DYNAMICS) S.D.=  2.25606893738989E-02
DEBUG_STATS_RL:                  Gv (DYNAMICS)  min= -8.63386134088137E-02
DEBUG_STATS_RL:                  Gv (DYNAMICS)  max=  1.19089563469317E-01
DEBUG_STATS_RL:                  Gv (DYNAMICS) mean=  3.47964781009188E-03
DEBUG_STATS_RL:                  Gv (DYNAMICS) S.D.=  1.40259217758336E-02
DEBUG_STATS_RL:               GuNm1 (DYNAMICS)  min= -9.17301995386198E-06
DEBUG_STATS_RL:               GuNm1 (DYNAMICS)  max=  9.30940302300383E-06
DEBUG_STATS_RL:               GuNm1 (DYNAMICS) mean=  1.31844024929332E-08
DEBUG_STATS_RL:               GuNm1 (DYNAMICS) S.D.=  1.22166678450067E-06
DEBUG_STATS_RL:               GvNm1 (DYNAMICS)  min= -9.37627523600864E-06
DEBUG_STATS_RL:               GvNm1 (DYNAMICS)  max=  1.48797107038036E-05
DEBUG_STATS_RL:               GvNm1 (DYNAMICS) mean=  7.47300284324701E-07
DEBUG_STATS_RL:               GvNm1 (DYNAMICS) S.D.=  2.59253595440062E-06
DEBUG_STATS_RL:               GtNm1 (DYNAMICS)  min= -2.51442078292086E-06
DEBUG_STATS_RL:               GtNm1 (DYNAMICS)  max=  3.30513857207655E-06
DEBUG_STATS_RL:               GtNm1 (DYNAMICS) mean= -3.79767405277755E-09
DEBUG_STATS_RL:               GtNm1 (DYNAMICS) S.D.=  1.36236525731419E-07
DEBUG_STATS_RL:               GsNm1 (DYNAMICS)  min= -6.38508983198723E-07
DEBUG_STATS_RL:               GsNm1 (DYNAMICS)  max=  5.01246137255333E-07
DEBUG_STATS_RL:               GsNm1 (DYNAMICS) mean= -1.39528313002455E-10
DEBUG_STATS_RL:               GsNm1 (DYNAMICS) S.D.=  1.25476923278685E-08
DEBUG_STATS_RL:    cg2d_b (SOLVE_FOR_PRESSURE)  min= -2.54935116273145E+04
DEBUG_STATS_RL:    cg2d_b (SOLVE_FOR_PRESSURE)  max=  2.77152298057548E+04
DEBUG_STATS_RL:    cg2d_b (SOLVE_FOR_PRESSURE) mean=  5.54391642283403E+00
DEBUG_STATS_RL:    cg2d_b (SOLVE_FOR_PRESSURE) S.D.=  4.00249710220434E+03
 cg2d: Sum(rhs),rhsMax =   4.63072707995106E-01  1.82041049911086E+00
(PID.TID 0000.0001)  cg2d: iter=     1 ; resid.=  8.30474489236327E-02
(PID.TID 0000.0001)  cg2d: iter=     2 ; resid.=  8.80395505748776E-02
(PID.TID 0000.0001)  cg2d: iter=     3 ; resid.=  9.82487311019584E-02
(PID.TID 0000.0001)  cg2d: iter=     4 ; resid.=  8.12515862638457E-02
(PID.TID 0000.0001)  cg2d: iter=     5 ; resid.=  6.47879779873250E-02
(PID.TID 0000.0001)  cg2d: iter=     6 ; resid.=  4.80387140118621E-02
(PID.TID 0000.0001)  cg2d: iter=     7 ; resid.=  4.17060491806812E-02
(PID.TID 0000.0001)  cg2d: iter=     8 ; resid.=  4.02797904291695E-02
(PID.TID 0000.0001)  cg2d: iter=     9 ; resid.=  3.28482068165583E-02
(PID.TID 0000.0001)  cg2d: iter=    10 ; resid.=  2.62679207392724E-02
(PID.TID 0000.0001)  cg2d: iter=    11 ; resid.=  2.19874038751488E-02
(PID.TID 0000.0001)  cg2d: iter=    12 ; resid.=  1.54319139092856E-02
(PID.TID 0000.0001)  cg2d: iter=    13 ; resid.=  1.24494148935121E-02
(PID.TID 0000.0001)  cg2d: iter=    14 ; resid.=  1.17901489450873E-02
(PID.TID 0000.0001)  cg2d: iter=    15 ; resid.=  1.10657662438775E-02
(PID.TID 0000.0001)  cg2d: iter=    16 ; resid.=  8.89633312584137E-03
(PID.TID 0000.0001)  cg2d: iter=    17 ; resid.=  7.21842878974653E-03
(PID.TID 0000.0001)  cg2d: iter=    18 ; resid.=  5.85352960079697E-03
(PID.TID 0000.0001)  cg2d: iter=    19 ; resid.=  4.68978478443222E-03
(PID.TID 0000.0001)  cg2d: iter=    20 ; resid.=  3.87278704091779E-03
(PID.TID 0000.0001)  cg2d: iter=    21 ; resid.=  3.15300586536002E-03
(PID.TID 0000.0001)  cg2d: iter=    22 ; resid.=  2.63599683155258E-03
(PID.TID 0000.0001)  cg2d: iter=    23 ; resid.=  2.33626186789157E-03
(PID.TID 0000.0001)  cg2d: iter=    24 ; resid.=  2.11359955671683E-03
(PID.TID 0000.0001)  cg2d: iter=    25 ; resid.=  1.65090808321891E-03
(PID.TID 0000.0001)  cg2d: iter=    26 ; resid.=  1.24870738739934E-03
(PID.TID 0000.0001)  cg2d: iter=    27 ; resid.=  1.10355434443580E-03
(PID.TID 0000.0001)  cg2d: iter=    28 ; resid.=  9.49816465255667E-04
(PID.TID 0000.0001)  cg2d: iter=    29 ; resid.=  7.62279865342893E-04
(PID.TID 0000.0001)  cg2d: iter=    30 ; resid.=  6.53238268333585E-04
(PID.TID 0000.0001)  cg2d: iter=    31 ; resid.=  5.47335181978394E-04
(PID.TID 0000.0001)  cg2d: iter=    32 ; resid.=  4.11609444724133E-04
(PID.TID 0000.0001)  cg2d: iter=    33 ; resid.=  3.31715538886461E-04
(PID.TID 0000.0001)  cg2d: iter=    34 ; resid.=  2.70812754066389E-04
(PID.TID 0000.0001)  cg2d: iter=    35 ; resid.=  2.15830813550317E-04
(PID.TID 0000.0001)  cg2d: iter=    36 ; resid.=  1.65773852202276E-04
(PID.TID 0000.0001)  cg2d: iter=    37 ; resid.=  1.35990967332735E-04
(PID.TID 0000.0001)  cg2d: iter=    38 ; resid.=  1.23385502694276E-04
(PID.TID 0000.0001)  cg2d: iter=    39 ; resid.=  1.09886919036691E-04
(PID.TID 0000.0001)  cg2d: iter=    40 ; resid.=  9.78189011172313E-05
(PID.TID 0000.0001)  cg2d: iter=    41 ; resid.=  7.70945826219684E-05
(PID.TID 0000.0001)  cg2d: iter=    42 ; resid.=  6.94781978673868E-05
(PID.TID 0000.0001)  cg2d: iter=    43 ; resid.=  5.77288849205813E-05
(PID.TID 0000.0001)  cg2d: iter=    44 ; resid.=  4.51728658160963E-05
(PID.TID 0000.0001)  cg2d: iter=    45 ; resid.=  3.76101759731388E-05
(PID.TID 0000.0001)  cg2d: iter=    46 ; resid.=  3.21895086368115E-05
(PID.TID 0000.0001)  cg2d: iter=    47 ; resid.=  2.77757609523176E-05
(PID.TID 0000.0001)  cg2d: iter=    48 ; resid.=  2.42168484618597E-05
(PID.TID 0000.0001)  cg2d: iter=    49 ; resid.=  1.94893139425304E-05
(PID.TID 0000.0001)  cg2d: iter=    50 ; resid.=  1.63129281932251E-05
(PID.TID 0000.0001)  cg2d: iter=    51 ; resid.=  1.49702585888097E-05
(PID.TID 0000.0001)  cg2d: iter=    52 ; resid.=  1.38131797307040E-05
(PID.TID 0000.0001)  cg2d: iter=    53 ; resid.=  1.09299708650535E-05
(PID.TID 0000.0001)  cg2d: iter=    54 ; resid.=  8.70557520652189E-06
(PID.TID 0000.0001)  cg2d: iter=    55 ; resid.=  6.99603344966042E-06
(PID.TID 0000.0001)  cg2d: iter=    56 ; resid.=  5.70140951781288E-06
(PID.TID 0000.0001)  cg2d: iter=    57 ; resid.=  4.77342389142726E-06
(PID.TID 0000.0001)  cg2d: iter=    58 ; resid.=  3.85585574226934E-06
(PID.TID 0000.0001)  cg2d: iter=    59 ; resid.=  3.06086242989672E-06
(PID.TID 0000.0001)  cg2d: iter=    60 ; resid.=  2.50043909522246E-06
(PID.TID 0000.0001)  cg2d: iter=    61 ; resid.=  2.11565178085230E-06
(PID.TID 0000.0001)  cg2d: iter=    62 ; resid.=  1.84302282653264E-06
(PID.TID 0000.0001)  cg2d: iter=    63 ; resid.=  1.63370528255495E-06
(PID.TID 0000.0001)  cg2d: iter=    64 ; resid.=  1.43064002922833E-06
(PID.TID 0000.0001)  cg2d: iter=    65 ; resid.=  1.14081633524373E-06
(PID.TID 0000.0001)  cg2d: iter=    66 ; resid.=  9.26951088532777E-07
(PID.TID 0000.0001)  cg2d: iter=    67 ; resid.=  7.65026704045077E-07
(PID.TID 0000.0001)  cg2d: iter=    68 ; resid.=  6.17980466989970E-07
(PID.TID 0000.0001)  cg2d: iter=    69 ; resid.=  4.98721446161094E-07
(PID.TID 0000.0001)  cg2d: iter=    70 ; resid.=  4.39465025466756E-07
(PID.TID 0000.0001)  cg2d: iter=    71 ; resid.=  3.59042668204357E-07
(PID.TID 0000.0001)  cg2d: iter=    72 ; resid.=  2.96749669917741E-07
(PID.TID 0000.0001)  cg2d: iter=    73 ; resid.=  2.59417200566735E-07
(PID.TID 0000.0001)  cg2d: iter=    74 ; resid.=  2.17297800118714E-07
(PID.TID 0000.0001)  cg2d: iter=    75 ; resid.=  1.85227610516069E-07
(PID.TID 0000.0001)  cg2d: iter=    76 ; resid.=  1.58695718618872E-07
(PID.TID 0000.0001)  cg2d: iter=    77 ; resid.=  1.44762943567235E-07
(PID.TID 0000.0001)  cg2d: iter=    78 ; resid.=  1.16554428046622E-07
(PID.TID 0000.0001)  cg2d: iter=    79 ; resid.=  8.41041049940022E-08
(PID.TID 0000.0001)  cg2d: iter=    80 ; resid.=  6.02481738240783E-08
(PID.TID 0000.0001)  cg2d: iter=    81 ; resid.=  5.00512998221817E-08
(PID.TID 0000.0001)  cg2d: iter=    82 ; resid.=  3.83760225235317E-08
(PID.TID 0000.0001)  cg2d: iter=    83 ; resid.=  2.81565232731720E-08
(PID.TID 0000.0001)  cg2d: iter=    84 ; resid.=  1.99323250197798E-08
(PID.TID 0000.0001)  cg2d: iter=    85 ; resid.=  1.44169198722159E-08
(PID.TID 0000.0001)  cg2d: iter=    86 ; resid.=  1.19232771800305E-08
(PID.TID 0000.0001)  cg2d: iter=    87 ; resid.=  1.04168392536557E-08
(PID.TID 0000.0001)  cg2d: iter=    88 ; resid.=  7.87105162073216E-09
(PID.TID 0000.0001)  cg2d: iter=    89 ; resid.=  6.34083968227705E-09
(PID.TID 0000.0001)  cg2d: iter=    90 ; resid.=  5.27524605091011E-09
(PID.TID 0000.0001)  cg2d: iter=    91 ; resid.=  4.00287939876455E-09
(PID.TID 0000.0001)  cg2d: iter=    92 ; resid.=  2.82010124751788E-09
(PID.TID 0000.0001)  cg2d: iter=    93 ; resid.=  1.98952793830351E-09
(PID.TID 0000.0001)  cg2d: iter=    94 ; resid.=  1.37505724548599E-09
(PID.TID 0000.0001)  cg2d: iter=    95 ; resid.=  1.06181950304067E-09
(PID.TID 0000.0001)  cg2d: iter=    96 ; resid.=  8.47613525632761E-10
(PID.TID 0000.0001)  cg2d: iter=    97 ; resid.=  7.00219088920428E-10
(PID.TID 0000.0001)  cg2d: iter=    98 ; resid.=  5.36091849341055E-10
(PID.TID 0000.0001)  cg2d: iter=    99 ; resid.=  4.07213233382671E-10
(PID.TID 0000.0001)  cg2d: iter=   100 ; resid.=  3.33124573075706E-10
(PID.TID 0000.0001)  cg2d: iter=   101 ; resid.=  2.57070218165656E-10
(PID.TID 0000.0001)  cg2d: iter=   102 ; resid.=  2.19882249523563E-10
(PID.TID 0000.0001)  cg2d: iter=   103 ; resid.=  1.91843425420187E-10
(PID.TID 0000.0001)  cg2d: iter=   104 ; resid.=  1.55191354204067E-10
(PID.TID 0000.0001)  cg2d: iter=   105 ; resid.=  1.23415836970673E-10
(PID.TID 0000.0001)  cg2d: iter=   106 ; resid.=  1.04907519889333E-10
(PID.TID 0000.0001)  cg2d: iter=   107 ; resid.=  9.64577909588516E-11
(PID.TID 0000.0001)  cg2d: iter=   108 ; resid.=  8.02114908325417E-11
(PID.TID 0000.0001)  cg2d: iter=   109 ; resid.=  6.33997254967106E-11
(PID.TID 0000.0001)  cg2d: iter=   110 ; resid.=  4.70856243687656E-11
(PID.TID 0000.0001)  cg2d: iter=   111 ; resid.=  3.70256672477929E-11
(PID.TID 0000.0001)  cg2d: iter=   112 ; resid.=  3.15548277852392E-11
(PID.TID 0000.0001)  cg2d: iter=   113 ; resid.=  2.38237267977783E-11
(PID.TID 0000.0001)  cg2d: iter=   114 ; resid.=  1.67945089491534E-11
(PID.TID 0000.0001)  cg2d: iter=   115 ; resid.=  1.25067819647117E-11
(PID.TID 0000.0001)  cg2d: iter=   116 ; resid.=  9.68514115596744E-12
(PID.TID 0000.0001)  cg2d: iter=   117 ; resid.=  7.60339174499671E-12
(PID.TID 0000.0001)  cg2d: iter=   118 ; resid.=  5.71441273873239E-12
(PID.TID 0000.0001)  cg2d: iter=   119 ; resid.=  4.10921960660492E-12
(PID.TID 0000.0001)  cg2d: iter=   120 ; resid.=  3.01108512770169E-12
(PID.TID 0000.0001)  cg2d: iter=   121 ; resid.=  2.45174178199130E-12
(PID.TID 0000.0001)  cg2d: iter=   122 ; resid.=  2.03726755122888E-12
(PID.TID 0000.0001)  cg2d: iter=   123 ; resid.=  1.52621028888516E-12
(PID.TID 0000.0001)  cg2d: iter=   124 ; resid.=  1.04455245623159E-12
(PID.TID 0000.0001)  cg2d: iter=   125 ; resid.=  7.61418580476804E-13
(PID.TID 0000.0001)  cg2d: iter=   126 ; resid.=  5.65831272168627E-13
(PID.TID 0000.0001)  cg2d: iter=   127 ; resid.=  3.93502038625947E-13
(PID.TID 0000.0001)  cg2d: iter=   128 ; resid.=  2.91874451671955E-13
(PID.TID 0000.0001)  cg2d: iter=   129 ; resid.=  2.11734470385954E-13
(PID.TID 0000.0001)  cg2d: iter=   130 ; resid.=  1.47573256567699E-13
(PID.TID 0000.0001)  cg2d: iter=   131 ; resid.=  1.11069889535555E-13
(PID.TID 0000.0001)  cg2d: iter=   132 ; resid.=  9.46904118802128E-14
DEBUG_STATS_RL:    cg2d_x (SOLVE_FOR_PRESSURE)  min= -1.82915260503645E+01
DEBUG_STATS_RL:    cg2d_x (SOLVE_FOR_PRESSURE)  max=  8.98458529928730E+00
DEBUG_STATS_RL:    cg2d_x (SOLVE_FOR_PRESSURE) mean= -1.71634382465122E+00
DEBUG_STATS_RL:    cg2d_x (SOLVE_FOR_PRESSURE) S.D.=  6.98520214800000E+00
(PID.TID 0000.0001)      cg2d_init_res =   2.03841009861498E-01
(PID.TID 0000.0001)      cg2d_iters(min,last) =      -1     132
(PID.TID 0000.0001)      cg2d_last_res =   9.46904118802128E-14
(PID.TID 0000.0001) // =======================================================
(PID.TID 0000.0001) // Begin MONITOR dynamic field statistics
(PID.TID 0000.0001) // =======================================================
(PID.TID 0000.0001) %MON time_tsnumber                =                    98
(PID.TID 0000.0001) %MON time_secondsf                =   8.4672000000000E+06
(PID.TID 0000.0001) %MON dynstat_eta_max              =   9.1585986740951E-01
(PID.TID 0000.0001) %MON dynstat_eta_min              =  -1.8645796177742E+00
(PID.TID 0000.0001) %MON dynstat_eta_mean             =  -5.7843893642846E-03
(PID.TID 0000.0001) %MON dynstat_eta_sd               =   6.0347086308931E-01
(PID.TID 0000.0001) %MON dynstat_eta_del2             =   2.5529869885445E-03
(PID.TID 0000.0001) %MON dynstat_uvel_max             =   1.3302376239517E-01
(PID.TID 0000.0001) %MON dynstat_uvel_min             =  -1.2444753489856E-01
(PID.TID 0000.0001) %MON dynstat_uvel_mean            =   2.6457374117060E-03
(PID.TID 0000.0001) %MON dynstat_uvel_sd              =   1.3747650554773E-02
(PID.TID 0000.0001) %MON dynstat_uvel_del2            =   8.5316308103551E-05
(PID.TID 0000.0001) %MON dynstat_vvel_max             =   1.1869868067955E-01
(PID.TID 0000.0001) %MON dynstat_vvel_min             =  -8.9743315027630E-02
(PID.TID 0000.0001) %MON dynstat_vvel_mean            =  -1.6191420249046E-05
(PID.TID 0000.0001) %MON dynstat_vvel_sd              =   7.7685731773520E-03
(PID.TID 0000.0001) %MON dynstat_vvel_del2            =   7.8761748271270E-05
(PID.TID 0000.0001) %MON dynstat_wvel_max             =   9.0422475856218E-05
(PID.TID 0000.0001) %MON dynstat_wvel_min             =  -6.9413197637963E-05
(PID.TID 0000.0001) %MON dynstat_wvel_mean            =  -1.5548940022572E-22
(PID.TID 0000.0001) %MON dynstat_wvel_sd              =   9.2640427680404E-06
(PID.TID 0000.0001) %MON dynstat_wvel_del2            =   9.7707207266013E-08
(PID.TID 0000.0001) %MON dynstat_theta_max            =   3.0189286573596E+01
(PID.TID 0000.0001) %MON dynstat_theta_min            =  -1.9037202535781E+00
(PID.TID 0000.0001) %MON dynstat_theta_mean           =   3.6216957292441E+00
(PID.TID 0000.0001) %MON dynstat_theta_sd             =   4.4237286996142E+00
(PID.TID 0000.0001) %MON dynstat_theta_del2           =   4.5404803342482E-03
(PID.TID 0000.0001) %MON dynstat_salt_max             =   3.7440019205567E+01
(PID.TID 0000.0001) %MON dynstat_salt_min             =   2.9946415504579E+01
(PID.TID 0000.0001) %MON dynstat_salt_mean            =   3.4717262604664E+01
(PID.TID 0000.0001) %MON dynstat_salt_sd              =   2.9614109913721E-01
(PID.TID 0000.0001) %MON dynstat_salt_del2            =   9.5332349554761E-04
(PID.TID 0000.0001) %MON dynstat_sst_max              =   3.0189286573596E+01
(PID.TID 0000.0001) %MON dynstat_sst_min              =  -1.9037202535781E+00
(PID.TID 0000.0001) %MON dynstat_sst_mean             =   1.8740033448611E+01
(PID.TID 0000.0001) %MON dynstat_sst_sd               =   9.4358469258016E+00
(PID.TID 0000.0001) %MON dynstat_sst_del2             =   2.2680800485017E-02
(PID.TID 0000.0001) %MON dynstat_sss_max              =   3.7411562798370E+01
(PID.TID 0000.0001) %MON dynstat_sss_min              =   2.9946415504579E+01
(PID.TID 0000.0001) %MON dynstat_sss_mean             =   3.4838329813115E+01
(PID.TID 0000.0001) %MON dynstat_sss_sd               =   9.8658487876051E-01
(PID.TID 0000.0001) %MON dynstat_sss_del2             =   7.5559926361933E-03
(PID.TID 0000.0001) %MON forcing_qnet_max             =   1.7099252522786E+02
(PID.TID 0000.0001) %MON forcing_qnet_min             =  -1.5443967183431E+02
(PID.TID 0000.0001) %MON forcing_qnet_mean            =   1.4697354471873E+00
(PID.TID 0000.0001) %MON forcing_qnet_sd              =   4.1898539270687E+01
(PID.TID 0000.0001) %MON forcing_qnet_del2            =   7.9096758072099E-01
(PID.TID 0000.0001) %MON forcing_qsw_max              =   0.0000000000000E+00
(PID.TID 0000.0001) %MON forcing_qsw_min              =   0.0000000000000E+00
(PID.TID 0000.0001) %MON forcing_qsw_mean             =   0.0000000000000E+00
(PID.TID 0000.0001) %MON forcing_qsw_sd               =   0.0000000000000E+00
(PID.TID 0000.0001) %MON forcing_qsw_del2             =   0.0000000000000E+00
(PID.TID 0000.0001) %MON forcing_empmr_max            =   6.6993059514668E-05
(PID.TID 0000.0001) %MON forcing_empmr_min            =  -8.3591031341257E-05
(PID.TID 0000.0001) %MON forcing_empmr_mean           =   5.6913027472259E-08
(PID.TID 0000.0001) %MON forcing_empmr_sd             =   2.5506549223614E-05
(PID.TID 0000.0001) %MON forcing_empmr_del2           =   3.6847966604449E-07
(PID.TID 0000.0001) %MON forcing_fu_max               =   3.4444528222084E-01
(PID.TID 0000.0001) %MON forcing_fu_min               =  -4.0908400416374E-01
(PID.TID 0000.0001) %MON forcing_fu_mean              =   1.7658503167866E-02
(PID.TID 0000.0001) %MON forcing_fu_sd                =   1.0136293778860E-01
(PID.TID 0000.0001) %MON forcing_fu_del2              =   7.9668426587324E-04
(PID.TID 0000.0001) %MON forcing_fv_max               =   1.8118831912676E-01
(PID.TID 0000.0001) %MON forcing_fv_min               =  -1.4509931405385E-01
(PID.TID 0000.0001) %MON forcing_fv_mean              =  -6.7270886478379E-03
(PID.TID 0000.0001) %MON forcing_fv_sd                =   3.8931335911595E-02
(PID.TID 0000.0001) %MON forcing_fv_del2              =   4.2395820174704E-04
(PID.TID 0000.0001) %MON trAdv_CFL_u_max              =   4.6625121985324E-02
(PID.TID 0000.0001) %MON trAdv_CFL_v_max              =   2.3227746879368E-02
(PID.TID 0000.0001) %MON trAdv_CFL_w_max              =   2.4549325133318E-02
(PID.TID 0000.0001) %MON advcfl_uvel_max              =   4.6871199162438E-02
(PID.TID 0000.0001) %MON advcfl_vvel_max              =   2.3061249958072E-02
(PID.TID 0000.0001) %MON advcfl_wvel_max              =   2.2648838081080E-02
(PID.TID 0000.0001) %MON advcfl_W_hf_max              =   2.7178605697296E-02
(PID.TID 0000.0001) %MON pe_b_mean                    =   4.6605128750706E-04
(PID.TID 0000.0001) %MON ke_max                       =   9.6265353133022E-03
(PID.TID 0000.0001) %MON ke_mean                      =   1.1613898226407E-04
(PID.TID 0000.0001) %MON ke_vol                       =   1.3226782436723E+18
(PID.TID 0000.0001) %MON vort_r_min                   =  -3.7062741771841E-07
(PID.TID 0000.0001) %MON vort_r_max                   =   3.6323219227827E-07
(PID.TID 0000.0001) %MON vort_a_mean                  =  -2.5274806299045E-05
(PID.TID 0000.0001) %MON vort_a_sd                    =   7.3604714642997E-05
(PID.TID 0000.0001) %MON vort_p_mean                  =  -3.1845654415507E-05
(PID.TID 0000.0001) %MON vort_p_sd                    =   1.3162505890828E-04
(PID.TID 0000.0001) %MON surfExpan_theta_mean         =   2.5391364829220E-07
(PID.TID 0000.0001) %MON surfExpan_salt_mean          =  -5.3347430240898E-08
(PID.TID 0000.0001) // =======================================================
(PID.TID 0000.0001) // End MONITOR dynamic field statistics
(PID.TID 0000.0001) // =======================================================
 EXTERNAL_FIELDS_LOAD,        98 : iP,iLd,i0,i1=    3    4    3    4 ; Wght=  0.2333333333  0.7666666667
 EXTERNAL_FIELDS_LOAD: (fu0,1),fu,fv= -2.7199E-02 -3.7252E-02 -3.4906E-02 -2.7134E-02
 EXTERNAL_FIELDS_LOAD: SST,SSS,Q,E-P= -1.5820E-02  3.4571E+01  1.3008E+02  8.0751E-06
DEBUG_STATS_RL:          Uvel (THERMODYNAMICS)  min= -1.24447534898559E-01
DEBUG_STATS_RL:          Uvel (THERMODYNAMICS)  max=  1.33023762395168E-01
DEBUG_STATS_RL:          Uvel (THERMODYNAMICS) mean=  6.08997898310104E-03
DEBUG_STATS_RL:          Uvel (THERMODYNAMICS) S.D.=  2.21241070490124E-02
DEBUG_STATS_RL:          Vvel (THERMODYNAMICS)  min= -8.97433150276298E-02
DEBUG_STATS_RL:          Vvel (THERMODYNAMICS)  max=  1.18698680679550E-01
DEBUG_STATS_RL:          Vvel (THERMODYNAMICS) mean=  7.84050828902024E-04
DEBUG_STATS_RL:          Vvel (THERMODYNAMICS) S.D.=  1.24498976340287E-02
DEBUG_STATS_RL:          Wvel (THERMODYNAMICS)  min= -6.94131976379633E-05
DEBUG_STATS_RL:          Wvel (THERMODYNAMICS)  max=  9.04224758562175E-05
DEBUG_STATS_RL:          Wvel (THERMODYNAMICS) mean= -4.47962958562363E-08
DEBUG_STATS_RL:          Wvel (THERMODYNAMICS) S.D.=  8.19689174396467E-06
DEBUG_STATS_RL:         Theta (THERMODYNAMICS)  min= -1.90383114986318E+00
DEBUG_STATS_RL:         Theta (THERMODYNAMICS)  max=  3.01986137396013E+01
DEBUG_STATS_RL:         Theta (THERMODYNAMICS) mean=  3.20755372843966E+00
DEBUG_STATS_RL:         Theta (THERMODYNAMICS) S.D.=  5.87258157369454E+00
DEBUG_STATS_RL:          Salt (THERMODYNAMICS)  min= -6.86352596184166E-04
DEBUG_STATS_RL:          Salt (THERMODYNAMICS)  max=  3.74406342024566E+01
DEBUG_STATS_RL:          Salt (THERMODYNAMICS) mean=  1.88440768798901E+01
DEBUG_STATS_RL:          Salt (THERMODYNAMICS) S.D.=  1.73003061188310E+01
DEBUG_STATS_RL:         GtNm1 (THERMODYNAMICS)  min= -1.65883009156974E-06
DEBUG_STATS_RL:         GtNm1 (THERMODYNAMICS)  max=  2.08657580669397E-06
DEBUG_STATS_RL:         GtNm1 (THERMODYNAMICS) mean= -4.22409471004809E-09
DEBUG_STATS_RL:         GtNm1 (THERMODYNAMICS) S.D.=  1.34351883385230E-07
DEBUG_STATS_RL:         GsNm1 (THERMODYNAMICS)  min= -4.82583645785180E-07
DEBUG_STATS_RL:         GsNm1 (THERMODYNAMICS)  max=  2.75915305898745E-07
DEBUG_STATS_RL:         GsNm1 (THERMODYNAMICS) mean= -1.17334486642124E-10
DEBUG_STATS_RL:         GsNm1 (THERMODYNAMICS) S.D.=  1.17425438978855E-08
DEBUG_STATS_RL:                EtaN (DYNAMICS)  min= -1.86457961777416E+00
DEBUG_STATS_RL:                EtaN (DYNAMICS)  max=  9.15859867409508E-01
DEBUG_STATS_RL:                EtaN (DYNAMICS) mean= -1.74958595785039E-01
DEBUG_STATS_RL:                EtaN (DYNAMICS) S.D.=  7.12049148623855E-01
DEBUG_STATS_RL:                Uvel (DYNAMICS)  min= -1.24447534898559E-01
DEBUG_STATS_RL:                Uvel (DYNAMICS)  max=  1.33023762395168E-01
DEBUG_STATS_RL:                Uvel (DYNAMICS) mean=  6.08997898310104E-03
DEBUG_STATS_RL:                Uvel (DYNAMICS) S.D.=  2.21241070490124E-02
DEBUG_STATS_RL:                Vvel (DYNAMICS)  min= -8.97433150276298E-02
DEBUG_STATS_RL:                Vvel (DYNAMICS)  max=  1.18698680679550E-01
DEBUG_STATS_RL:                Vvel (DYNAMICS) mean=  7.84050828902024E-04
DEBUG_STATS_RL:                Vvel (DYNAMICS) S.D.=  1.24498976340287E-02
DEBUG_STATS_RL:                Wvel (DYNAMICS)  min= -6.94131976379633E-05
DEBUG_STATS_RL:                Wvel (DYNAMICS)  max=  9.04224758562175E-05
DEBUG_STATS_RL:                Wvel (DYNAMICS) mean= -4.47962958562363E-08
DEBUG_STATS_RL:                Wvel (DYNAMICS) S.D.=  8.19689174396467E-06
DEBUG_STATS_RL:               Theta (DYNAMICS)  min= -1.90383114986318E+00
DEBUG_STATS_RL:               Theta (DYNAMICS)  max=  3.01986137396013E+01
DEBUG_STATS_RL:               Theta (DYNAMICS) mean=  3.20755372843966E+00
DEBUG_STATS_RL:               Theta (DYNAMICS) S.D.=  5.87258157369454E+00
DEBUG_STATS_RL:                Salt (DYNAMICS)  min= -6.86352596184166E-04
DEBUG_STATS_RL:                Salt (DYNAMICS)  max=  3.74406342024566E+01
DEBUG_STATS_RL:                Salt (DYNAMICS) mean=  1.88440768798901E+01
DEBUG_STATS_RL:                Salt (DYNAMICS) S.D.=  1.73003061188310E+01
DEBUG_STATS_RL:                  Gu (DYNAMICS)  min= -1.23432147480625E-01
DEBUG_STATS_RL:                  Gu (DYNAMICS)  max=  1.39814351591422E-01
DEBUG_STATS_RL:                  Gu (DYNAMICS) mean=  6.15052697794012E-03
DEBUG_STATS_RL:                  Gu (DYNAMICS) S.D.=  2.27346831197131E-02
DEBUG_STATS_RL:                  Gv (DYNAMICS)  min= -8.66523061485167E-02
DEBUG_STATS_RL:                  Gv (DYNAMICS)  max=  1.17999110870407E-01
DEBUG_STATS_RL:                  Gv (DYNAMICS) mean=  3.43663997098118E-03
DEBUG_STATS_RL:                  Gv (DYNAMICS) S.D.=  1.39519478305194E-02
DEBUG_STATS_RL:               GuNm1 (DYNAMICS)  min= -9.21596622235001E-06
DEBUG_STATS_RL:               GuNm1 (DYNAMICS)  max=  9.36365847313068E-06
DEBUG_STATS_RL:               GuNm1 (DYNAMICS) mean=  1.32241012893251E-08
DEBUG_STATS_RL:               GuNm1 (DYNAMICS) S.D.=  1.22186243342782E-06
DEBUG_STATS_RL:               GvNm1 (DYNAMICS)  min= -9.40484649790830E-06
DEBUG_STATS_RL:               GvNm1 (DYNAMICS)  max=  1.48574728868798E-05
DEBUG_STATS_RL:               GvNm1 (DYNAMICS) mean=  7.47716551022666E-07
DEBUG_STATS_RL:               GvNm1 (DYNAMICS) S.D.=  2.59109861642658E-06
DEBUG_STATS_RL:               GtNm1 (DYNAMICS)  min= -1.65883009156974E-06
DEBUG_STATS_RL:               GtNm1 (DYNAMICS)  max=  2.08657580669397E-06
DEBUG_STATS_RL:               GtNm1 (DYNAMICS) mean= -4.22409471004809E-09
DEBUG_STATS_RL:               GtNm1 (DYNAMICS) S.D.=  1.34351883385230E-07
DEBUG_STATS_RL:               GsNm1 (DYNAMICS)  min= -4.82583645785180E-07
DEBUG_STATS_RL:               GsNm1 (DYNAMICS)  max=  2.75915305898745E-07
DEBUG_STATS_RL:               GsNm1 (DYNAMICS) mean= -1.17334486642124E-10
DEBUG_STATS_RL:               GsNm1 (DYNAMICS) S.D.=  1.17425438978855E-08
DEBUG_STATS_RL:    cg2d_b (SOLVE_FOR_PRESSURE)  min= -2.58179458258769E+04
DEBUG_STATS_RL:    cg2d_b (SOLVE_FOR_PRESSURE)  max=  2.79487502059750E+04
DEBUG_STATS_RL:    cg2d_b (SOLVE_FOR_PRESSURE) mean=  5.54667410608698E+00
DEBUG_STATS_RL:    cg2d_b (SOLVE_FOR_PRESSURE) S.D.=  4.00618068086137E+03
 cg2d: Sum(rhs),rhsMax =   4.59432012557373E-01  1.83574874423085E+00
(PID.TID 0000.0001)  cg2d: iter=     1 ; resid.=  1.09489450237865E-01
(PID.TID 0000.0001)  cg2d: iter=     2 ; resid.=  1.60093476777951E-01
(PID.TID 0000.0001)  cg2d: iter=     3 ; resid.=  1.64716254229559E-01
(PID.TID 0000.0001)  cg2d: iter=     4 ; resid.=  1.24260089925680E-01
(PID.TID 0000.0001)  cg2d: iter=     5 ; resid.=  1.04528650152975E-01
(PID.TID 0000.0001)  cg2d: iter=     6 ; resid.=  8.43322076326544E-02
(PID.TID 0000.0001)  cg2d: iter=     7 ; resid.=  6.58161237695999E-02
(PID.TID 0000.0001)  cg2d: iter=     8 ; resid.=  5.49790626012867E-02
(PID.TID 0000.0001)  cg2d: iter=     9 ; resid.=  4.56463720495141E-02
(PID.TID 0000.0001)  cg2d: iter=    10 ; resid.=  3.60020608408550E-02
(PID.TID 0000.0001)  cg2d: iter=    11 ; resid.=  2.76951657199064E-02
(PID.TID 0000.0001)  cg2d: iter=    12 ; resid.=  2.06975676882342E-02
(PID.TID 0000.0001)  cg2d: iter=    13 ; resid.=  1.73140879630381E-02
(PID.TID 0000.0001)  cg2d: iter=    14 ; resid.=  1.55722977655952E-02
(PID.TID 0000.0001)  cg2d: iter=    15 ; resid.=  1.44059502018916E-02
(PID.TID 0000.0001)  cg2d: iter=    16 ; resid.=  1.26859394306835E-02
(PID.TID 0000.0001)  cg2d: iter=    17 ; resid.=  1.06839433515747E-02
(PID.TID 0000.0001)  cg2d: iter=    18 ; resid.=  8.55229220431537E-03
(PID.TID 0000.0001)  cg2d: iter=    19 ; resid.=  6.37385165234702E-03
(PID.TID 0000.0001)  cg2d: iter=    20 ; resid.=  5.27717129689090E-03
(PID.TID 0000.0001)  cg2d: iter=    21 ; resid.=  4.53407545683892E-03
(PID.TID 0000.0001)  cg2d: iter=    22 ; resid.=  4.14760677873740E-03
(PID.TID 0000.0001)  cg2d: iter=    23 ; resid.=  3.62720175678435E-03
(PID.TID 0000.0001)  cg2d: iter=    24 ; resid.=  2.99729545476517E-03
(PID.TID 0000.0001)  cg2d: iter=    25 ; resid.=  2.25213706590070E-03
(PID.TID 0000.0001)  cg2d: iter=    26 ; resid.=  1.79857751444170E-03
(PID.TID 0000.0001)  cg2d: iter=    27 ; resid.=  1.51085283085704E-03
(PID.TID 0000.0001)  cg2d: iter=    28 ; resid.=  1.25686604408985E-03
(PID.TID 0000.0001)  cg2d: iter=    29 ; resid.=  9.85495791549131E-04
(PID.TID 0000.0001)  cg2d: iter=    30 ; resid.=  8.38351747053883E-04
(PID.TID 0000.0001)  cg2d: iter=    31 ; resid.=  6.80606122828495E-04
(PID.TID 0000.0001)  cg2d: iter=    32 ; resid.=  5.13460157570833E-04
(PID.TID 0000.0001)  cg2d: iter=    33 ; resid.=  4.23036643682420E-04
(PID.TID 0000.0001)  cg2d: iter=    34 ; resid.=  3.62053254695975E-04
(PID.TID 0000.0001)  cg2d: iter=    35 ; resid.=  2.99987684545687E-04
(PID.TID 0000.0001)  cg2d: iter=    36 ; resid.=  2.46534419592717E-04
(PID.TID 0000.0001)  cg2d: iter=    37 ; resid.=  2.18234120711114E-04
(PID.TID 0000.0001)  cg2d: iter=    38 ; resid.=  2.02853437408408E-04
(PID.TID 0000.0001)  cg2d: iter=    39 ; resid.=  1.66161341184313E-04
(PID.TID 0000.0001)  cg2d: iter=    40 ; resid.=  1.44953500431825E-04
(PID.TID 0000.0001)  cg2d: iter=    41 ; resid.=  1.15829446206476E-04
(PID.TID 0000.0001)  cg2d: iter=    42 ; resid.=  1.03422600115143E-04
(PID.TID 0000.0001)  cg2d: iter=    43 ; resid.=  7.72621916357538E-05
(PID.TID 0000.0001)  cg2d: iter=    44 ; resid.=  5.70448263961116E-05
(PID.TID 0000.0001)  cg2d: iter=    45 ; resid.=  4.75230719141401E-05
(PID.TID 0000.0001)  cg2d: iter=    46 ; resid.=  4.37057925658058E-05
(PID.TID 0000.0001)  cg2d: iter=    47 ; resid.=  3.89986539992118E-05
(PID.TID 0000.0001)  cg2d: iter=    48 ; resid.=  3.48378794550919E-05
(PID.TID 0000.0001)  cg2d: iter=    49 ; resid.=  2.81547976617125E-05
(PID.TID 0000.0001)  cg2d: iter=    50 ; resid.=  2.38778001501498E-05
(PID.TID 0000.0001)  cg2d: iter=    51 ; resid.=  2.19688721552983E-05
(PID.TID 0000.0001)  cg2d: iter=    52 ; resid.=  1.96072171332705E-05
(PID.TID 0000.0001)  cg2d: iter=    53 ; resid.=  1.47554855699342E-05
(PID.TID 0000.0001)  cg2d: iter=    54 ; resid.=  1.19649129199001E-05
(PID.TID 0000.0001)  cg2d: iter=    55 ; resid.=  9.52817138524693E-06
(PID.TID 0000.0001)  cg2d: iter=    56 ; resid.=  7.68359256205856E-06
(PID.TID 0000.0001)  cg2d: iter=    57 ; resid.=  6.38826751675040E-06
(PID.TID 0000.0001)  cg2d: iter=    58 ; resid.=  5.29963898778152E-06
(PID.TID 0000.0001)  cg2d: iter=    59 ; resid.=  4.22863435131522E-06
(PID.TID 0000.0001)  cg2d: iter=    60 ; resid.=  3.50326065646074E-06
(PID.TID 0000.0001)  cg2d: iter=    61 ; resid.=  3.00172120948258E-06
(PID.TID 0000.0001)  cg2d: iter=    62 ; resid.=  2.61061912664381E-06
(PID.TID 0000.0001)  cg2d: iter=    63 ; resid.=  2.20076617028531E-06
(PID.TID 0000.0001)  cg2d: iter=    64 ; resid.=  1.90794946852005E-06
(PID.TID 0000.0001)  cg2d: iter=    65 ; resid.=  1.46575930447011E-06
(PID.TID 0000.0001)  cg2d: iter=    66 ; resid.=  1.15243207452305E-06
(PID.TID 0000.0001)  cg2d: iter=    67 ; resid.=  9.49175445561596E-07
(PID.TID 0000.0001)  cg2d: iter=    68 ; resid.=  8.19098972697166E-07
(PID.TID 0000.0001)  cg2d: iter=    69 ; resid.=  7.07713845081190E-07
(PID.TID 0000.0001)  cg2d: iter=    70 ; resid.=  6.33267331687824E-07
(PID.TID 0000.0001)  cg2d: iter=    71 ; resid.=  5.33214597567949E-07
(PID.TID 0000.0001)  cg2d: iter=    72 ; resid.=  4.80998253309685E-07
(PID.TID 0000.0001)  cg2d: iter=    73 ; resid.=  4.21024858890618E-07
(PID.TID 0000.0001)  cg2d: iter=    74 ; resid.=  3.21909521456619E-07
(PID.TID 0000.0001)  cg2d: iter=    75 ; resid.=  2.56820073839078E-07
(PID.TID 0000.0001)  cg2d: iter=    76 ; resid.=  2.04243924589489E-07
(PID.TID 0000.0001)  cg2d: iter=    77 ; resid.=  1.74594074122317E-07
(PID.TID 0000.0001)  cg2d: iter=    78 ; resid.=  1.37736726211471E-07
(PID.TID 0000.0001)  cg2d: iter=    79 ; resid.=  9.93063148328414E-08
(PID.TID 0000.0001)  cg2d: iter=    80 ; resid.=  7.04944569920703E-08
(PID.TID 0000.0001)  cg2d: iter=    81 ; resid.=  5.59137214619192E-08
(PID.TID 0000.0001)  cg2d: iter=    82 ; resid.=  4.19018906913200E-08
(PID.TID 0000.0001)  cg2d: iter=    83 ; resid.=  3.20938053058137E-08
(PID.TID 0000.0001)  cg2d: iter=    84 ; resid.=  2.52950427733430E-08
(PID.TID 0000.0001)  cg2d: iter=    85 ; resid.=  1.83521959669290E-08
(PID.TID 0000.0001)  cg2d: iter=    86 ; resid.=  1.42392599798280E-08
(PID.TID 0000.0001)  cg2d: iter=    87 ; resid.=  1.22838592332447E-08
(PID.TID 0000.0001)  cg2d: iter=    88 ; resid.=  9.57445346372095E-09
(PID.TID 0000.0001)  cg2d: iter=    89 ; resid.=  7.55008063248143E-09
(PID.TID 0000.0001)  cg2d: iter=    90 ; resid.=  6.10565442427167E-09
(PID.TID 0000.0001)  cg2d: iter=    91 ; resid.=  4.51024006303833E-09
(PID.TID 0000.0001)  cg2d: iter=    92 ; resid.=  3.11202588275111E-09
(PID.TID 0000.0001)  cg2d: iter=    93 ; resid.=  2.13153296459106E-09
(PID.TID 0000.0001)  cg2d: iter=    94 ; resid.=  1.49897501261516E-09
(PID.TID 0000.0001)  cg2d: iter=    95 ; resid.=  1.17042726515915E-09
(PID.TID 0000.0001)  cg2d: iter=    96 ; resid.=  9.24429047957211E-10
(PID.TID 0000.0001)  cg2d: iter=    97 ; resid.=  7.39594946679672E-10
(PID.TID 0000.0001)  cg2d: iter=    98 ; resid.=  5.80404501977019E-10
(PID.TID 0000.0001)  cg2d: iter=    99 ; resid.=  4.87640755936619E-10
(PID.TID 0000.0001)  cg2d: iter=   100 ; resid.=  4.45102207670919E-10
(PID.TID 0000.0001)  cg2d: iter=   101 ; resid.=  3.57582377678636E-10
(PID.TID 0000.0001)  cg2d: iter=   102 ; resid.=  2.98622246755076E-10
(PID.TID 0000.0001)  cg2d: iter=   103 ; resid.=  2.56016552737347E-10
(PID.TID 0000.0001)  cg2d: iter=   104 ; resid.=  2.17076960700277E-10
(PID.TID 0000.0001)  cg2d: iter=   105 ; resid.=  1.68799610307051E-10
(PID.TID 0000.0001)  cg2d: iter=   106 ; resid.=  1.31827589608089E-10
(PID.TID 0000.0001)  cg2d: iter=   107 ; resid.=  1.06154128079705E-10
(PID.TID 0000.0001)  cg2d: iter=   108 ; resid.=  8.11976575908934E-11
(PID.TID 0000.0001)  cg2d: iter=   109 ; resid.=  6.82591620287083E-11
(PID.TID 0000.0001)  cg2d: iter=   110 ; resid.=  5.68026449270166E-11
(PID.TID 0000.0001)  cg2d: iter=   111 ; resid.=  4.51356311850676E-11
(PID.TID 0000.0001)  cg2d: iter=   112 ; resid.=  3.78045430742319E-11
(PID.TID 0000.0001)  cg2d: iter=   113 ; resid.=  2.87030075158374E-11
(PID.TID 0000.0001)  cg2d: iter=   114 ; resid.=  2.12085990147001E-11
(PID.TID 0000.0001)  cg2d: iter=   115 ; resid.=  1.61420592237575E-11
(PID.TID 0000.0001)  cg2d: iter=   116 ; resid.=  1.24843396067996E-11
(PID.TID 0000.0001)  cg2d: iter=   117 ; resid.=  9.04348032993863E-12
(PID.TID 0000.0001)  cg2d: iter=   118 ; resid.=  6.07111793051999E-12
(PID.TID 0000.0001)  cg2d: iter=   119 ; resid.=  3.88705259458581E-12
(PID.TID 0000.0001)  cg2d: iter=   120 ; resid.=  2.71742387792527E-12
(PID.TID 0000.0001)  cg2d: iter=   121 ; resid.=  2.11304439537462E-12
(PID.TID 0000.0001)  cg2d: iter=   122 ; resid.=  1.59300563767051E-12
(PID.TID 0000.0001)  cg2d: iter=   123 ; resid.=  1.13922330067281E-12
(PID.TID 0000.0001)  cg2d: iter=   124 ; resid.=  8.24436311873110E-13
(PID.TID 0000.0001)  cg2d: iter=   125 ; resid.=  6.13556415646893E-13
(PID.TID 0000.0001)  cg2d: iter=   126 ; resid.=  4.67185236044628E-13
(PID.TID 0000.0001)  cg2d: iter=   127 ; resid.=  3.36829889559276E-13
(PID.TID 0000.0001)  cg2d: iter=   128 ; resid.=  2.53327585522060E-13
(PID.TID 0000.0001)  cg2d: iter=   129 ; resid.=  1.97765357493118E-13
(PID.TID 0000.0001)  cg2d: iter=   130 ; resid.=  1.61311261016499E-13
(PID.TID 0000.0001)  cg2d: iter=   131 ; resid.=  1.32840349186436E-13
(PID.TID 0000.0001)  cg2d: iter=   132 ; resid.=  1.10174128498161E-13
(PID.TID 0000.0001)  cg2d: iter=   133 ; resid.=  8.50555418971066E-14
DEBUG_STATS_RL:    cg2d_x (SOLVE_FOR_PRESSURE)  min= -1.82329242913851E+01
DEBUG_STATS_RL:    cg2d_x (SOLVE_FOR_PRESSURE)  max=  8.83951258113138E+00
DEBUG_STATS_RL:    cg2d_x (SOLVE_FOR_PRESSURE) mean= -1.74627468580672E+00
DEBUG_STATS_RL:    cg2d_x (SOLVE_FOR_PRESSURE) S.D.=  6.99123023542226E+00
(PID.TID 0000.0001)      cg2d_init_res =   2.06743397528574E-01
(PID.TID 0000.0001)      cg2d_iters(min,last) =      -1     133
(PID.TID 0000.0001)      cg2d_last_res =   8.50555418971066E-14
(PID.TID 0000.0001) // =======================================================
(PID.TID 0000.0001) // Begin MONITOR dynamic field statistics
(PID.TID 0000.0001) // =======================================================
(PID.TID 0000.0001) %MON time_tsnumber                =                    99
(PID.TID 0000.0001) %MON time_secondsf                =   8.5536000000000E+06
(PID.TID 0000.0001) %MON dynstat_eta_max              =   9.0107161887170E-01
(PID.TID 0000.0001) %MON dynstat_eta_min              =  -1.8586059420371E+00
(PID.TID 0000.0001) %MON dynstat_eta_mean             =  -5.7872666648191E-03
(PID.TID 0000.0001) %MON dynstat_eta_sd               =   6.0452791512456E-01
(PID.TID 0000.0001) %MON dynstat_eta_del2             =   2.5543146343108E-03
(PID.TID 0000.0001) %MON dynstat_uvel_max             =   1.3685989484801E-01
(PID.TID 0000.0001) %MON dynstat_uvel_min             =  -1.2351993420513E-01
(PID.TID 0000.0001) %MON dynstat_uvel_mean            =   2.7416046862617E-03
(PID.TID 0000.0001) %MON dynstat_uvel_sd              =   1.3856784159928E-02
(PID.TID 0000.0001) %MON dynstat_uvel_del2            =   8.4803779317902E-05
(PID.TID 0000.0001) %MON dynstat_vvel_max             =   1.1761097287074E-01
(PID.TID 0000.0001) %MON dynstat_vvel_min             =  -9.0213469482714E-02
(PID.TID 0000.0001) %MON dynstat_vvel_mean            =  -4.7594449930127E-05
(PID.TID 0000.0001) %MON dynstat_vvel_sd              =   7.7073971737970E-03
(PID.TID 0000.0001) %MON dynstat_vvel_del2            =   7.8093189425729E-05
(PID.TID 0000.0001) %MON dynstat_wvel_max             =   8.7451036721817E-05
(PID.TID 0000.0001) %MON dynstat_wvel_min             =  -7.0498384938009E-05
(PID.TID 0000.0001) %MON dynstat_wvel_mean            =  -4.9188231123182E-23
(PID.TID 0000.0001) %MON dynstat_wvel_sd              =   9.3560727156141E-06
(PID.TID 0000.0001) %MON dynstat_wvel_del2            =   9.9378777233510E-08
(PID.TID 0000.0001) %MON dynstat_theta_max            =   3.0198613739601E+01
(PID.TID 0000.0001) %MON dynstat_theta_min            =  -1.9038311498632E+00
(PID.TID 0000.0001) %MON dynstat_theta_mean           =   3.6216621075386E+00
(PID.TID 0000.0001) %MON dynstat_theta_sd             =   4.4236844337407E+00
(PID.TID 0000.0001) %MON dynstat_theta_del2           =   4.5342115658083E-03
(PID.TID 0000.0001) %MON dynstat_salt_max             =   3.7440634202457E+01
(PID.TID 0000.0001) %MON dynstat_salt_min             =   2.9949113154955E+01
(PID.TID 0000.0001) %MON dynstat_salt_mean            =   3.4717266313689E+01
(PID.TID 0000.0001) %MON dynstat_salt_sd              =   2.9614170245256E-01
(PID.TID 0000.0001) %MON dynstat_salt_del2            =   9.5246377440916E-04
(PID.TID 0000.0001) %MON dynstat_sst_max              =   3.0198613739601E+01
(PID.TID 0000.0001) %MON dynstat_sst_min              =  -1.9038311498632E+00
(PID.TID 0000.0001) %MON dynstat_sst_mean             =   1.8734344867401E+01
(PID.TID 0000.0001) %MON dynstat_sst_sd               =   9.4441146466908E+00
(PID.TID 0000.0001) %MON dynstat_sst_del2             =   2.2604556301471E-02
(PID.TID 0000.0001) %MON dynstat_sss_max              =   3.7412134048599E+01
(PID.TID 0000.0001) %MON dynstat_sss_min              =   2.9949113154955E+01
(PID.TID 0000.0001) %MON dynstat_sss_mean             =   3.4838216524615E+01
(PID.TID 0000.0001) %MON dynstat_sss_sd               =   9.8675255338188E-01
(PID.TID 0000.0001) %MON dynstat_sss_del2             =   7.5456942745966E-03
(PID.TID 0000.0001) %MON forcing_qnet_max             =   1.6628729044596E+02
(PID.TID 0000.0001) %MON forcing_qnet_min             =  -1.5401167551676E+02
(PID.TID 0000.0001) %MON forcing_qnet_mean            =   1.8667718761569E+00
(PID.TID 0000.0001) %MON forcing_qnet_sd              =   4.2543345917318E+01
(PID.TID 0000.0001) %MON forcing_qnet_del2            =   7.9400470474141E-01
(PID.TID 0000.0001) %MON forcing_qsw_max              =   0.0000000000000E+00
(PID.TID 0000.0001) %MON forcing_qsw_min              =   0.0000000000000E+00
(PID.TID 0000.0001) %MON forcing_qsw_mean             =   0.0000000000000E+00
(PID.TID 0000.0001) %MON forcing_qsw_sd               =   0.0000000000000E+00
(PID.TID 0000.0001) %MON forcing_qsw_del2             =   0.0000000000000E+00
(PID.TID 0000.0001) %MON forcing_empmr_max            =   6.6896888502773E-05
(PID.TID 0000.0001) %MON forcing_empmr_min            =  -8.3605877421178E-05
(PID.TID 0000.0001) %MON forcing_empmr_mean           =   3.4467662644683E-08
(PID.TID 0000.0001) %MON forcing_empmr_sd             =   2.5512895431700E-05
(PID.TID 0000.0001) %MON forcing_empmr_del2           =   3.6941383160522E-07
(PID.TID 0000.0001) %MON forcing_fu_max               =   3.4395322799683E-01
(PID.TID 0000.0001) %MON forcing_fu_min               =  -4.1001707613468E-01
(PID.TID 0000.0001) %MON forcing_fu_mean              =   1.7531311070933E-02
(PID.TID 0000.0001) %MON forcing_fu_sd                =   1.0160162235513E-01
(PID.TID 0000.0001) %MON forcing_fu_del2              =   8.0229753052437E-04
(PID.TID 0000.0001) %MON forcing_fv_max               =   1.8109231789907E-01
(PID.TID 0000.0001) %MON forcing_fv_min               =  -1.4540471682946E-01
(PID.TID 0000.0001) %MON forcing_fv_mean              =  -6.6906119754649E-03
(PID.TID 0000.0001) %MON forcing_fv_sd                =   3.9065099338649E-02
(PID.TID 0000.0001) %MON forcing_fv_del2              =   4.2781951918176E-04
(PID.TID 0000.0001) %MON trAdv_CFL_u_max              =   4.6880719038216E-02
(PID.TID 0000.0001) %MON trAdv_CFL_v_max              =   2.3023771867015E-02
(PID.TID 0000.0001) %MON trAdv_CFL_w_max              =   2.7178605697296E-02
(PID.TID 0000.0001) %MON advcfl_uvel_max              =   4.6951467811203E-02
(PID.TID 0000.0001) %MON advcfl_vvel_max              =   2.2849925775557E-02
(PID.TID 0000.0001) %MON advcfl_wvel_max              =   2.4496490915534E-02
(PID.TID 0000.0001) %MON advcfl_W_hf_max              =   2.9395789098641E-02
(PID.TID 0000.0001) %MON pe_b_mean                    =   4.6768530004978E-04
(PID.TID 0000.0001) %MON ke_max                       =   9.9743377996512E-03
(PID.TID 0000.0001) %MON ke_mean                      =   1.1731813720146E-04
(PID.TID 0000.0001) %MON ke_vol                       =   1.3226782436723E+18
(PID.TID 0000.0001) %MON vort_r_min                   =  -3.6779094924681E-07
(PID.TID 0000.0001) %MON vort_r_max                   =   3.6418306150650E-07
(PID.TID 0000.0001) %MON vort_a_mean                  =  -2.5274806273860E-05
(PID.TID 0000.0001) %MON vort_a_sd                    =   7.3604731598102E-05
(PID.TID 0000.0001) %MON vort_p_mean                  =  -3.1845654383774E-05
(PID.TID 0000.0001) %MON vort_p_sd                    =   1.3162520142438E-04
(PID.TID 0000.0001) %MON surfExpan_theta_mean         =   5.4584335177380E-07
(PID.TID 0000.0001) %MON surfExpan_salt_mean          =  -1.3006922278129E-07
(PID.TID 0000.0001) // =======================================================
(PID.TID 0000.0001) // End MONITOR dynamic field statistics
(PID.TID 0000.0001) // =======================================================
 EXTERNAL_FIELDS_LOAD,        99 : iP,iLd,i0,i1=    3    4    3    4 ; Wght=  0.2000000000  0.8000000000
 EXTERNAL_FIELDS_LOAD: (fu0,1),fu,fv= -2.7199E-02 -3.7252E-02 -3.5241E-02 -2.8288E-02
 EXTERNAL_FIELDS_LOAD: SST,SSS,Q,E-P= -8.5119E-03  3.4571E+01  1.2637E+02  8.0314E-06
DEBUG_STATS_RL:          Uvel (THERMODYNAMICS)  min= -1.23519934205134E-01
DEBUG_STATS_RL:          Uvel (THERMODYNAMICS)  max=  1.36859894848010E-01
DEBUG_STATS_RL:          Uvel (THERMODYNAMICS) mean=  6.20209233934459E-03
DEBUG_STATS_RL:          Uvel (THERMODYNAMICS) S.D.=  2.22821143465628E-02
DEBUG_STATS_RL:          Vvel (THERMODYNAMICS)  min= -9.02134694827140E-02
DEBUG_STATS_RL:          Vvel (THERMODYNAMICS)  max=  1.17610972870743E-01
DEBUG_STATS_RL:          Vvel (THERMODYNAMICS) mean=  7.49458615244863E-04
DEBUG_STATS_RL:          Vvel (THERMODYNAMICS) S.D.=  1.23729597532958E-02
DEBUG_STATS_RL:          Wvel (THERMODYNAMICS)  min= -7.04983849380085E-05
DEBUG_STATS_RL:          Wvel (THERMODYNAMICS)  max=  8.74510367218171E-05
DEBUG_STATS_RL:          Wvel (THERMODYNAMICS) mean= -5.09229235132585E-08
DEBUG_STATS_RL:          Wvel (THERMODYNAMICS) S.D.=  8.30894635098670E-06
DEBUG_STATS_RL:         Theta (THERMODYNAMICS)  min= -1.90395186374291E+00
DEBUG_STATS_RL:         Theta (THERMODYNAMICS)  max=  3.02075298731167E+01
DEBUG_STATS_RL:         Theta (THERMODYNAMICS) mean=  3.20726060343141E+00
DEBUG_STATS_RL:         Theta (THERMODYNAMICS) S.D.=  5.87238449960554E+00
DEBUG_STATS_RL:          Salt (THERMODYNAMICS)  min= -6.86352596184166E-04
DEBUG_STATS_RL:          Salt (THERMODYNAMICS)  max=  3.74413781018556E+01
DEBUG_STATS_RL:          Salt (THERMODYNAMICS) mean=  1.88440772164157E+01
DEBUG_STATS_RL:          Salt (THERMODYNAMICS) S.D.=  1.73003067217670E+01
DEBUG_STATS_RL:         GtNm1 (THERMODYNAMICS)  min= -1.83473068632980E-06
DEBUG_STATS_RL:         GtNm1 (THERMODYNAMICS)  max=  2.48480772403965E-06
DEBUG_STATS_RL:         GtNm1 (THERMODYNAMICS) mean= -4.62764354550311E-09
DEBUG_STATS_RL:         GtNm1 (THERMODYNAMICS) S.D.=  1.34875480352724E-07
DEBUG_STATS_RL:         GsNm1 (THERMODYNAMICS)  min= -5.69497063326092E-07
DEBUG_STATS_RL:         GsNm1 (THERMODYNAMICS)  max=  2.96919225862679E-07
DEBUG_STATS_RL:         GsNm1 (THERMODYNAMICS) mean= -9.43683976394316E-11
DEBUG_STATS_RL:         GsNm1 (THERMODYNAMICS) S.D.=  1.18070214944610E-08
DEBUG_STATS_RL:                EtaN (DYNAMICS)  min= -1.85860594203707E+00
DEBUG_STATS_RL:                EtaN (DYNAMICS)  max=  9.01071618871698E-01
DEBUG_STATS_RL:                EtaN (DYNAMICS) mean= -1.78009651968067E-01
DEBUG_STATS_RL:                EtaN (DYNAMICS) S.D.=  7.12663632560884E-01
DEBUG_STATS_RL:                Uvel (DYNAMICS)  min= -1.23519934205134E-01
DEBUG_STATS_RL:                Uvel (DYNAMICS)  max=  1.36859894848010E-01
DEBUG_STATS_RL:                Uvel (DYNAMICS) mean=  6.20209233934459E-03
DEBUG_STATS_RL:                Uvel (DYNAMICS) S.D.=  2.22821143465628E-02
DEBUG_STATS_RL:                Vvel (DYNAMICS)  min= -9.02134694827140E-02
DEBUG_STATS_RL:                Vvel (DYNAMICS)  max=  1.17610972870743E-01
DEBUG_STATS_RL:                Vvel (DYNAMICS) mean=  7.49458615244863E-04
DEBUG_STATS_RL:                Vvel (DYNAMICS) S.D.=  1.23729597532958E-02
DEBUG_STATS_RL:                Wvel (DYNAMICS)  min= -7.04983849380085E-05
DEBUG_STATS_RL:                Wvel (DYNAMICS)  max=  8.74510367218171E-05
DEBUG_STATS_RL:                Wvel (DYNAMICS) mean= -5.09229235132585E-08
DEBUG_STATS_RL:                Wvel (DYNAMICS) S.D.=  8.30894635098670E-06
DEBUG_STATS_RL:               Theta (DYNAMICS)  min= -1.90395186374291E+00
DEBUG_STATS_RL:               Theta (DYNAMICS)  max=  3.02075298731167E+01
DEBUG_STATS_RL:               Theta (DYNAMICS) mean=  3.20726060343141E+00
DEBUG_STATS_RL:               Theta (DYNAMICS) S.D.=  5.87238449960554E+00
DEBUG_STATS_RL:                Salt (DYNAMICS)  min= -6.86352596184166E-04
DEBUG_STATS_RL:                Salt (DYNAMICS)  max=  3.74413781018556E+01
DEBUG_STATS_RL:                Salt (DYNAMICS) mean=  1.88440772164157E+01
DEBUG_STATS_RL:                Salt (DYNAMICS) S.D.=  1.73003067217670E+01
DEBUG_STATS_RL:                  Gu (DYNAMICS)  min= -1.22506575804166E-01
DEBUG_STATS_RL:                  Gu (DYNAMICS)  max=  1.41637048582978E-01
DEBUG_STATS_RL:                  Gu (DYNAMICS) mean=  6.26057586313818E-03
DEBUG_STATS_RL:                  Gu (DYNAMICS) S.D.=  2.29320456326184E-02
DEBUG_STATS_RL:                  Gv (DYNAMICS)  min= -8.67423598307341E-02
DEBUG_STATS_RL:                  Gv (DYNAMICS)  max=  1.16874246626906E-01
DEBUG_STATS_RL:                  Gv (DYNAMICS) mean=  3.40009873515639E-03
DEBUG_STATS_RL:                  Gv (DYNAMICS) S.D.=  1.39362651624745E-02
DEBUG_STATS_RL:               GuNm1 (DYNAMICS)  min= -9.25957354472314E-06
DEBUG_STATS_RL:               GuNm1 (DYNAMICS)  max=  9.41518891829904E-06
DEBUG_STATS_RL:               GuNm1 (DYNAMICS) mean=  1.31489315807706E-08
DEBUG_STATS_RL:               GuNm1 (DYNAMICS) S.D.=  1.22217650411441E-06
DEBUG_STATS_RL:               GvNm1 (DYNAMICS)  min= -9.43712730799356E-06
DEBUG_STATS_RL:               GvNm1 (DYNAMICS)  max=  1.48411621650718E-05
DEBUG_STATS_RL:               GvNm1 (DYNAMICS) mean=  7.47941446121437E-07
DEBUG_STATS_RL:               GvNm1 (DYNAMICS) S.D.=  2.58979066332121E-06
DEBUG_STATS_RL:               GtNm1 (DYNAMICS)  min= -1.83473068632980E-06
DEBUG_STATS_RL:               GtNm1 (DYNAMICS)  max=  2.48480772403965E-06
DEBUG_STATS_RL:               GtNm1 (DYNAMICS) mean= -4.62764354550311E-09
DEBUG_STATS_RL:               GtNm1 (DYNAMICS) S.D.=  1.34875480352724E-07
DEBUG_STATS_RL:               GsNm1 (DYNAMICS)  min= -5.69497063326092E-07
DEBUG_STATS_RL:               GsNm1 (DYNAMICS)  max=  2.96919225862679E-07
DEBUG_STATS_RL:               GsNm1 (DYNAMICS) mean= -9.43683976394316E-11
DEBUG_STATS_RL:               GsNm1 (DYNAMICS) S.D.=  1.18070214944610E-08
DEBUG_STATS_RL:    cg2d_b (SOLVE_FOR_PRESSURE)  min= -2.61996478170145E+04
DEBUG_STATS_RL:    cg2d_b (SOLVE_FOR_PRESSURE)  max=  2.83690996862893E+04
DEBUG_STATS_RL:    cg2d_b (SOLVE_FOR_PRESSURE) mean=  5.54763598417329E+00
DEBUG_STATS_RL:    cg2d_b (SOLVE_FOR_PRESSURE) S.D.=  4.01021386406441E+03
 cg2d: Sum(rhs),rhsMax =   4.52703027074476E-01  1.86335842355240E+00
(PID.TID 0000.0001)  cg2d: iter=     1 ; resid.=  1.43764934845145E-01
(PID.TID 0000.0001)  cg2d: iter=     2 ; resid.=  2.02093133897754E-01
(PID.TID 0000.0001)  cg2d: iter=     3 ; resid.=  1.93474833582862E-01
(PID.TID 0000.0001)  cg2d: iter=     4 ; resid.=  1.52624795740761E-01
(PID.TID 0000.0001)  cg2d: iter=     5 ; resid.=  1.41675029630053E-01
(PID.TID 0000.0001)  cg2d: iter=     6 ; resid.=  1.01649809686554E-01
(PID.TID 0000.0001)  cg2d: iter=     7 ; resid.=  7.86735967533246E-02
(PID.TID 0000.0001)  cg2d: iter=     8 ; resid.=  6.05857946615623E-02
(PID.TID 0000.0001)  cg2d: iter=     9 ; resid.=  5.02932351847075E-02
(PID.TID 0000.0001)  cg2d: iter=    10 ; resid.=  4.06975866529318E-02
(PID.TID 0000.0001)  cg2d: iter=    11 ; resid.=  3.30227552094790E-02
(PID.TID 0000.0001)  cg2d: iter=    12 ; resid.=  2.44821973190196E-02
(PID.TID 0000.0001)  cg2d: iter=    13 ; resid.=  1.99636140846641E-02
(PID.TID 0000.0001)  cg2d: iter=    14 ; resid.=  1.84892110716143E-02
(PID.TID 0000.0001)  cg2d: iter=    15 ; resid.=  1.66793121885017E-02
(PID.TID 0000.0001)  cg2d: iter=    16 ; resid.=  1.52581969873867E-02
(PID.TID 0000.0001)  cg2d: iter=    17 ; resid.=  1.35518406168844E-02
(PID.TID 0000.0001)  cg2d: iter=    18 ; resid.=  1.06745100845367E-02
(PID.TID 0000.0001)  cg2d: iter=    19 ; resid.=  7.46389932776163E-03
(PID.TID 0000.0001)  cg2d: iter=    20 ; resid.=  6.55901929120577E-03
(PID.TID 0000.0001)  cg2d: iter=    21 ; resid.=  5.59251466440590E-03
(PID.TID 0000.0001)  cg2d: iter=    22 ; resid.=  5.03438574908379E-03
(PID.TID 0000.0001)  cg2d: iter=    23 ; resid.=  4.35101887471696E-03
(PID.TID 0000.0001)  cg2d: iter=    24 ; resid.=  3.65685837422831E-03
(PID.TID 0000.0001)  cg2d: iter=    25 ; resid.=  2.58340950357158E-03
(PID.TID 0000.0001)  cg2d: iter=    26 ; resid.=  2.07716923571817E-03
(PID.TID 0000.0001)  cg2d: iter=    27 ; resid.=  1.72308431859258E-03
(PID.TID 0000.0001)  cg2d: iter=    28 ; resid.=  1.48631860448748E-03
(PID.TID 0000.0001)  cg2d: iter=    29 ; resid.=  1.10782017678372E-03
(PID.TID 0000.0001)  cg2d: iter=    30 ; resid.=  9.84976625520423E-04
(PID.TID 0000.0001)  cg2d: iter=    31 ; resid.=  7.90155267193228E-04
(PID.TID 0000.0001)  cg2d: iter=    32 ; resid.=  6.13473786692315E-04
(PID.TID 0000.0001)  cg2d: iter=    33 ; resid.=  5.16054557645410E-04
(PID.TID 0000.0001)  cg2d: iter=    34 ; resid.=  4.57112393439531E-04
(PID.TID 0000.0001)  cg2d: iter=    35 ; resid.=  3.67509332328834E-04
(PID.TID 0000.0001)  cg2d: iter=    36 ; resid.=  3.16544247148964E-04
(PID.TID 0000.0001)  cg2d: iter=    37 ; resid.=  2.88962121589140E-04
(PID.TID 0000.0001)  cg2d: iter=    38 ; resid.=  2.58899466539885E-04
(PID.TID 0000.0001)  cg2d: iter=    39 ; resid.=  1.95157033414715E-04
(PID.TID 0000.0001)  cg2d: iter=    40 ; resid.=  1.73363645794487E-04
(PID.TID 0000.0001)  cg2d: iter=    41 ; resid.=  1.40320795966412E-04
(PID.TID 0000.0001)  cg2d: iter=    42 ; resid.=  1.24305264817871E-04
(PID.TID 0000.0001)  cg2d: iter=    43 ; resid.=  8.97566327404922E-05
(PID.TID 0000.0001)  cg2d: iter=    44 ; resid.=  6.65284688257498E-05
(PID.TID 0000.0001)  cg2d: iter=    45 ; resid.=  5.48310361946299E-05
(PID.TID 0000.0001)  cg2d: iter=    46 ; resid.=  5.29172655579800E-05
(PID.TID 0000.0001)  cg2d: iter=    47 ; resid.=  4.86813583447536E-05
(PID.TID 0000.0001)  cg2d: iter=    48 ; resid.=  4.36319561808176E-05
(PID.TID 0000.0001)  cg2d: iter=    49 ; resid.=  3.55797126640640E-05
(PID.TID 0000.0001)  cg2d: iter=    50 ; resid.=  3.05792301585203E-05
(PID.TID 0000.0001)  cg2d: iter=    51 ; resid.=  2.65691114352263E-05
(PID.TID 0000.0001)  cg2d: iter=    52 ; resid.=  2.28633742471093E-05
(PID.TID 0000.0001)  cg2d: iter=    53 ; resid.=  1.76742717157535E-05
(PID.TID 0000.0001)  cg2d: iter=    54 ; resid.=  1.44930792149446E-05
(PID.TID 0000.0001)  cg2d: iter=    55 ; resid.=  1.13455322535585E-05
(PID.TID 0000.0001)  cg2d: iter=    56 ; resid.=  9.29720957729198E-06
(PID.TID 0000.0001)  cg2d: iter=    57 ; resid.=  7.47325533770785E-06
(PID.TID 0000.0001)  cg2d: iter=    58 ; resid.=  5.91885635383583E-06
(PID.TID 0000.0001)  cg2d: iter=    59 ; resid.=  4.88162231005991E-06
(PID.TID 0000.0001)  cg2d: iter=    60 ; resid.=  4.17508841828429E-06
(PID.TID 0000.0001)  cg2d: iter=    61 ; resid.=  3.44066806663897E-06
(PID.TID 0000.0001)  cg2d: iter=    62 ; resid.=  2.94727009075608E-06
(PID.TID 0000.0001)  cg2d: iter=    63 ; resid.=  2.59631389568252E-06
(PID.TID 0000.0001)  cg2d: iter=    64 ; resid.=  2.25284514362588E-06
(PID.TID 0000.0001)  cg2d: iter=    65 ; resid.=  1.68019995546624E-06
(PID.TID 0000.0001)  cg2d: iter=    66 ; resid.=  1.36219265474713E-06
(PID.TID 0000.0001)  cg2d: iter=    67 ; resid.=  1.17412024881462E-06
(PID.TID 0000.0001)  cg2d: iter=    68 ; resid.=  1.01027459474915E-06
(PID.TID 0000.0001)  cg2d: iter=    69 ; resid.=  9.10725186042045E-07
(PID.TID 0000.0001)  cg2d: iter=    70 ; resid.=  7.72231079925409E-07
(PID.TID 0000.0001)  cg2d: iter=    71 ; resid.=  6.40179858022010E-07
(PID.TID 0000.0001)  cg2d: iter=    72 ; resid.=  5.92630206381498E-07
(PID.TID 0000.0001)  cg2d: iter=    73 ; resid.=  5.08234015658523E-07
(PID.TID 0000.0001)  cg2d: iter=    74 ; resid.=  3.61415643999966E-07
(PID.TID 0000.0001)  cg2d: iter=    75 ; resid.=  2.85447794043299E-07
(PID.TID 0000.0001)  cg2d: iter=    76 ; resid.=  2.19002904284510E-07
(PID.TID 0000.0001)  cg2d: iter=    77 ; resid.=  1.80013234354384E-07
(PID.TID 0000.0001)  cg2d: iter=    78 ; resid.=  1.43404921157613E-07
(PID.TID 0000.0001)  cg2d: iter=    79 ; resid.=  1.11474129954392E-07
(PID.TID 0000.0001)  cg2d: iter=    80 ; resid.=  8.09365364923047E-08
(PID.TID 0000.0001)  cg2d: iter=    81 ; resid.=  6.18564545202398E-08
(PID.TID 0000.0001)  cg2d: iter=    82 ; resid.=  4.72435811447334E-08
(PID.TID 0000.0001)  cg2d: iter=    83 ; resid.=  3.67858855723796E-08
(PID.TID 0000.0001)  cg2d: iter=    84 ; resid.=  2.79506902969678E-08
(PID.TID 0000.0001)  cg2d: iter=    85 ; resid.=  1.96678716671025E-08
(PID.TID 0000.0001)  cg2d: iter=    86 ; resid.=  1.54259186821930E-08
(PID.TID 0000.0001)  cg2d: iter=    87 ; resid.=  1.29354733510167E-08
(PID.TID 0000.0001)  cg2d: iter=    88 ; resid.=  1.00968515370726E-08
(PID.TID 0000.0001)  cg2d: iter=    89 ; resid.=  8.00362179189967E-09
(PID.TID 0000.0001)  cg2d: iter=    90 ; resid.=  6.37275889419811E-09
(PID.TID 0000.0001)  cg2d: iter=    91 ; resid.=  4.87562389884984E-09
(PID.TID 0000.0001)  cg2d: iter=    92 ; resid.=  3.57310738660346E-09
(PID.TID 0000.0001)  cg2d: iter=    93 ; resid.=  2.39816043751236E-09
(PID.TID 0000.0001)  cg2d: iter=    94 ; resid.=  1.72412459803013E-09
(PID.TID 0000.0001)  cg2d: iter=    95 ; resid.=  1.41681162415093E-09
(PID.TID 0000.0001)  cg2d: iter=    96 ; resid.=  1.07634582001026E-09
(PID.TID 0000.0001)  cg2d: iter=    97 ; resid.=  8.04773616797244E-10
(PID.TID 0000.0001)  cg2d: iter=    98 ; resid.=  6.47021167677957E-10
(PID.TID 0000.0001)  cg2d: iter=    99 ; resid.=  5.45260567222965E-10
(PID.TID 0000.0001)  cg2d: iter=   100 ; resid.=  4.79883488722052E-10
(PID.TID 0000.0001)  cg2d: iter=   101 ; resid.=  3.79841189833501E-10
(PID.TID 0000.0001)  cg2d: iter=   102 ; resid.=  3.18210446642560E-10
(PID.TID 0000.0001)  cg2d: iter=   103 ; resid.=  2.62828500413685E-10
(PID.TID 0000.0001)  cg2d: iter=   104 ; resid.=  2.30673769858253E-10
(PID.TID 0000.0001)  cg2d: iter=   105 ; resid.=  1.90148482412066E-10
(PID.TID 0000.0001)  cg2d: iter=   106 ; resid.=  1.52406834562719E-10
(PID.TID 0000.0001)  cg2d: iter=   107 ; resid.=  1.19238537183306E-10
(PID.TID 0000.0001)  cg2d: iter=   108 ; resid.=  9.16681276724511E-11
(PID.TID 0000.0001)  cg2d: iter=   109 ; resid.=  7.75548443429006E-11
(PID.TID 0000.0001)  cg2d: iter=   110 ; resid.=  6.40413056485636E-11
(PID.TID 0000.0001)  cg2d: iter=   111 ; resid.=  5.02872259828731E-11
(PID.TID 0000.0001)  cg2d: iter=   112 ; resid.=  4.12646837580801E-11
(PID.TID 0000.0001)  cg2d: iter=   113 ; resid.=  3.04285859310243E-11
(PID.TID 0000.0001)  cg2d: iter=   114 ; resid.=  2.31003370210008E-11
(PID.TID 0000.0001)  cg2d: iter=   115 ; resid.=  1.76625033456135E-11
(PID.TID 0000.0001)  cg2d: iter=   116 ; resid.=  1.37988155343980E-11
(PID.TID 0000.0001)  cg2d: iter=   117 ; resid.=  1.04319223061087E-11
(PID.TID 0000.0001)  cg2d: iter=   118 ; resid.=  7.49445720864609E-12
(PID.TID 0000.0001)  cg2d: iter=   119 ; resid.=  5.11429256579370E-12
(PID.TID 0000.0001)  cg2d: iter=   120 ; resid.=  3.92433177515236E-12
(PID.TID 0000.0001)  cg2d: iter=   121 ; resid.=  3.25564559040535E-12
(PID.TID 0000.0001)  cg2d: iter=   122 ; resid.=  2.48839578619443E-12
(PID.TID 0000.0001)  cg2d: iter=   123 ; resid.=  1.77659018348711E-12
(PID.TID 0000.0001)  cg2d: iter=   124 ; resid.=  1.30552448490420E-12
(PID.TID 0000.0001)  cg2d: iter=   125 ; resid.=  9.52113307860975E-13
(PID.TID 0000.0001)  cg2d: iter=   126 ; resid.=  6.61184237658572E-13
(PID.TID 0000.0001)  cg2d: iter=   127 ; resid.=  4.49146748015537E-13
(PID.TID 0000.0001)  cg2d: iter=   128 ; resid.=  3.17660566119200E-13
(PID.TID 0000.0001)  cg2d: iter=   129 ; resid.=  2.37515052256260E-13
(PID.TID 0000.0001)  cg2d: iter=   130 ; resid.=  1.83628621344748E-13
(PID.TID 0000.0001)  cg2d: iter=   131 ; resid.=  1.41025513538094E-13
(PID.TID 0000.0001)  cg2d: iter=   132 ; resid.=  1.15806073547588E-13
(PID.TID 0000.0001)  cg2d: iter=   133 ; resid.=  8.92992087768315E-14
DEBUG_STATS_RL:    cg2d_x (SOLVE_FOR_PRESSURE)  min= -1.83719446220354E+01
DEBUG_STATS_RL:    cg2d_x (SOLVE_FOR_PRESSURE)  max=  8.05535648273849E+00
DEBUG_STATS_RL:    cg2d_x (SOLVE_FOR_PRESSURE) mean= -1.78641394712846E+00
DEBUG_STATS_RL:    cg2d_x (SOLVE_FOR_PRESSURE) S.D.=  7.02937943668492E+00
(PID.TID 0000.0001)      cg2d_init_res =   2.10080912808091E-01
(PID.TID 0000.0001)      cg2d_iters(min,last) =      -1     133
(PID.TID 0000.0001)      cg2d_last_res =   8.92992087768315E-14
(PID.TID 0000.0001) // =======================================================
(PID.TID 0000.0001) // Begin MONITOR dynamic field statistics
(PID.TID 0000.0001) // =======================================================
(PID.TID 0000.0001) %MON time_tsnumber                =                   100
(PID.TID 0000.0001) %MON time_secondsf                =   8.6400000000000E+06
(PID.TID 0000.0001) %MON dynstat_eta_max              =   8.2113725614051E-01
(PID.TID 0000.0001) %MON dynstat_eta_min              =  -1.8727772295653E+00
(PID.TID 0000.0001) %MON dynstat_eta_mean             =  -5.7882702653324E-03
(PID.TID 0000.0001) %MON dynstat_eta_sd               =   6.0922375001771E-01
(PID.TID 0000.0001) %MON dynstat_eta_del2             =   2.5549838732742E-03
(PID.TID 0000.0001) %MON dynstat_uvel_max             =   1.3977684674448E-01
(PID.TID 0000.0001) %MON dynstat_uvel_min             =  -1.2251565774046E-01
(PID.TID 0000.0001) %MON dynstat_uvel_mean            =   2.8373448674388E-03
(PID.TID 0000.0001) %MON dynstat_uvel_sd              =   1.3991306803022E-02
(PID.TID 0000.0001) %MON dynstat_uvel_del2            =   8.4643027141116E-05
(PID.TID 0000.0001) %MON dynstat_vvel_max             =   1.1654456770619E-01
(PID.TID 0000.0001) %MON dynstat_vvel_min             =  -9.0505389737473E-02
(PID.TID 0000.0001) %MON dynstat_vvel_mean            =  -7.7366543468065E-05
(PID.TID 0000.0001) %MON dynstat_vvel_sd              =   7.7000282579900E-03
(PID.TID 0000.0001) %MON dynstat_vvel_del2            =   7.7581051511370E-05
(PID.TID 0000.0001) %MON dynstat_wvel_max             =   8.8098540333460E-05
(PID.TID 0000.0001) %MON dynstat_wvel_min             =  -7.8379921672030E-05
(PID.TID 0000.0001) %MON dynstat_wvel_mean            =  -2.1765706258547E-23
(PID.TID 0000.0001) %MON dynstat_wvel_sd              =   9.4861218743810E-06
(PID.TID 0000.0001) %MON dynstat_wvel_del2            =   1.0072205893609E-07
(PID.TID 0000.0001) %MON dynstat_theta_max            =   3.0207529873117E+01
(PID.TID 0000.0001) %MON dynstat_theta_min            =  -1.9039518637429E+00
(PID.TID 0000.0001) %MON dynstat_theta_mean           =   3.6216207748338E+00
(PID.TID 0000.0001) %MON dynstat_theta_sd             =   4.4236170119809E+00
(PID.TID 0000.0001) %MON dynstat_theta_del2           =   4.5284617406781E-03
(PID.TID 0000.0001) %MON dynstat_salt_max             =   3.7441378101856E+01
(PID.TID 0000.0001) %MON dynstat_salt_min             =   2.9950640110105E+01
(PID.TID 0000.0001) %MON dynstat_salt_mean            =   3.4717271707256E+01
(PID.TID 0000.0001) %MON dynstat_salt_sd              =   2.9614618897644E-01
(PID.TID 0000.0001) %MON dynstat_salt_del2            =   9.5159184793194E-04
(PID.TID 0000.0001) %MON dynstat_sst_max              =   3.0207529873117E+01
(PID.TID 0000.0001) %MON dynstat_sst_min              =  -1.9039518637429E+00
(PID.TID 0000.0001) %MON dynstat_sst_mean             =   1.8728500471824E+01
(PID.TID 0000.0001) %MON dynstat_sst_sd               =   9.4524403748417E+00
(PID.TID 0000.0001) %MON dynstat_sst_del2             =   2.2532987410092E-02
(PID.TID 0000.0001) %MON dynstat_sss_max              =   3.7412667108383E+01
(PID.TID 0000.0001) %MON dynstat_sss_min              =   2.9950640110105E+01
(PID.TID 0000.0001) %MON dynstat_sss_mean             =   3.4838103515740E+01
(PID.TID 0000.0001) %MON dynstat_sss_sd               =   9.8692134083451E-01
(PID.TID 0000.0001) %MON dynstat_sss_del2             =   7.5347575937118E-03
(PID.TID 0000.0001) %MON forcing_qnet_max             =   1.6158205566406E+02
(PID.TID 0000.0001) %MON forcing_qnet_min             =  -1.5358367919922E+02
(PID.TID 0000.0001) %MON forcing_qnet_mean            =   2.2638083051266E+00
(PID.TID 0000.0001) %MON forcing_qnet_sd              =   4.3251861816584E+01
(PID.TID 0000.0001) %MON forcing_qnet_del2            =   7.9754295620117E-01
(PID.TID 0000.0001) %MON forcing_qsw_max              =   0.0000000000000E+00
(PID.TID 0000.0001) %MON forcing_qsw_min              =   0.0000000000000E+00
(PID.TID 0000.0001) %MON forcing_qsw_mean             =   0.0000000000000E+00
(PID.TID 0000.0001) %MON forcing_qsw_sd               =   0.0000000000000E+00
(PID.TID 0000.0001) %MON forcing_qsw_del2             =   0.0000000000000E+00
(PID.TID 0000.0001) %MON forcing_empmr_max            =   6.6800717490878E-05
(PID.TID 0000.0001) %MON forcing_empmr_min            =  -8.3620723501099E-05
(PID.TID 0000.0001) %MON forcing_empmr_mean           =   1.2022297817123E-08
(PID.TID 0000.0001) %MON forcing_empmr_sd             =   2.5522928542606E-05
(PID.TID 0000.0001) %MON forcing_empmr_del2           =   3.7041876953226E-07
(PID.TID 0000.0001) %MON forcing_fu_max               =   3.4346117377281E-01
(PID.TID 0000.0001) %MON forcing_fu_min               =  -4.1095014810562E-01
(PID.TID 0000.0001) %MON forcing_fu_mean              =   1.7404118974000E-02
(PID.TID 0000.0001) %MON forcing_fu_sd                =   1.0186347478370E-01
(PID.TID 0000.0001) %MON forcing_fu_del2              =   8.0856311401579E-04
(PID.TID 0000.0001) %MON forcing_fv_max               =   1.8099631667137E-01
(PID.TID 0000.0001) %MON forcing_fv_min               =  -1.4571011960506E-01
(PID.TID 0000.0001) %MON forcing_fv_mean              =  -6.6541353030919E-03
(PID.TID 0000.0001) %MON forcing_fv_sd                =   3.9225413743387E-02
(PID.TID 0000.0001) %MON forcing_fv_del2              =   4.3233394206160E-04
(PID.TID 0000.0001) %MON trAdv_CFL_u_max              =   4.6961003990118E-02
(PID.TID 0000.0001) %MON trAdv_CFL_v_max              =   2.2812791118918E-02
(PID.TID 0000.0001) %MON trAdv_CFL_w_max              =   2.9395789098641E-02
(PID.TID 0000.0001) %MON advcfl_uvel_max              =   4.6855683047775E-02
(PID.TID 0000.0001) %MON advcfl_vvel_max              =   2.2642740355167E-02
(PID.TID 0000.0001) %MON advcfl_wvel_max              =   2.5928593476823E-02
(PID.TID 0000.0001) %MON advcfl_W_hf_max              =   3.1114312172188E-02
(PID.TID 0000.0001) %MON pe_b_mean                    =   4.7497861121151E-04
(PID.TID 0000.0001) %MON ke_max                       =   1.0479492436380E-02
(PID.TID 0000.0001) %MON ke_mean                      =   1.1921345411046E-04
(PID.TID 0000.0001) %MON ke_vol                       =   1.3226782436723E+18
(PID.TID 0000.0001) %MON vort_r_min                   =  -3.6556320871131E-07
(PID.TID 0000.0001) %MON vort_r_max                   =   3.8328226463307E-07
(PID.TID 0000.0001) %MON vort_a_mean                  =  -2.5274806308362E-05
(PID.TID 0000.0001) %MON vort_a_sd                    =   7.3604748233057E-05
(PID.TID 0000.0001) %MON vort_p_mean                  =  -3.1845654427247E-05
(PID.TID 0000.0001) %MON vort_p_sd                    =   1.3162533291224E-04
(PID.TID 0000.0001) %MON surfExpan_theta_mean         =   7.9486361507406E-07
(PID.TID 0000.0001) %MON surfExpan_salt_mean          =  -1.9771454393824E-07
(PID.TID 0000.0001) // =======================================================
(PID.TID 0000.0001) // End MONITOR dynamic field statistics
(PID.TID 0000.0001) // =======================================================
(PID.TID 0000.0001) // =======================================================
(PID.TID 0000.0001) // Field Current uVel   at iteration        100
(PID.TID 0000.0001) // CMIN =         -1.225156577404576E-01
(PID.TID 0000.0001) // CMAX =          1.397768467444837E-01
(PID.TID 0000.0001) // CINT =          9.714537203145976E-03
(PID.TID 0000.0001) // SYMBOLS (CMIN->CMAX): -abcdefghijklmnopqrstuvwxyz+
(PID.TID 0000.0001) //                  0.0: .
(PID.TID 0000.0001) // RANGE I (Lo:Hi:Step):(     1:    90:     1)
(PID.TID 0000.0001) // RANGE J (Lo:Hi:Step):(    40:     1:    -1)
(PID.TID 0000.0001) // RANGE K (Lo:Hi:Step):(   1:   1:   1)
(PID.TID 0000.0001) // =======================================================
(PID.TID 0000.0001) K =   1
(PID.TID 0000.0001)                I=10      I=20      I=30      I=40      I=50      I=60      I=70      I=80      I=90
(PID.TID 0000.0001) |--J--|123456789|123456789|123456789|123456789|123456789|123456789|123456789|123456789|123456789|
(PID.TID 0000.0001)     40 lllkl..llmmllllllll...................................................................lkkk
(PID.TID 0000.0001)     39 mmnmkkiiiiiijl....m......................................................mlm.........lklll
(PID.TID 0000.0001)     38 mmmmmmmmmmmmm............................................................mllm.......kiijlm
(PID.TID 0000.0001)     37 mnn...................................................................m....ll....kkjk..lmm
(PID.TID 0000.0001)     36 on..........................................lll.....................mmmnnnnmjk..kllmllmlmo
(PID.TID 0000.0001)     35 nm..................................lmm...mllllm....lllm............mm.....lklmkknoonnnonn
(PID.TID 0000.0001)     34 ....................................mmm..lmmmmml..mkkmmmm...................mnnnoppqqpom..
(PID.TID 0000.0001)     33 .....................................nmmmnooooonnnnnnooonml..................nppqrrqponlk.
(PID.TID 0000.0001)     32 .....................................mnoopppqppoonooooooonm.................oooopponmlllm.
(PID.TID 0000.0001)     31 .....................................opqqqpppoooooopppooonm...............osspqqpomlkkkl..
(PID.TID 0000.0001)     30 ....................................ruuttssrqqpqqqqqqqpponl.............orttttsrqponmmmm..
(PID.TID 0000.0001)     29 ..................................puwwwvvvuutsrrrqqpppponmll............sttrqqpooonnmmmm..
(PID.TID 0000.0001)     28 ................................prttsrrrqqppoooonmmnmmllkllll..........qrpommmllmmmmllll..
(PID.TID 0000.0001)     27 ...............m...............rurpommmnnnmllllllllmmmllkkkkkk....mnn..pnnmmlllmmmmmll....
(PID.TID 0000.0001)     26 ...............nn............knppnlkkklmnmllkkkkkkllllkkjjjiikll..mnnnoonmnnnmmmlllkji....
(PID.TID 0000.0001)     25 ...............pom....nm....kihjliffffghhhggggggghhhggffggghjklml....kkkiijijiiiiihggh....
(PID.TID 0000.0001)     24 .............mrrqnk..noo....lm..ljgfeeeeeffffgghhihhgghiijklmmmmlmml..lkjhijikkklmmllm....
(PID.TID 0000.0001)     23 .............osqpnm..lmn....nn...jihihhhijjjkklmmmlkkmoqqrrrqonmlmmmm.....kklnmmopqrqp....
(PID.TID 0000.0001)     22 o............lkhhgfghgik....l..nffihhhhhhhgghhhhiihiklorsrrrqonmllllkl.......mjggimpqqrpop
(PID.TID 0000.0001)     21 ppn.........jhhedb-bcehkj......ogjljihhhgfeeeeeefeefghjlmmmllmnnnmllkk.........eaaflmlorqq
(PID.TID 0000.0001)     20 mml........lklmlkifgiklnm.........nnnmkljkkjjjihhggfhghiighghiklkjiiij..........hcdghgikkk
(PID.TID 0000.0001)     19 jll........kijlmllkkkkmmmnm....il......nnnoooomllkjjjjjkihiihghhhgghhi............jhhhijii
(PID.TID 0000.0001)     18 jkl........kecgffihiihjkkjijjifil....kmkmllmllkkjjiiiiiihiijjijjiiiiiji...........lkkkkkii
(PID.TID 0000.0001)     17 iij..........fecdcdefffhiihhiij......jjiijjjjjjjihhhhhggfggggghhhiiiiii..........nkihhhggh
(PID.TID 0000.0001)     16 eef.......o..miheefghihijkkkjl........kkjkkkjkklllkjkkjihggghgggghhhhggj.........mkigffeee
(PID.TID 0000.0001)     15 gffi.....ln..nmlkkkmnmlllmnml..........llnmllmmmnonnnmllkkkkkjjjjjiiigfhk.......jkkkjihhhh
(PID.TID 0000.0001)     14 iiij.....lkjkjklllmmmklkllmln..........mmmnmmnnmnooonnmmmmmmllllkkkkkjijk......jkkkjjjiiii
(PID.TID 0000.0001)     13 kkih.....lmlklkkklmnmkkkllllm..........nnnoooponnooonooopppooonmmmmmmmlll.....klnnmllllllk
(PID.TID 0000.0001)     12 onljjkkkloqqqpnnnmnnonooonmmmmmmml.....opppppppooopoooppqrrrrrpooooonmml......mpqqqqqqqqpp
(PID.TID 0000.0001)     11 rqponmlnquvvwvtrqqqqqqqqpoooooooonm...mnoon..opoonnnnoonnoppppooooooonml.....nprstsssssrrr
(PID.TID 0000.0001)     10 srqqqqsstvxyyxxvuvwvtrrrrrqqqqqpponm..nnnnn..oommmmmmnnmmmmnonnoooonnnnn...ooppqsttuuutsss
(PID.TID 0000.0001)      9 vuuuuvvuuuuuuuvvuuwwwvuuvvuuttsssrrqppppoo..qpnnoooooooopoopppppppooonnn..oqpqrsstuvwwwwwv
(PID.TID 0000.0001)      8 wxyyxwvvvvuttttssrrsvxxwwwxxwwwwxxyyxwwvtrsusrqrsstttttttuuttssssrrqqqpp..nooqrssuvvvwxxww
(PID.TID 0000.0001)      7 tuvvutttutttsssstsrrrtttuuuvvvwwxyz++zzzzyxvttttuuvwxyyxxxwvvvuuuutttssuurqqrrrrrssstttttt
(PID.TID 0000.0001)      6 qqppppqqrrsrqqqqrssqopppqqrrstuuvvvvvvvxyzywvutuuvvwxyyyywvuuuuuuuuuuuuvvvuvutrqqppppppqqq
(PID.TID 0000.0001)      5 nnmmmnnnooooonnoopponnnnnnnoppqqqqqqqqrstuvuuutuuuuuuttsssstttttssssttttsrrrqponnnnmnnnnnn
(PID.TID 0000.0001)      4 lkkkkklllmllllllmmmmmmllkllllmmmnnnnnnooooppqrrrqqpponnnoopqqqqqqpppppppon...mmmllllllllll
(PID.TID 0000.0001)      3 jkjjkkkkll.............................lmmlllmmnmmllkkklllmmmmmmmmmmmmmlm...lmmlkkkkkkjjkk
(PID.TID 0000.0001)      2 ...........................................lllmmlllllkkkklllklll...lll......mmmmmllllll...
(PID.TID 0000.0001)      1 ..........................................................................................
(PID.TID 0000.0001) // =======================================================
(PID.TID 0000.0001) // END OF FIELD                                          =
(PID.TID 0000.0001) // =======================================================
(PID.TID 0000.0001) 
(PID.TID 0000.0001) // =======================================================
(PID.TID 0000.0001) // Field Current vVel   at iteration        100
(PID.TID 0000.0001) // CMIN =         -8.000342658509260E-02
(PID.TID 0000.0001) // CMAX =          1.165445677061925E-01
(PID.TID 0000.0001) // CINT =          7.279555344121670E-03
(PID.TID 0000.0001) // SYMBOLS (CMIN->CMAX): -abcdefghijklmnopqrstuvwxyz+
(PID.TID 0000.0001) //                  0.0: .
(PID.TID 0000.0001) // RANGE I (Lo:Hi:Step):(     1:    90:     1)
(PID.TID 0000.0001) // RANGE J (Lo:Hi:Step):(    40:     1:    -1)
(PID.TID 0000.0001) // RANGE K (Lo:Hi:Step):(   1:   1:   1)
(PID.TID 0000.0001) // =======================================================
(PID.TID 0000.0001) K =   1
(PID.TID 0000.0001)                I=10      I=20      I=30      I=40      I=50      I=60      I=70      I=80      I=90
(PID.TID 0000.0001) |--J--|123456789|123456789|123456789|123456789|123456789|123456789|123456789|123456789|123456789|
(PID.TID 0000.0001)     40 jlppn.jklkkjii...ll..................................................................igfgg
(PID.TID 0000.0001)     39 klmmljjkkllmn...........................................................kjkk........iihiii
(PID.TID 0000.0001)     38 lnn.......................................................................jii......he.llji
(PID.TID 0000.0001)     37 np...................................................................kj...kji...finmj.ijih
(PID.TID 0000.0001)     36 mm.........................................lmml....................kkl....llji.fdjlkkjjkki
(PID.TID 0000.0001)     35 ...................................kllk..lkllllk...hhlmn...................jhhhhjlllklno..
(PID.TID 0000.0001)     34 ....................................kkl.jihijjjk.ihhijlmm...................ighjlnoonlmn..
(PID.TID 0000.0001)     33 ....................................kjjjiihhiihhhggghijjkll.................oejnnnonmkjnn.
(PID.TID 0000.0001)     32 ....................................kjiijjjiiigggfffggghhik................omgkkkkjjiijl..
(PID.TID 0000.0001)     31 ....................................mjhhhiiihhfeeeeeeffgggi..............kkjihhgfffffgik..
(PID.TID 0000.0001)     30 ...................................onjhghihghiihhhhhhiiihff............opkkigggeeeeefgik..
(PID.TID 0000.0001)     29 .................................oppnljjlmlklmnmmllmnnlljhfh...........pqmkjiihhggggghjk..
(PID.TID 0000.0001)     28 ...............................qqqonmlllnonmmooooonoonmlkjiii.........mpnlkkkjijjiiihi....
(PID.TID 0000.0001)     27 ..............kj..............srpnnonnnnoommnoooqqpopoonnmlljj...llmm.mnlljjjijlmlllkj....
(PID.TID 0000.0001)     26 ..............lkl...........jlrsnmnopqqrqqppqrrssrppqqqpponmljjk....ommnpnkjklnnnmllji....
(PID.TID 0000.0001)     25 ..............mllm...mlk...hgk.rkjmopqrrqqppqrrsrqonnnnmnmllllkkj....mmnonljiijkkjhhgi....
(PID.TID 0000.0001)     24 ............mpqrqop.nonk...jjk..hflopppqqpooopppppomlkkjklmmnnmkjjjm.....mkkiilmmllkkj....
(PID.TID 0000.0001)     23 ............uyyxuqq.monk...mn...dgorttsssstttuuvwxwusssstuttsqpnmmnnk.......psvxyxwtpj....
(PID.TID 0000.0001)     22 i...........vyyvqnmiimon......jdemtwyzzwtsttuvuuuutsrrrrsrqqpnmlklmlig........rvy+yvrpmjji
(PID.TID 0000.0001)     21 ijk........mnpoljihgghjje......c.mortuwspnnoonnnnnmmkkkkkkkjhgffgijjih.........nqvtqnlkkii
(PID.TID 0000.0001)     20 fjl.......mmomjgghhijjhfd......-......ssqqqpppponlkkjihhgfeedcbdffeghi...........sojhfdede
(PID.TID 0000.0001)     19 fil.......pqwuqpollmnnmkjnn...hil.....qsrrssssrpomlmnmlkihhigeeddcceik...........qokheccdg
(PID.TID 0000.0001)     18 ijk.......o.wwrpnnklmklkjjiiigd.....lkmjklmmmmmkjjjkmmmmlklmmlljhggilnm..........pqnllkjkm
(PID.TID 0000.0001)     17 kll.......n.mojhihgfefhgfedefg.......igefgiiiiihgghhjkkjjjlllllkiiiknnk.........jkmllmlkkn
(PID.TID 0000.0001)     16 gij......jm.kkjjheghffggffecf.........gefhhhilkiihhiklkjjjlkkklkihhikmlj........hklkklkjij
(PID.TID 0000.0001)     15 gijj....ijn.ijkjihjmkihjjjhdg.........hfgiihjmlkjjkkklkjjklllllljiijjklkj......ehmmllmmlkj
(PID.TID 0000.0001)     14 ilml....ghlgeghgfgikkiilmmkgh.........fdgiighkljiiiihiiiijkkkmkjjjkkkkmmk.....ddfijiijklll
(PID.TID 0000.0001)     13 kmnm....cfkhegiiiijkihimonmlk.........fdhjjhhjjjiihhhhhhhijjkljklkklmmnn.....gdfhiihijjlmn
(PID.TID 0000.0001)     12 oonmokhhfjnnllonnnoonmnprqponlllll....hhkml.ijkklkjjjjkkkklmmlkmoonmnnom.....iijklmlmnnopr
(PID.TID 0000.0001)     11 pqppnlllmoqromnppqqqrqrrrsrqpoonmnn..jjkkmm.lnmlmmlllmmnonnnnllnqqpononm....kloonmnnnopqrs
(PID.TID 0000.0001)     10 nooponmmpsutqnmnqqnnopqqqqqponmmllno.kjlkk..qplklmmmmmlmnoonmllnppponnnn..polnpponmnllnpqq
(PID.TID 0000.0001)      9 lmnppolknrsrrpmmtxokmopppooonmkkkjloolklmn.trpmlmmmmnnmmmnonmllnppoonnll.ptsppqqoonnllnqqp
(PID.TID 0000.0001)      8 nooonnmmnpqrrqnlpyxponoppoonmmlkklnqpljjlovxsqpopponooooooonmmmnppoonnji.suuutssrponmnoprs
(PID.TID 0000.0001)      7 ppommmnonoqqqonmlpwuqnnoonmmmmnmmmoqpmkjlosttrqqrrrqqpnnonnnnnnoopponnnnqsrtvutsrqpnnnppqt
(PID.TID 0000.0001)      6 nnmlmmnnnnnnnmlllmoqpnnmlkkllmmmmmnoonmmmooppqrrrsssrpnllklnooooopponnoprrrsqpqpooonmnoooq
(PID.TID 0000.0001)      5 jkkkkkkllkjjjjiijkkkkkjhhiiiiiiiijjklllllmmlmnpqqqqqpnmlkklmnnnmnoonnnnnmm..jknnmmmmlmmllm
(PID.TID 0000.0001)      4 fffgggfggh............................jiijjjjkmnnnnmllkkkkllllkkkllllkjjj...jlmllllkkjjiii
(PID.TID 0000.0001)      3 ..........................................jjiijjjkkjjjjjjjjihhgh..kjjj.....kkkjjijjkkii...
(PID.TID 0000.0001)      2 ..........................................................................................
(PID.TID 0000.0001)      1 ..........................................................................................
(PID.TID 0000.0001) // =======================================================
(PID.TID 0000.0001) // END OF FIELD                                          =
(PID.TID 0000.0001) // =======================================================
(PID.TID 0000.0001) 
(PID.TID 0000.0001) // =======================================================
(PID.TID 0000.0001) // Field Current theta  at iteration        100
(PID.TID 0000.0001) // CMIN =         -1.903951863742906E+00
(PID.TID 0000.0001) // CMAX =          3.020752987311668E+01
(PID.TID 0000.0001) // CINT =          1.189314138402207E+00
(PID.TID 0000.0001) // SYMBOLS (CMIN->CMAX): -abcdefghijklmnopqrstuvwxyz+
(PID.TID 0000.0001) //                  0.0: .
(PID.TID 0000.0001) // RANGE I (Lo:Hi:Step):(     1:    90:     1)
(PID.TID 0000.0001) // RANGE J (Lo:Hi:Step):(    40:     1:    -1)
(PID.TID 0000.0001) // RANGE K (Lo:Hi:Step):(   1:   1:   1)
(PID.TID 0000.0001) // =======================================================
(PID.TID 0000.0001) K =   1
(PID.TID 0000.0001)                I=10      I=20      I=30      I=40      I=50      I=60      I=70      I=80      I=90
(PID.TID 0000.0001) |--J--|123456789|123456789|123456789|123456789|123456789|123456789|123456789|123456789|123456789|
(PID.TID 0000.0001)     40 -abccbaa-----aabcccbbbbbbbbbbbbbbbbbbbbbbbbbbbbbbbbbbbbbbbbbbbbbbbbbbbbbbbbbbbbbbbbbb-a---
(PID.TID 0000.0001)     39 bbcccccbaaa---bbbccbbbbbbbbbbbbbbbbbbbbbbbbbbbbbbbbbbbbbbbbbbbbbbbbbbbbbaaaabbbbbbbba---aa
(PID.TID 0000.0001)     38 deeeeecccbbbbbbbbbbbbbbbbbbbbbbbbbbbbbbbbbbbbbbbbbbbbbbbbbbbbbbbbbbbbbbbabbabbbbbbbbaaabcd
(PID.TID 0000.0001)     37 fggbbbbbbbbbbbbbbbbbbbbbbbbbbbbbbbbbbbbbbbbbbbbbbbbbbbbbbbbbbbbbbbbbbbbbbbbabbbbdcdeebdeee
(PID.TID 0000.0001)     36 ggbbbbbbbbbbbbbbbbbbbbbbbbbbbbbbbbbbbbbbbbbcbaabbbbbbbbbbbbbbbbbbbbcccbbbbbbbdbdefgghhhhhg
(PID.TID 0000.0001)     35 ggbbbbbbbbbbbbbbbbbbbbbbbbbbbbbbbbbaaaabbbbcccbbbbbeeeffbbbbbbbbbbbbbbbbbbccdddeefghiiiihh
(PID.TID 0000.0001)     34 bbbbbbbbbbbbbbbbbbbbbbbbbbbbbbbbbbba-aabccddddddbddeeffggbbbbbbbbbbbbbbbbbbcbcdefghijjjjbb
(PID.TID 0000.0001)     33 bbbbbbbbbbbbbbbbbbbbbbbbbbbbbbbbbbbbaabccdddeeeeefffffgghhibbbbbbbbbbbbbbbbbccdfhijkkkkkkb
(PID.TID 0000.0001)     32 bbbbbbbbbbbbbbbbbbbbbbbbbbbbbbbbbbbbbbccddeeffffgggghhhiiijbbbbbbbbbbbbbbbbeeddikllmllllkb
(PID.TID 0000.0001)     31 bbbbbbbbbbbbbbbbbbbbbbbbbbbbbbbbbbbbeffggghhhiiiiijjjjkkkkkbbbbbbbbbbbbbbhilkhjmnnnnnmmmbb
(PID.TID 0000.0001)     30 bbbbbbbbbbbbbbbbbbbbbbbbbbbbbbbbbbbllkkkkllllllllllllmmmmmlbbbbbbbbbbbbmnnoppopppppooooobb
(PID.TID 0000.0001)     29 bbbbbbbbbbbbbbbbbbbbbbbbbbbbbbbbbnoooonnnoonnoonnoooooooonmmbbbbbbbbbbbpqqqqqqqqqqqpppppbb
(PID.TID 0000.0001)     28 bbbbbbbbbbbbbbbbbbbbbbbbbbbbbbbopqqqqqqpqqqqqqqqqqqqqrqqpponnbbbbbbbbbrssrrrsrrrrrqqqqqpbb
(PID.TID 0000.0001)     27 bbbbbbbbbbbbbbvvbbbbbbbbbbbbbbrssssstsssttttsttttttssssrrqqpppbbbssttbtuuuttutttttssrrbbbb
(PID.TID 0000.0001)     26 bbbbbbbbbbbbbbwvvbbbbbbbbbbbuuvvvvvvvvvvvvvvvvvuuuuutttsssrrrrsubuuvwvvvvvvvvuuuutssrrbbbb
(PID.TID 0000.0001)     25 bbbbbbbbbbbbbbwwxxbbbyxxbbbvvwwxwwxxxxxxwwwwwwwvvvvvuuuutttttuuvwbbbxxxwwwwvvvvuuttsrqbbbb
(PID.TID 0000.0001)     24 bbbbbbbbbbbbxxxxyyzbyyyybbbxxxbyxxyyyxxxxxxxxwwwwwvvwwwwwwwwwxxyxxwwbxwwwwwwwwvvvvuuusbbbb
(PID.TID 0000.0001)     23 bbbbbbbbbbbbxyyzzz+byyzzbbbxxxbbyyyyyyyyyyyxxxxxxxxxxxxxxxxxxxxxxxxwwbbbbwwwwwwwwwwwwvbbbb
(PID.TID 0000.0001)     22 xbbbbbbbbbbbyyyyzzzzyyzzbbbyybzyyzzzzzzzzzyyyyyyyyyyxyxxxxxxxxxxxxwwwvbbbbbbxxxxxxxxxyxyxx
(PID.TID 0000.0001)     21 xwxbbbbbbbbyyyyyyzyyzzzzzbbbbbzzzzzzz++++zzzzzyyyyyyyyyyyyyxxxxxxwwvvubbbbbbbbyyyyyyyyyyyx
(PID.TID 0000.0001)     20 wwwbbbbbbbzzzzzyzzzzzzzz+bbbbbbzbzz+zz+++++zzzzzzzzzyyyyyyxxwwwwwwwwvubbbbbbbbbyzyyyxxxxww
(PID.TID 0000.0001)     19 vvwbbbbbbbzzzzzzzzzzzzzzzzzbbb+zzbbbbb++++++++++zzzzzzzyyyyxxxwwwwwvvubbbbbbbbbbbyyyxxxwww
(PID.TID 0000.0001)     18 vvvbbbbbbbzzyyyyyyyyyyyzzzzzzz+zzbbb++z++++++++zzzzzzzzyyyyyxxxwwwwwvutbbbbbbbbbbyyyxxxxww
(PID.TID 0000.0001)     17 vvubbbbbbbzbyyxyyyyyyyyyyyyyzzzbbbbbyyyzzzzzzzzzzzzzzyyyyyyxxxwwvvvvuuubbbbbbbbbyyyyxwwwwv
(PID.TID 0000.0001)     16 utsbbbbbbyybyyxxxxxxxxxwxxxyyzbbbbbbbxxyyyyyyyyzyyyyyyyyyyyyxxwwvvvuuuttbbbbbbbbyyyyxwwwvu
(PID.TID 0000.0001)     15 tsrrbbbbwxxbxxxwxwwwwwvvvvvwxbbbbbbbbbwwxxxxxxxxxxxxyxxxxyyyxxwwvvuuttsssbbbbbbxxyyyyxwwvu
(PID.TID 0000.0001)     14 ttrqbbbbwwwwwwwvvwwvvuvuutuuubbbbbbbbbwwvvwwwwwwwwwwwwwwxxxwwwwwvvuutssrrbbbbbvwxxxxxwwwvu
(PID.TID 0000.0001)     13 ttsqbbbbvwvvvvuuuuuuuuttttsstbbbbbbbbbvvvuuuuuuuuuuuuvvvvvvvvvuuuuuutsrrqbbbbvvwwvvvvvvvuu
(PID.TID 0000.0001)     12 sssrssstuuttttssssrrsssrrrrrrqqrrqbbbbtuttttttsssssssssssttssssssssssrqqbbbbbtuuuuttuuttts
(PID.TID 0000.0001)     11 poopqrrsssrrrrrqqpooopppopppppqqqqqbbssssrsbrrrqrrrrrqqqqqqqqqqqppqrrqqpbbbbprsssrrrrrqqpp
(PID.TID 0000.0001)     10 llllmnnooonnnnnnmmmmmllllllllmnnoooobpqqqqqbpppppppoppppoonnooonnmnnoooobbnnoooooonnnnnnmm
(PID.TID 0000.0001)      9 iihhiiijiiiiiiijihijjiiiihiiiijkkllllmnnnobmmnnnnnnmnmmmmmllllllllklllmlblllllllkkkjjjjjih
(PID.TID 0000.0001)      8 fffffffffffffggggffggggffffgghhiiiiiijjkkklkkkkkkkkkkkkjjjiiiiijjiiijjkjbjjjiihhhgggggffee
(PID.TID 0000.0001)      7 ddddddeeeeeeeefffeeeeddddeeefffffggggghhiiiiiiiiiihhhhhhhgggggghhhhhhhiiihihgggffeeeeeeddd
(PID.TID 0000.0001)      6 cbccdddddddddddddddddddddddddddeeeeeeffffggggggggffeeeffffffeeeeffffgggggggffeedddcccccccc
(PID.TID 0000.0001)      5 ccccccccccccccccccccccccccccccddddddddddddeeeeddddccccddddddddddeeeeeeeeeddcccccccbbbbbbbb
(PID.TID 0000.0001)      4 bbbbbbbbbbbbbbaaaabbbaaabbabbbbbbbbbbbbbbbbbbbbbbbbbbbbbbbbbbcccccccccccccbbaaaaaabbbbbbbb
(PID.TID 0000.0001)      3 abaaaaaaaabbbbbbbbbbbbbbbbbbbbbbbbbbbbbaa---aaaaaaaaaaaaaaaaaaaaaaaaaaabbbba---aaaaaaaaaaa
(PID.TID 0000.0001)      2 bbbbbbbbbbbbbbbbbbbbbbbbbbbbbbbbbbbbbbbbbb---aaaaaaaaaaaaaaabbbbbbaaaabbbbb------aaaaaabbb
(PID.TID 0000.0001)      1 bbbbbbbbbbbbbbbbbbbbbbbbbbbbbbbbbbbbbbbbbbbbbbbbbbbbbbbbbbbbbbbbbbbbbbbbbbbbbbbbbbbbbbbbbb
(PID.TID 0000.0001) // =======================================================
(PID.TID 0000.0001) // END OF FIELD                                          =
(PID.TID 0000.0001) // =======================================================
(PID.TID 0000.0001) 
(PID.TID 0000.0001) // =======================================================
(PID.TID 0000.0001) // Field Current etaN   at iteration        100
(PID.TID 0000.0001) // CMIN =         -1.872777229565263E+00
(PID.TID 0000.0001) // CMAX =          8.211372561405118E-01
(PID.TID 0000.0001) // CINT =          9.977461058169537E-02
(PID.TID 0000.0001) // SYMBOLS (CMIN->CMAX): -abcdefghijklmnopqrstuvwxyz+
(PID.TID 0000.0001) //                  0.0: .
(PID.TID 0000.0001) // RANGE I (Lo:Hi:Step):(    -1:    92:     1)
(PID.TID 0000.0001) // RANGE J (Lo:Hi:Step):(    42:    -1:    -1)
(PID.TID 0000.0001) // RANGE K (Lo:Hi:Step):(   1:   1:   1)
(PID.TID 0000.0001) // =======================================================
(PID.TID 0000.0001) K =   1
(PID.TID 0000.0001)                I=8       I=18      I=28      I=38      I=48      I=58      I=68      I=78      I=88
(PID.TID 0000.0001) |--J--|101234567|901234567|901234567|901234567|901234567|901234567|901234567|901234567|901234567|9012
(PID.TID 0000.0001)     42 ............................................---aaaabbbbbccbbbbbbbb..dccc.....-aaaaaaaaaaa.....
(PID.TID 0000.0001)     41 ..............................................................................................
(PID.TID 0000.0001)     40 onnnnoo.pppppppoooooo..................................................................oooonnn
(PID.TID 0000.0001)     39 nnnnnnoooooooooo...pp.....................................................nnnn........ppoonnnn
(PID.TID 0000.0001)     38 nooooppoooooooo...........................................................nnnnn......pooonnooo
(PID.TID 0000.0001)     37 ooooq..................................................................qq...oon...nonon.nooooo
(PID.TID 0000.0001)     36 oppr.........................................oooo....................rrqqqpnnnnn.pmlmnnooooppr
(PID.TID 0000.0001)     35 qrrq.................................nnnn..ooooopp...rpqqq...........srr....onmmmmlmmnnnooqrrq
(PID.TID 0000.0001)     34 .....................................nnnn.ooooooop.pppoopqr..................oonmmmmnoopps....
(PID.TID 0000.0001)     33 q.....................................oonooooooooppppooppqqrs.................qonnnoppqqqpq...
(PID.TID 0000.0001)     32 r.....................................ooonooooppppppppqqqqrrr................msqppqrrrrrqqr...
(PID.TID 0000.0001)     31 ......................................oooooppqqqrqqrrrrrsssss..............qrrrrrrssssrrqq....
(PID.TID 0000.0001)     30 .....................................oqqqqqrrrrssssssssstttss............psstuuuuuuttssrrs....
(PID.TID 0000.0001)     29 ...................................rssuuuutuuuttuuuutttuuuttsr...........ruvwwwvvvuutsssrs....
(PID.TID 0000.0001)     28 .................................suvvwwwwwwwwvvvvvvvuuuuuuuttss.........vvwwwwwwvvuuttssrr....
(PID.TID 0000.0001)     27 ................tt..............uvwxxxxxxxxxxwwwwvvvvvvvuuutttss...+zyy.wxxxxwwvvuuttssr......
(PID.TID 0000.0001)     26 ................ttt...........xxxxyyyyyyyyyyxxxxwwwwwwvvvuuutttsst.++yzzyyyyyxxwvuuuttsr......
(PID.TID 0000.0001)     25 ................tuuu...www...xxwwyyyyyyyyyyyyxxxwwwwwwvvvvuuutttttu...yzzzyyxxwwvvuuttsr......
(PID.TID 0000.0001)     24 ..............uvuuvvv.wwxx...yxw.zzyxxxyyyyyyxxxwwwwwwvvvvuuuuuuuuuuut.zyyyyxxxwvvvuttts......
(PID.TID 0000.0001)     23 ..............uvvvvww.wwww...xxx..zxxxxxxxxxxxxxwwwwwwvvvvvvvvuuuuuuuuu....xxxwwvvvuuttt......
(PID.TID 0000.0001)     22 ttt...........vvvvvvvvwvww...xx.yxxxxxxxxxxxwwwwwwwwwwwwvvvvvvuuuuuutttt......wwvvvuuuuuutttt.
(PID.TID 0000.0001)     21 ttsst........wvvuuuuuvvvvww.....yxxxxxxxxwwwwwwwwwwwwwwvvvvvuuuuuttttttt........wvvuutttttttss
(PID.TID 0000.0001)     20 sssss.......wwwvuuuuuvvvvvw......x.xxwwwwwwwxxwwwwwwwwvvvvuuutttttttttst.........vvuutttssssss
(PID.TID 0000.0001)     19 srrss.......wwwvuuuvvvvwwwwww...xxx.....xxxxxxxxxxxxwwwvvvuuuutttttttsss...........uuttssssrrs
(PID.TID 0000.0001)     18 rrrrs.......xxxvvvvvvwwwwwwwwxxxyyx...++zzyyyyyxxxxxxxwwwvvvvuuuttttttsss..........uuttsssrrrr
(PID.TID 0000.0001)     17 srrrr.......y.ywvvwwwwwwwwwwwwxxy.....zzyyyyyyyxxxxxxxwwwvvvvvuuuutttttst.........vuuttssssrrr
(PID.TID 0000.0001)     16 srrrr......zy.yxwwwwxwwwwwwwwwxx.......zyyyyyyyyxyxxxxxxwwwwwwvvuuuuttttss........uuutttsssrrr
(PID.TID 0000.0001)     15 tssrrq....xxx.wxxxxxxwwwwwwvvvx.........yyyyyyyxxxxxxxxxxxxxwwwvvvuuuuttssr......stuuuuutttssr
(PID.TID 0000.0001)     14 ttssrq....wxwvwwwwwwwwvvwvvuuuv.........xyyxxxxxwwwwwwwxxxxxwwwwvvuuuuuttsr.....rstuuuuuuuttss
(PID.TID 0000.0001)     13 uttssq....vxxwwwvvvvvvvvvwvuutt.........wxxxwwwvvvvvvvvvwwwwwwwwvvvvvuuttss....prstuuuvvvvutts
(PID.TID 0000.0001)     12 uttsssrprsvxwwvwvvvvvuvvvvvuuutttutt....vwwwvuuuuuuuuuuuuuuuvvvvvvvuuuttts.....qrssttuuuuuutts
(PID.TID 0000.0001)     11 sssrrrrstuvvvvuvvuuuuuuuuuuutttttuuuu..uvvvvu.ttttttttuuuuuuuuuuvvutttttsr....npqqrrssttttsssr
(PID.TID 0000.0001)     10 qpppppppqqrrqppqrrrrrrsssssssrrssstttt.tuuvvv.ssrsttttuuuuutttttuuutssssss..qoooonnoopqqqqqppp
(PID.TID 0000.0001)      9 llmmmmlllmnmlkkklllklmnoooooppppqrstutsstttt.usqrsttttttttuttsssttsrrrrrrq.nnnmmlkkkkklmmmllmm
(PID.TID 0000.0001)      8 ggghhhhghiiiiiihhjlifhijjjjkkllmmnopqrqqrstuuqqqqqrrrssssrrrrqqqrrrqqqqqru.qomljigggggghhhgggh
(PID.TID 0000.0001)      7 ddccbccdeeffffeefghjgeeeefffgghiijjklkkklnpqqoonnnnnnnnnoonnnnnnnnnnnooopqqonnkigfedcdddddddcc
(PID.TID 0000.0001)      6 baa--aabbccddddddeefedccdddddeefffffgffggijkklkkkkkjjiihhiiijjjjkkkkkkkllllkjigedccbbbbbbbbaa-
(PID.TID 0000.0001)      5 -----aaabbbbbbbbcccccccbbbbbccccccccddddddeeefggggfeedcbbcdeffggggggggggggfedbaaaaaaaaaaa-----
(PID.TID 0000.0001)      4 ----aaaaabbbccccccbbbbbbbbccbbbbbbbbbbbbbbbbbbbccbbaaaaaabbcccccddddddddddde..aaaaa-----------
(PID.TID 0000.0001)      3 aaabbbbbbcbb............................aaaaaaaaaaaaaaaaaaabbbbbbccccccccdd..aa--aaaaaaaaaaaab
(PID.TID 0000.0001)      2 ............................................---aaaabbbbbccbbbbbbbb..dccc.....-aaaaaaaaaaa.....
(PID.TID 0000.0001)      1 ..............................................................................................
(PID.TID 0000.0001)      0 onnnnoo.pppppppoooooo..................................................................oooonnn
(PID.TID 0000.0001)     -1 nnnnnnoooooooooo...pp.....................................................nnnn........ppoonnnn
(PID.TID 0000.0001) // =======================================================
(PID.TID 0000.0001) // END OF FIELD                                          =
(PID.TID 0000.0001) // =======================================================
(PID.TID 0000.0001) 
(PID.TID 0000.0001)  MDS_WRITE_FIELD: it,rec,kS,kL,kH=     100     1  15   1  15 file=U.0000000100
(PID.TID 0000.0001)  MDS_WRITE_FIELD: it,rec,kS,kL,kH=     100     1  15   1  15 file=V.0000000100
(PID.TID 0000.0001)  MDS_WRITE_FIELD: it,rec,kS,kL,kH=     100     1  15   1  15 file=T.0000000100
(PID.TID 0000.0001)  MDS_WRITE_FIELD: it,rec,kS,kL,kH=     100     1  15   1  15 file=S.0000000100
(PID.TID 0000.0001)  MDS_WRITE_FIELD: it,rec,kS,kL,kH=     100     1   1   1   1 file=Eta.0000000100
(PID.TID 0000.0001)  MDS_WRITE_FIELD: it,rec,kS,kL,kH=     100     1  15   1  15 file=W.0000000100
(PID.TID 0000.0001)  MDS_WRITE_FIELD: it,rec,kS,kL,kH=     100     1  15   1  15 file=PH.0000000100
(PID.TID 0000.0001)  MDS_WRITE_FIELD: it,rec,kS,kL,kH=     100     1   1   1   1 file=PHL.0000000100
(PID.TID 0000.0001)  MDS_WRITE_FIELD: it,rec,kS,kL,kH=     100     1   1   1   1 file=ETAtave.0000000100
(PID.TID 0000.0001)  MDS_WRITE_FIELD: it,rec,kS,kL,kH=     100     1  15   1  15 file=Ttave.0000000100
(PID.TID 0000.0001)  MDS_WRITE_FIELD: it,rec,kS,kL,kH=     100     1  15   1  15 file=Stave.0000000100
(PID.TID 0000.0001)  MDS_WRITE_FIELD: it,rec,kS,kL,kH=     100     1  15   1  15 file=uVeltave.0000000100
(PID.TID 0000.0001)  MDS_WRITE_FIELD: it,rec,kS,kL,kH=     100     1  15   1  15 file=vVeltave.0000000100
(PID.TID 0000.0001)  MDS_WRITE_FIELD: it,rec,kS,kL,kH=     100     1  15   1  15 file=wVeltave.0000000100
(PID.TID 0000.0001)  MDS_WRITE_FIELD: it,rec,kS,kL,kH=     100     1   1   1   1 file=Eta2tave.0000000100
(PID.TID 0000.0001)  MDS_WRITE_FIELD: it,rec,kS,kL,kH=     100     1  15   1  15 file=UTtave.0000000100
(PID.TID 0000.0001)  MDS_WRITE_FIELD: it,rec,kS,kL,kH=     100     1  15   1  15 file=VTtave.0000000100
(PID.TID 0000.0001)  MDS_WRITE_FIELD: it,rec,kS,kL,kH=     100     1  15   1  15 file=WTtave.0000000100
(PID.TID 0000.0001)  MDS_WRITE_FIELD: it,rec,kS,kL,kH=     100     1  15   1  15 file=UStave.0000000100
(PID.TID 0000.0001)  MDS_WRITE_FIELD: it,rec,kS,kL,kH=     100     1  15   1  15 file=VStave.0000000100
(PID.TID 0000.0001)  MDS_WRITE_FIELD: it,rec,kS,kL,kH=     100     1  15   1  15 file=WStave.0000000100
(PID.TID 0000.0001)  MDS_WRITE_FIELD: it,rec,kS,kL,kH=     100     1  15   1  15 file=TTtave.0000000100
(PID.TID 0000.0001)  MDS_WRITE_FIELD: it,rec,kS,kL,kH=     100     1  15   1  15 file=UUtave.0000000100
(PID.TID 0000.0001)  MDS_WRITE_FIELD: it,rec,kS,kL,kH=     100     1  15   1  15 file=VVtave.0000000100
(PID.TID 0000.0001)  MDS_WRITE_FIELD: it,rec,kS,kL,kH=     100     1  15   1  15 file=UVtave.0000000100
(PID.TID 0000.0001)  MDS_WRITE_FIELD: it,rec,kS,kL,kH=     100     1  15   1  15 file=Tdiftave.0000000100
(PID.TID 0000.0001)  MDS_WRITE_FIELD: it,rec,kS,kL,kH=     100     1  15   1  15 file=PhHytave.0000000100
(PID.TID 0000.0001)  MDS_WRITE_FIELD: it,rec,kS,kL,kH=     100     1   1   1   1 file=PHLtave.0000000100
(PID.TID 0000.0001)  MDS_WRITE_FIELD: it,rec,kS,kL,kH=     100     1   1   1   1 file=uFluxtave.0000000100
(PID.TID 0000.0001)  MDS_WRITE_FIELD: it,rec,kS,kL,kH=     100     1   1   1   1 file=vFluxtave.0000000100
(PID.TID 0000.0001)  MDS_WRITE_FIELD: it,rec,kS,kL,kH=     100     1   1   1   1 file=tFluxtave.0000000100
(PID.TID 0000.0001)  MDS_WRITE_FIELD: it,rec,kS,kL,kH=     100     1   1   1   1 file=sFluxtave.0000000100
(PID.TID 0000.0001)  MDS_WRITE_FIELD: it,rec,kS,kL,kH=     100     1   1   1   1 file=PHL2tave.0000000100
(PID.TID 0000.0001)  MDS_WRITE_FIELD: it,rec,kS,kL,kH=     100     1  15   1  15 file=Convtave.0000000100
(PID.TID 0000.0001) // Time-average data written, t-step       100
(PID.TID 0000.0001) 
(PID.TID 0000.0001)  MDS_WRITE_FIELD: it,rec,kS,kL,kH=     100     1  15   1  15 file=GM_Kwx-T.0000000100
(PID.TID 0000.0001)  MDS_WRITE_FIELD: it,rec,kS,kL,kH=     100     1  15   1  15 file=GM_Kwy-T.0000000100
(PID.TID 0000.0001)  MDS_WRITE_FIELD: it,rec,kS,kL,kH=     100     1  15   1  15 file=GM_Kwz-T.0000000100
(PID.TID 0000.0001)  MDS_WRITE_FIELD: it,rec,kS,kL,kH=     100     1  15   1  15 file=pickup_cd.0001.ckptA
(PID.TID 0000.0001)  MDS_WRITE_FIELD: it,rec,kS,kL,kH=     100     2  15   1  15 file=pickup_cd.0001.ckptA
(PID.TID 0000.0001)  MDS_WRITE_FIELD: it,rec,kS,kL,kH=     100     3  15   1  15 file=pickup_cd.0001.ckptA
(PID.TID 0000.0001)  MDS_WRITE_FIELD: it,rec,kS,kL,kH=     100     4  15   1  15 file=pickup_cd.0001.ckptA
(PID.TID 0000.0001)  MDS_WRITE_FIELD: it,rec,kS,kL,kH=     100    61   1   1   1 file=pickup_cd.0001.ckptA
(PID.TID 0000.0001)  MDS_WRITE_FIELD: it,rec,kS,kL,kH=     100    -1  15   1  15 file=pickup.0001.ckptA
(PID.TID 0000.0001)  MDS_WRITE_FIELD: it,rec,kS,kL,kH=     100    -2  15   1  15 file=pickup.0001.ckptA
(PID.TID 0000.0001)  MDS_WRITE_FIELD: it,rec,kS,kL,kH=     100    -3  15   1  15 file=pickup.0001.ckptA
(PID.TID 0000.0001)  MDS_WRITE_FIELD: it,rec,kS,kL,kH=     100    -4  15   1  15 file=pickup.0001.ckptA
(PID.TID 0000.0001)  MDS_WRITE_FIELD: it,rec,kS,kL,kH=     100    -5  15   1  15 file=pickup.0001.ckptA
(PID.TID 0000.0001)  MDS_WRITE_FIELD: it,rec,kS,kL,kH=     100    -6  15   1  15 file=pickup.0001.ckptA
(PID.TID 0000.0001)  MDS_WRITE_FIELD: it,rec,kS,kL,kH=     100    -7  15   1  15 file=pickup.0001.ckptA
(PID.TID 0000.0001)  MDS_WRITE_FIELD: it,rec,kS,kL,kH=     100    -8  15   1  15 file=pickup.0001.ckptA
(PID.TID 0000.0001)  MDS_WRITE_FIELD: it,rec,kS,kL,kH=     100  -121   1   1   1 file=pickup.0001.ckptA
(PID.TID 0000.0001)  MDS_WRITE_FIELD: it,rec,kS,kL,kH=     100  -122   1   1   1 file=pickup.0001.ckptA
(PID.TID 0000.0001)  MDS_WRITE_FIELD: it,rec,kS,kL,kH=     100  -123   1   1   1 file=pickup.0001.ckptA
(PID.TID 0000.0001) %CHECKPOINT       100 ckptA
(PID.TID 0000.0001)  MDS_WRITE_FIELD: it,rec,kS,kL,kH=     100     1   1   1   1 file=ETAN_forecast.0000000100
(PID.TID 0000.0001)  MDS_WRITE_FIELD: it,rec,kS,kL,kH=     100     1  15   1  15 file=THETA_forecast.0000000100
(PID.TID 0000.0001)  MDS_WRITE_FIELD: it,rec,kS,kL,kH=     100     1  15   1  15 file=SALT_forecast.0000000100
(PID.TID 0000.0001)  MDS_WRITE_FIELD: it,rec,kS,kL,kH=     100     1  15   1  15 file=UVEL_forecast.0000000100
(PID.TID 0000.0001)  MDS_WRITE_FIELD: it,rec,kS,kL,kH=     100     1  15   1  15 file=VVEL_forecast.0000000100
(PID.TID 0000.0001)  MDS_WRITE_FIELD: it,rec,kS,kL,kH=     100     1   1   1   1 file=ETAN_001_forecast.0000000100
(PID.TID 0000.0001)  MDS_WRITE_FIELD: it,rec,kS,kL,kH=     100     1  15   1  15 file=THETA_001_forecast.0000000100
(PID.TID 0000.0001)  MDS_WRITE_FIELD: it,rec,kS,kL,kH=     100     1  15   1  15 file=SALT_001_forecast.0000000100
(PID.TID 0000.0001)  MDS_WRITE_FIELD: it,rec,kS,kL,kH=     100     1  15   1  15 file=UVEL_001_forecast.0000000100
(PID.TID 0000.0001)  MDS_WRITE_FIELD: it,rec,kS,kL,kH=     100     1  15   1  15 file=VVEL_001_forecast.0000000100
(PID.TID 0000.0001)  MDS_WRITE_FIELD: it,rec,kS,kL,kH=     100     1   1   1   1 file=ETAN_002_forecast.0000000100
(PID.TID 0000.0001)  MDS_WRITE_FIELD: it,rec,kS,kL,kH=     100     1  15   1  15 file=THETA_002_forecast.0000000100
(PID.TID 0000.0001)  MDS_WRITE_FIELD: it,rec,kS,kL,kH=     100     1  15   1  15 file=SALT_002_forecast.0000000100
(PID.TID 0000.0001)  MDS_WRITE_FIELD: it,rec,kS,kL,kH=     100     1  15   1  15 file=UVEL_002_forecast.0000000100
(PID.TID 0000.0001)  MDS_WRITE_FIELD: it,rec,kS,kL,kH=     100     1  15   1  15 file=VVEL_002_forecast.0000000100
(PID.TID 0000.0001)  MDS_WRITE_FIELD: it,rec,kS,kL,kH=     100     1   1   1   1 file=ETAN_003_forecast.0000000100
(PID.TID 0000.0001)  MDS_WRITE_FIELD: it,rec,kS,kL,kH=     100     1  15   1  15 file=THETA_003_forecast.0000000100
(PID.TID 0000.0001)  MDS_WRITE_FIELD: it,rec,kS,kL,kH=     100     1  15   1  15 file=SALT_003_forecast.0000000100
(PID.TID 0000.0001)  MDS_WRITE_FIELD: it,rec,kS,kL,kH=     100     1  15   1  15 file=UVEL_003_forecast.0000000100
(PID.TID 0000.0001)  MDS_WRITE_FIELD: it,rec,kS,kL,kH=     100     1  15   1  15 file=VVEL_003_forecast.0000000100
(PID.TID 0000.0001)  MDS_WRITE_FIELD: it,rec,kS,kL,kH=     100     1   1   1   1 file=ETAN_004_forecast.0000000100
(PID.TID 0000.0001)  MDS_WRITE_FIELD: it,rec,kS,kL,kH=     100     1  15   1  15 file=THETA_004_forecast.0000000100
(PID.TID 0000.0001)  MDS_WRITE_FIELD: it,rec,kS,kL,kH=     100     1  15   1  15 file=SALT_004_forecast.0000000100
(PID.TID 0000.0001)  MDS_WRITE_FIELD: it,rec,kS,kL,kH=     100     1  15   1  15 file=UVEL_004_forecast.0000000100
(PID.TID 0000.0001)  MDS_WRITE_FIELD: it,rec,kS,kL,kH=     100     1  15   1  15 file=VVEL_004_forecast.0000000100
(PID.TID 0000.0001)  MDS_WRITE_FIELD: it,rec,kS,kL,kH=     100     1   1   1   1 file=ETAN_analysis.0000000100
(PID.TID 0000.0001)  MDS_WRITE_FIELD: it,rec,kS,kL,kH=     100     1  15   1  15 file=THETA_analysis.0000000100
(PID.TID 0000.0001)  MDS_WRITE_FIELD: it,rec,kS,kL,kH=     100     1  15   1  15 file=SALT_analysis.0000000100
(PID.TID 0000.0001)  MDS_WRITE_FIELD: it,rec,kS,kL,kH=     100     1  15   1  15 file=UVEL_analysis.0000000100
(PID.TID 0000.0001)  MDS_WRITE_FIELD: it,rec,kS,kL,kH=     100     1  15   1  15 file=VVEL_analysis.0000000100
(PID.TID 0000.0001)  MDS_WRITE_FIELD: it,rec,kS,kL,kH=     100     1   1   1   1 file=ETAN_001_analysis.0000000100
(PID.TID 0000.0001)  MDS_WRITE_FIELD: it,rec,kS,kL,kH=     100     1  15   1  15 file=THETA_001_analysis.0000000100
(PID.TID 0000.0001)  MDS_WRITE_FIELD: it,rec,kS,kL,kH=     100     1  15   1  15 file=SALT_001_analysis.0000000100
(PID.TID 0000.0001)  MDS_WRITE_FIELD: it,rec,kS,kL,kH=     100     1  15   1  15 file=UVEL_001_analysis.0000000100
(PID.TID 0000.0001)  MDS_WRITE_FIELD: it,rec,kS,kL,kH=     100     1  15   1  15 file=VVEL_001_analysis.0000000100
(PID.TID 0000.0001)  MDS_WRITE_FIELD: it,rec,kS,kL,kH=     100     1   1   1   1 file=ETAN_002_analysis.0000000100
(PID.TID 0000.0001)  MDS_WRITE_FIELD: it,rec,kS,kL,kH=     100     1  15   1  15 file=THETA_002_analysis.0000000100
(PID.TID 0000.0001)  MDS_WRITE_FIELD: it,rec,kS,kL,kH=     100     1  15   1  15 file=SALT_002_analysis.0000000100
(PID.TID 0000.0001)  MDS_WRITE_FIELD: it,rec,kS,kL,kH=     100     1  15   1  15 file=UVEL_002_analysis.0000000100
(PID.TID 0000.0001)  MDS_WRITE_FIELD: it,rec,kS,kL,kH=     100     1  15   1  15 file=VVEL_002_analysis.0000000100
(PID.TID 0000.0001)  MDS_WRITE_FIELD: it,rec,kS,kL,kH=     100     1   1   1   1 file=ETAN_003_analysis.0000000100
(PID.TID 0000.0001)  MDS_WRITE_FIELD: it,rec,kS,kL,kH=     100     1  15   1  15 file=THETA_003_analysis.0000000100
(PID.TID 0000.0001)  MDS_WRITE_FIELD: it,rec,kS,kL,kH=     100     1  15   1  15 file=SALT_003_analysis.0000000100
(PID.TID 0000.0001)  MDS_WRITE_FIELD: it,rec,kS,kL,kH=     100     1  15   1  15 file=UVEL_003_analysis.0000000100
(PID.TID 0000.0001)  MDS_WRITE_FIELD: it,rec,kS,kL,kH=     100     1  15   1  15 file=VVEL_003_analysis.0000000100
(PID.TID 0000.0001)  MDS_WRITE_FIELD: it,rec,kS,kL,kH=     100     1   1   1   1 file=ETAN_004_analysis.0000000100
(PID.TID 0000.0001)  MDS_WRITE_FIELD: it,rec,kS,kL,kH=     100     1  15   1  15 file=THETA_004_analysis.0000000100
(PID.TID 0000.0001)  MDS_WRITE_FIELD: it,rec,kS,kL,kH=     100     1  15   1  15 file=SALT_004_analysis.0000000100
(PID.TID 0000.0001)  MDS_WRITE_FIELD: it,rec,kS,kL,kH=     100     1  15   1  15 file=UVEL_004_analysis.0000000100
(PID.TID 0000.0001)  MDS_WRITE_FIELD: it,rec,kS,kL,kH=     100     1  15   1  15 file=VVEL_004_analysis.0000000100
(PID.TID 0000.0001)   Seconds in section "ALL                    [THE_MODEL_MAIN]":
(PID.TID 0000.0001)           User time:   3.21179194189608
(PID.TID 0000.0001)         System time:  0.000000000000000E+000
(PID.TID 0000.0001)     Wall clock time:   3.59387016296387
(PID.TID 0000.0001)          No. starts:           1
(PID.TID 0000.0001)           No. stops:           1
(PID.TID 0000.0001)   Seconds in section "INITIALISE_FIXED       [THE_MODEL_MAIN]":
(PID.TID 0000.0001)           User time:  1.057399995625019E-002
(PID.TID 0000.0001)         System time:  0.000000000000000E+000
(PID.TID 0000.0001)     Wall clock time:  2.851486206054688E-002
(PID.TID 0000.0001)          No. starts:           1
(PID.TID 0000.0001)           No. stops:           1
(PID.TID 0000.0001)   Seconds in section "THE_MAIN_LOOP          [THE_MODEL_MAIN]":
(PID.TID 0000.0001)           User time:   3.20119889080524
(PID.TID 0000.0001)         System time:  0.000000000000000E+000
(PID.TID 0000.0001)     Wall clock time:   3.56532812118530
(PID.TID 0000.0001)          No. starts:           1
(PID.TID 0000.0001)           No. stops:           1
(PID.TID 0000.0001)   Seconds in section "INITIALISE_VARIA    [THE_MAIN_LOOP]":
(PID.TID 0000.0001)           User time:  1.055900007486343E-002
(PID.TID 0000.0001)         System time:  0.000000000000000E+000
(PID.TID 0000.0001)     Wall clock time:  3.485512733459473E-002
(PID.TID 0000.0001)          No. starts:           1
(PID.TID 0000.0001)           No. stops:           1
(PID.TID 0000.0001)   Seconds in section "MAIN LOOP           [THE_MAIN_LOOP]":
(PID.TID 0000.0001)           User time:   3.19062392786145
(PID.TID 0000.0001)         System time:  0.000000000000000E+000
(PID.TID 0000.0001)     Wall clock time:   3.53044891357422
(PID.TID 0000.0001)          No. starts:           1
(PID.TID 0000.0001)           No. stops:           1
(PID.TID 0000.0001)   Seconds in section "INIT_PDAF           [THE_MAIN_LOOP]":
(PID.TID 0000.0001)           User time:  7.583998143672943E-003
(PID.TID 0000.0001)         System time:  0.000000000000000E+000
(PID.TID 0000.0001)     Wall clock time:  1.500678062438965E-002
(PID.TID 0000.0001)          No. starts:           1
(PID.TID 0000.0001)           No. stops:           1
(PID.TID 0000.0001)   Seconds in section "MAIN_DO_LOOP        [THE_MAIN_LOOP]":
(PID.TID 0000.0001)           User time:   2.93550180271268
(PID.TID 0000.0001)         System time:  0.000000000000000E+000
(PID.TID 0000.0001)     Wall clock time:   3.18825745582581
(PID.TID 0000.0001)          No. starts:         100
(PID.TID 0000.0001)           No. stops:         100
(PID.TID 0000.0001)   Seconds in section "FORWARD_STEP        [MAIN_DO_LOOP]":
(PID.TID 0000.0001)           User time:   2.93454639241099
(PID.TID 0000.0001)         System time:  0.000000000000000E+000
(PID.TID 0000.0001)     Wall clock time:   3.18728947639465
(PID.TID 0000.0001)          No. starts:         100
(PID.TID 0000.0001)           No. stops:         100
(PID.TID 0000.0001)   Seconds in section "LOAD_FIELDS_DRIVER  [FORWARD_STEP]":
(PID.TID 0000.0001)           User time:  7.226448506116867E-003
(PID.TID 0000.0001)         System time:  0.000000000000000E+000
(PID.TID 0000.0001)     Wall clock time:  8.607864379882812E-003
(PID.TID 0000.0001)          No. starts:         100
(PID.TID 0000.0001)           No. stops:         100
(PID.TID 0000.0001)   Seconds in section "EXTERNAL_FLDS_LOAD [LOAD_FLDS_DRIVER]":
(PID.TID 0000.0001)           User time:  6.299372762441635E-003
(PID.TID 0000.0001)         System time:  0.000000000000000E+000
(PID.TID 0000.0001)     Wall clock time:  7.675170898437500E-003
(PID.TID 0000.0001)          No. starts:         100
(PID.TID 0000.0001)           No. stops:         100
(PID.TID 0000.0001)   Seconds in section "DO_ATMOSPHERIC_PHYS [FORWARD_STEP]":
(PID.TID 0000.0001)           User time:  4.419721662998199E-004
(PID.TID 0000.0001)         System time:  0.000000000000000E+000
(PID.TID 0000.0001)     Wall clock time:  4.823207855224609E-004
(PID.TID 0000.0001)          No. starts:         100
(PID.TID 0000.0001)           No. stops:         100
(PID.TID 0000.0001)   Seconds in section "DO_OCEANIC_PHYS     [FORWARD_STEP]":
(PID.TID 0000.0001)           User time:  0.383726626634598
(PID.TID 0000.0001)         System time:  0.000000000000000E+000
(PID.TID 0000.0001)     Wall clock time:  0.391462802886963
(PID.TID 0000.0001)          No. starts:         100
(PID.TID 0000.0001)           No. stops:         100
(PID.TID 0000.0001)   Seconds in section "THERMODYNAMICS      [FORWARD_STEP]":
(PID.TID 0000.0001)           User time:  0.739735696464777
(PID.TID 0000.0001)         System time:  0.000000000000000E+000
(PID.TID 0000.0001)     Wall clock time:  0.749596118927002
(PID.TID 0000.0001)          No. starts:         100
(PID.TID 0000.0001)           No. stops:         100
(PID.TID 0000.0001)   Seconds in section "DYNAMICS            [FORWARD_STEP]":
(PID.TID 0000.0001)           User time:  0.823320657014847
(PID.TID 0000.0001)         System time:  0.000000000000000E+000
(PID.TID 0000.0001)     Wall clock time:  0.832022190093994
(PID.TID 0000.0001)          No. starts:         100
(PID.TID 0000.0001)           No. stops:         100
(PID.TID 0000.0001)   Seconds in section "SOLVE_FOR_PRESSURE  [FORWARD_STEP]":
(PID.TID 0000.0001)           User time:  0.393269248306751
(PID.TID 0000.0001)         System time:  0.000000000000000E+000
(PID.TID 0000.0001)     Wall clock time:  0.407983541488647
(PID.TID 0000.0001)          No. starts:         100
(PID.TID 0000.0001)           No. stops:         100
(PID.TID 0000.0001)   Seconds in section "MOM_CORRECTION_STEP [FORWARD_STEP]":
(PID.TID 0000.0001)           User time:  2.034059911966324E-002
(PID.TID 0000.0001)         System time:  0.000000000000000E+000
(PID.TID 0000.0001)     Wall clock time:  2.123808860778809E-002
(PID.TID 0000.0001)          No. starts:         100
(PID.TID 0000.0001)           No. stops:         100
(PID.TID 0000.0001)   Seconds in section "INTEGR_CONTINUITY   [FORWARD_STEP]":
(PID.TID 0000.0001)           User time:  3.497209399938583E-002
(PID.TID 0000.0001)         System time:  0.000000000000000E+000
(PID.TID 0000.0001)     Wall clock time:  3.608751296997070E-002
(PID.TID 0000.0001)          No. starts:         100
(PID.TID 0000.0001)           No. stops:         100
(PID.TID 0000.0001)   Seconds in section "TRC_CORRECTION_STEP [FORWARD_STEP]":
(PID.TID 0000.0001)           User time:  5.089491605758667E-004
(PID.TID 0000.0001)         System time:  0.000000000000000E+000
(PID.TID 0000.0001)     Wall clock time:  5.261898040771484E-004
(PID.TID 0000.0001)          No. starts:         100
(PID.TID 0000.0001)           No. stops:         100
(PID.TID 0000.0001)   Seconds in section "BLOCKING_EXCHANGES  [FORWARD_STEP]":
(PID.TID 0000.0001)           User time:  1.960229873657227E-002
(PID.TID 0000.0001)         System time:  0.000000000000000E+000
(PID.TID 0000.0001)     Wall clock time:  2.016806602478027E-002
(PID.TID 0000.0001)          No. starts:         100
(PID.TID 0000.0001)           No. stops:         100
(PID.TID 0000.0001)   Seconds in section "DO_STATEVARS_TAVE   [FORWARD_STEP]":
(PID.TID 0000.0001)           User time:  0.114069007337093
(PID.TID 0000.0001)         System time:  0.000000000000000E+000
(PID.TID 0000.0001)     Wall clock time:  0.117825746536255
(PID.TID 0000.0001)          No. starts:         100
(PID.TID 0000.0001)           No. stops:         100
(PID.TID 0000.0001)   Seconds in section "MONITOR             [FORWARD_STEP]":
(PID.TID 0000.0001)           User time:  0.322235301136971
(PID.TID 0000.0001)         System time:  0.000000000000000E+000
(PID.TID 0000.0001)     Wall clock time:  0.332905769348145
(PID.TID 0000.0001)          No. starts:         100
(PID.TID 0000.0001)           No. stops:         100
(PID.TID 0000.0001)   Seconds in section "DO_THE_MODEL_IO     [FORWARD_STEP]":
(PID.TID 0000.0001)           User time:  6.470044702291489E-002
(PID.TID 0000.0001)         System time:  0.000000000000000E+000
(PID.TID 0000.0001)     Wall clock time:  0.255714178085327
(PID.TID 0000.0001)          No. starts:         100
(PID.TID 0000.0001)           No. stops:         100
(PID.TID 0000.0001)   Seconds in section "DO_WRITE_PICKUP     [FORWARD_STEP]":
(PID.TID 0000.0001)           User time:  1.797176897525787E-003
(PID.TID 0000.0001)         System time:  0.000000000000000E+000
(PID.TID 0000.0001)     Wall clock time:  4.872798919677734E-003
(PID.TID 0000.0001)          No. starts:         100
(PID.TID 0000.0001)           No. stops:         100
(PID.TID 0000.0001)   Seconds in section "ASSIMILATE_PDAF     [THE_MAIN_LOOP]":
(PID.TID 0000.0001)           User time:  0.246021471917629
(PID.TID 0000.0001)         System time:  0.000000000000000E+000
(PID.TID 0000.0001)     Wall clock time:  0.325639009475708
(PID.TID 0000.0001)          No. starts:         100
(PID.TID 0000.0001)           No. stops:         100
(PID.TID 0000.0001) // ======================================================
(PID.TID 0000.0001) // Tile <-> Tile communication statistics
(PID.TID 0000.0001) // ======================================================
(PID.TID 0000.0001) // o Tile number: 000001
(PID.TID 0000.0001) //         No. X exchanges =              0
(PID.TID 0000.0001) //            Max. X spins =              0
(PID.TID 0000.0001) //            Min. X spins =     1000000000
(PID.TID 0000.0001) //          Total. X spins =              0
(PID.TID 0000.0001) //            Avg. X spins =       0.00E+00
(PID.TID 0000.0001) //         No. Y exchanges =              0
(PID.TID 0000.0001) //            Max. Y spins =              0
(PID.TID 0000.0001) //            Min. Y spins =     1000000000
(PID.TID 0000.0001) //          Total. Y spins =              0
(PID.TID 0000.0001) //            Avg. Y spins =       0.00E+00
(PID.TID 0000.0001) // o Thread number: 000001
(PID.TID 0000.0001) //            No. barriers =         148034
(PID.TID 0000.0001) //      Max. barrier spins =              1
(PID.TID 0000.0001) //      Min. barrier spins =              1
(PID.TID 0000.0001) //     Total barrier spins =         148034
(PID.TID 0000.0001) //      Avg. barrier spins =       1.00E+00
PROGRAM MAIN: Execution ended Normally
