(PID.TID 0000.0001) 
(PID.TID 0000.0001) // ======================================================
(PID.TID 0000.0001) //                      MITgcm UV
(PID.TID 0000.0001) //                      =========
(PID.TID 0000.0001) // ======================================================
(PID.TID 0000.0001) // execution environment starting up...
(PID.TID 0000.0001) 
(PID.TID 0000.0001) // MITgcmUV version:  checkpoint68e
(PID.TID 0000.0001) // Build user:        hajsong
(PID.TID 0000.0001) // Build host:        acc00
(PID.TID 0000.0001) // Build date:        Mon Dec 20 17:40:35 KST 2021
(PID.TID 0000.0001) 
(PID.TID 0000.0001) // =======================================================
(PID.TID 0000.0001) // Execution Environment parameter file "eedata"
(PID.TID 0000.0001) // =======================================================
(PID.TID 0000.0001) ># Example "eedata" file
(PID.TID 0000.0001) ># Lines beginning "#" are comments
(PID.TID 0000.0001) ># nTx - No. threads per process in X
(PID.TID 0000.0001) ># nTy - No. threads per process in Y
(PID.TID 0000.0001) > &EEPARMS
(PID.TID 0000.0001) > nTx=1,
(PID.TID 0000.0001) > nTy=1,
(PID.TID 0000.0001) > &
(PID.TID 0000.0001) ># Note: Some systems use & as the
(PID.TID 0000.0001) ># namelist terminator. Other systems
(PID.TID 0000.0001) ># use a / character (as shown here).
(PID.TID 0000.0001) 
(PID.TID 0000.0001) // =======================================================
(PID.TID 0000.0001) // Computational Grid Specification ( see files "SIZE.h" )
(PID.TID 0000.0001) //                                  ( and "eedata"       )
(PID.TID 0000.0001) // =======================================================
(PID.TID 0000.0001)      nPx =    1 ; /* No. processes in X */
(PID.TID 0000.0001)      nPy =    1 ; /* No. processes in Y */
(PID.TID 0000.0001)      nSx =    1 ; /* No. tiles in X per process */
(PID.TID 0000.0001)      nSy =    1 ; /* No. tiles in Y per process */
(PID.TID 0000.0001)      sNx =   90 ; /* Tile size in X */
(PID.TID 0000.0001)      sNy =   40 ; /* Tile size in Y */
(PID.TID 0000.0001)      OLx =    2 ; /* Tile overlap distance in X */
(PID.TID 0000.0001)      OLy =    2 ; /* Tile overlap distance in Y */
(PID.TID 0000.0001)      nTx =    1 ; /* No. threads in X per process */
(PID.TID 0000.0001)      nTy =    1 ; /* No. threads in Y per process */
(PID.TID 0000.0001)       Nr =   15 ; /* No. levels in the vertical   */
(PID.TID 0000.0001)       Nx =   90 ; /* Total domain size in X ( = nPx*nSx*sNx ) */
(PID.TID 0000.0001)       Ny =   40 ; /* Total domain size in Y ( = nPy*nSy*sNy ) */
(PID.TID 0000.0001)   nTiles =    1 ; /* Total no. tiles per process ( = nSx*nSy ) */
(PID.TID 0000.0001)   nProcs =    1 ; /* Total no. processes ( = nPx*nPy ) */
(PID.TID 0000.0001) nThreads =    1 ; /* Total no. threads per process ( = nTx*nTy ) */
(PID.TID 0000.0001) usingMPI =    T ; /* Flag used to control whether MPI is in use */
(PID.TID 0000.0001)                   /*  note: To execute a program with MPI calls */
(PID.TID 0000.0001)                   /*  it must be launched appropriately e.g     */
(PID.TID 0000.0001)                   /*  "mpirun -np 64 ......"                    */
(PID.TID 0000.0001) useCoupler=   F ; /* Flag used to control communications with   */
(PID.TID 0000.0001)                   /*  other model components, through a coupler */
(PID.TID 0000.0001) useNest2W_parent =    F ;/* Control 2-W Nesting comm */
(PID.TID 0000.0001) useNest2W_child  =    F ;/* Control 2-W Nesting comm */
(PID.TID 0000.0001) debugMode =    F ; /* print debug msg. (sequence of S/R calls)  */
(PID.TID 0000.0001) printMapIncludesZeros=    F ; /* print zeros in Std.Output maps */
(PID.TID 0000.0001) maxLengthPrt1D=   65 /* maxLength of 1D array printed to StdOut */
(PID.TID 0000.0001) 
(PID.TID 0000.0001) ======= Starting MPI parallel Run =========
(PID.TID 0000.0001)  My Processor Name (len:  5 ) = acc00
(PID.TID 0000.0001)  Located at (  0,  0) on processor grid (0:  0,0:  0)
(PID.TID 0000.0001)  Origin at  (     1,     1) on global grid (1:    90,1:    40)
(PID.TID 0000.0001)  North neighbor = processor 0000
(PID.TID 0000.0001)  South neighbor = processor 0000
(PID.TID 0000.0001)   East neighbor = processor 0000
(PID.TID 0000.0001)   West neighbor = processor 0000
(PID.TID 0000.0001) // ======================================================
(PID.TID 0000.0001) // Mapping of tiles to threads
(PID.TID 0000.0001) // ======================================================
(PID.TID 0000.0001) // -o- Thread   1, tiles (   1:   1,   1:   1)
(PID.TID 0000.0001) 
(PID.TID 0000.0001) // ======================================================
(PID.TID 0000.0001) // Tile <-> Tile connectvity table
(PID.TID 0000.0001) // ======================================================
(PID.TID 0000.0001) // Tile number: 000001 (process no. = 000000)
(PID.TID 0000.0001) //        WEST: Tile = 000001, Process = 000000, Comm = put
(PID.TID 0000.0001) //                bi = 000001, bj = 000001
(PID.TID 0000.0001) //        EAST: Tile = 000001, Process = 000000, Comm = put
(PID.TID 0000.0001) //                bi = 000001, bj = 000001
(PID.TID 0000.0001) //       SOUTH: Tile = 000001, Process = 000000, Comm = put
(PID.TID 0000.0001) //                bi = 000001, bj = 000001
(PID.TID 0000.0001) //       NORTH: Tile = 000001, Process = 000000, Comm = put
(PID.TID 0000.0001) //                bi = 000001, bj = 000001
(PID.TID 0000.0001) 
(PID.TID 0000.0001)  INI_PARMS: opening model parameter file "data"
(PID.TID 0000.0001)  OPEN_COPY_DATA_FILE: opening file data
(PID.TID 0000.0001) // =======================================================
(PID.TID 0000.0001) // Parameter file "data"
(PID.TID 0000.0001) // =======================================================
(PID.TID 0000.0001) ># ====================
(PID.TID 0000.0001) ># | Model parameters |
(PID.TID 0000.0001) ># ====================
(PID.TID 0000.0001) >#
(PID.TID 0000.0001) ># Continuous equation parameters
(PID.TID 0000.0001) > &PARM01
(PID.TID 0000.0001) > tRef = 15*20.,
(PID.TID 0000.0001) > sRef = 15*35.,
(PID.TID 0000.0001) > viscAr=1.E-3,
(PID.TID 0000.0001) > viscAh=5.E5,
(PID.TID 0000.0001) > diffKhT=0.,
(PID.TID 0000.0001) > diffKrT=3.E-5,
(PID.TID 0000.0001) > diffKhS=0.,
(PID.TID 0000.0001) > diffKrS=3.E-5,
(PID.TID 0000.0001) > rhoConst=1035.,
(PID.TID 0000.0001) > rhoConstFresh=1000.,
(PID.TID 0000.0001) > eosType = 'JMD95Z',
(PID.TID 0000.0001) > ivdc_kappa=100.,
(PID.TID 0000.0001) > implicitDiffusion=.TRUE.,
(PID.TID 0000.0001) > allowFreezing=.TRUE.,
(PID.TID 0000.0001) > exactConserv=.TRUE.,
(PID.TID 0000.0001) > useRealFreshWaterFlux=.TRUE.,
(PID.TID 0000.0001) > useCDscheme=.TRUE.,
(PID.TID 0000.0001) ># turn on looped cells
(PID.TID 0000.0001) > hFacMin=.05,
(PID.TID 0000.0001) > hFacMindr=50.,
(PID.TID 0000.0001) ># set precision of data files
(PID.TID 0000.0001) > readBinaryPrec=32,
(PID.TID 0000.0001) > useSingleCpuIO=.TRUE.,
(PID.TID 0000.0001) > debugLevel=5,
(PID.TID 0000.0001) > &
(PID.TID 0000.0001) >
(PID.TID 0000.0001) ># Elliptic solver parameters
(PID.TID 0000.0001) > &PARM02
(PID.TID 0000.0001) > cg2dMaxIters=500,
(PID.TID 0000.0001) > cg2dTargetResidual=1.E-13,
(PID.TID 0000.0001) > &
(PID.TID 0000.0001) >
(PID.TID 0000.0001) ># Time stepping parameters
(PID.TID 0000.0001) > &PARM03
(PID.TID 0000.0001) > nIter0=      0,
(PID.TID 0000.0001) > nTimeSteps = 100,
(PID.TID 0000.0001) ># 100 years of integration will yield a reasonable flow field
(PID.TID 0000.0001) ># startTime =          0.,
(PID.TID 0000.0001) ># endTime   = 3110400000.,
(PID.TID 0000.0001) ># endTime   = 31104000.,
(PID.TID 0000.0001) > deltaTmom = 1800.,
(PID.TID 0000.0001) > tauCD =     321428.,
(PID.TID 0000.0001) > deltaTtracer= 86400.,
(PID.TID 0000.0001) > deltaTClock = 86400.,
(PID.TID 0000.0001) > deltaTfreesurf= 86400.,
(PID.TID 0000.0001) > abEps = 0.1,
(PID.TID 0000.0001) > pChkptFreq= 864000.,
(PID.TID 0000.0001) > dumpFreq=   864000.,
(PID.TID 0000.0001) > taveFreq=   864000.,
(PID.TID 0000.0001) > monitorFreq=1.,
(PID.TID 0000.0001) ># 2 months restoring timescale for temperature
(PID.TID 0000.0001) ># tauThetaClimRelax=  5184000.,
(PID.TID 0000.0001) ># 6 months restoring timescale for salinity
(PID.TID 0000.0001) ># tauSaltClimRelax = 15552000.,
(PID.TID 0000.0001) > periodicExternalForcing=.TRUE.,
(PID.TID 0000.0001) > externForcingPeriod=2592000.,
(PID.TID 0000.0001) > externForcingCycle=31104000.,
(PID.TID 0000.0001) > &
(PID.TID 0000.0001) >
(PID.TID 0000.0001) ># Gridding parameters
(PID.TID 0000.0001) > &PARM04
(PID.TID 0000.0001) > usingSphericalPolarGrid=.TRUE.,
(PID.TID 0000.0001) > delR= 50.,  70., 100., 140., 190.,
(PID.TID 0000.0001) >      240., 290., 340., 390., 440.,
(PID.TID 0000.0001) >      490., 540., 590., 640., 690.,
(PID.TID 0000.0001) > ygOrigin=-80.,
(PID.TID 0000.0001) > dySpacing=4.,
(PID.TID 0000.0001) > dxSpacing=4.,
(PID.TID 0000.0001) > &
(PID.TID 0000.0001) >
(PID.TID 0000.0001) ># Input datasets
(PID.TID 0000.0001) > &PARM05
(PID.TID 0000.0001) > bathyFile=      'bathymetry.bin',
(PID.TID 0000.0001) > hydrogThetaFile='lev_t.bin',
(PID.TID 0000.0001) > hydrogSaltFile= 'lev_s.bin',
(PID.TID 0000.0001) > zonalWindFile=  'trenberth_taux.bin',
(PID.TID 0000.0001) > meridWindFile=  'trenberth_tauy.bin',
(PID.TID 0000.0001) > thetaClimFile=  'lev_sst.bin',
(PID.TID 0000.0001) > saltClimFile=   'lev_sss.bin',
(PID.TID 0000.0001) > surfQnetFile=   'ncep_qnet.bin',
(PID.TID 0000.0001) > the_run_name=   'global_oce_latlon',
(PID.TID 0000.0001) ># fresh water flux is turned on, comment next line to it turn off
(PID.TID 0000.0001) ># (maybe better with surface salinity restoring)
(PID.TID 0000.0001) > EmPmRFile=      'ncep_emp.bin',
(PID.TID 0000.0001) ># checkIniTemp=.FALSE.,
(PID.TID 0000.0001) ># checkIniSalt=.FALSE.
(PID.TID 0000.0001) > &
(PID.TID 0000.0001) 
(PID.TID 0000.0001)  INI_PARMS ; starts to read PARM01
(PID.TID 0000.0001)  INI_PARMS ; read PARM01 : OK
(PID.TID 0000.0001) S/R INI_PARMS: No request for barotropic solver
(PID.TID 0000.0001) S/R INI_PARMS: => Use implicitFreeSurface as default
(PID.TID 0000.0001)  INI_PARMS ; starts to read PARM02
(PID.TID 0000.0001)  INI_PARMS ; read PARM02 : OK
(PID.TID 0000.0001)  INI_PARMS ; starts to read PARM03
(PID.TID 0000.0001)  INI_PARMS ; read PARM03 : OK
(PID.TID 0000.0001)  INI_PARMS ; starts to read PARM04
(PID.TID 0000.0001)  INI_PARMS ; read PARM04 : OK
(PID.TID 0000.0001)  INI_PARMS ; starts to read PARM05
(PID.TID 0000.0001)  INI_PARMS ; read PARM05 : OK
(PID.TID 0000.0001)  INI_PARMS: finished reading file "data"
(PID.TID 0000.0001)  PACKAGES_BOOT: opening data.pkg
(PID.TID 0000.0001)  OPEN_COPY_DATA_FILE: opening file data.pkg
(PID.TID 0000.0001) // =======================================================
(PID.TID 0000.0001) // Parameter file "data.pkg"
(PID.TID 0000.0001) // =======================================================
(PID.TID 0000.0001) ># Packages (lines beginning "#" are comments)
(PID.TID 0000.0001) > &PACKAGES
(PID.TID 0000.0001) > useGMRedi=.TRUE.,
(PID.TID 0000.0001) >#usePTRACERS=.TRUE.,
(PID.TID 0000.0001) >#useMNC=.TRUE.,
(PID.TID 0000.0001) > &
(PID.TID 0000.0001) 
(PID.TID 0000.0001)  PACKAGES_BOOT: finished reading data.pkg
(PID.TID 0000.0001)  PACKAGES_BOOT: On/Off package Summary
 --------  pkgs with a standard "usePKG" On/Off switch in "data.pkg":  --------
 pkg/gmredi               compiled   and   used ( useGMRedi                = T )
 pkg/ptracers             compiled but not used ( usePTRACERS              = F )
 pkg/mnc                  compiled but not used ( useMNC                   = F )
 -------- pkgs without standard "usePKG" On/Off switch in "data.pkg":  --------
 pkg/generic_advdiff      compiled   and   used ( useGAD                   = T )
 pkg/mom_common           compiled   and   used ( momStepping              = T )
 pkg/mom_vecinv           compiled but not used ( +vectorInvariantMomentum = F )
 pkg/mom_fluxform         compiled   and   used ( & not vectorInvariantMom = T )
 pkg/cd_code              compiled   and   used ( useCDscheme              = T )
 pkg/monitor              compiled   and   used ( monitorFreq > 0.         = T )
 pkg/timeave              compiled   and   used ( taveFreq > 0.            = T )
 pkg/debug                compiled but not used ( debugMode                = F )
 pkg/rw                   compiled   and   used
 pkg/mdsio                compiled   and   used
(PID.TID 0000.0001)  PACKAGES_BOOT: End of package Summary
(PID.TID 0000.0001) 
(PID.TID 0000.0001)  GM_READPARMS: opening data.gmredi
(PID.TID 0000.0001)  OPEN_COPY_DATA_FILE: opening file data.gmredi
(PID.TID 0000.0001) // =======================================================
(PID.TID 0000.0001) // Parameter file "data.gmredi"
(PID.TID 0000.0001) // =======================================================
(PID.TID 0000.0001) ># GM+Redi package parameters:
(PID.TID 0000.0001) >
(PID.TID 0000.0001) >#-from MOM :
(PID.TID 0000.0001) ># GM_background_K: 	G & Mc.W  diffusion coefficient
(PID.TID 0000.0001) ># GM_maxSlope    :	max slope of isopycnals
(PID.TID 0000.0001) ># GM_Scrit       :	transition for scaling diffusion coefficient
(PID.TID 0000.0001) ># GM_Sd          :	half width scaling for diffusion coefficient
(PID.TID 0000.0001) ># GM_taper_scheme:	slope clipping or one of the tapering schemes
(PID.TID 0000.0001) ># GM_Kmin_horiz  :	horizontal diffusion minimum value
(PID.TID 0000.0001) >
(PID.TID 0000.0001) >#-Option parameters (needs to "define" options in GMREDI_OPTIONS.h")
(PID.TID 0000.0001) ># GM_isopycK     :	isopycnal diffusion coefficient (default=GM_background_K)
(PID.TID 0000.0001) ># GM_AdvForm     :	turn on GM Advective form       (default=Skew flux form)
(PID.TID 0000.0001) >
(PID.TID 0000.0001) > &GM_PARM01
(PID.TID 0000.0001) >  GM_background_K    = 1.e+3,
(PID.TID 0000.0001) >  GM_taper_scheme    = 'gkw91',
(PID.TID 0000.0001) >  GM_maxSlope        = 1.e-2,
(PID.TID 0000.0001) >  GM_Kmin_horiz      = 50.,
(PID.TID 0000.0001) >  GM_Scrit           = 4.e-3,
(PID.TID 0000.0001) >  GM_Sd              = 1.e-3,
(PID.TID 0000.0001) ># GM_Visbeck_alpha   = 0.,
(PID.TID 0000.0001) ># GM_Visbeck_length  = 2.e+5,
(PID.TID 0000.0001) ># GM_Visbeck_depth   = 1.e+3,
(PID.TID 0000.0001) ># GM_Visbeck_maxval_K= 2.5e+3,
(PID.TID 0000.0001) > &
(PID.TID 0000.0001) >
(PID.TID 0000.0001) >
(PID.TID 0000.0001) 
(PID.TID 0000.0001)  GM_READPARMS: finished reading data.gmredi
(PID.TID 0000.0001) SET_PARMS: done
(PID.TID 0000.0001) Enter INI_VERTICAL_GRID: setInterFDr=    T ; setCenterDr=    F
(PID.TID 0000.0001) %MON XC_max                       =   3.5800000000000E+02
(PID.TID 0000.0001) %MON XC_min                       =   2.0000000000000E+00
(PID.TID 0000.0001) %MON XC_mean                      =   1.8000000000000E+02
(PID.TID 0000.0001) %MON XC_sd                        =   1.0391663325314E+02
(PID.TID 0000.0001) %MON XG_max                       =   3.5600000000000E+02
(PID.TID 0000.0001) %MON XG_min                       =   0.0000000000000E+00
(PID.TID 0000.0001) %MON XG_mean                      =   1.7800000000000E+02
(PID.TID 0000.0001) %MON XG_sd                        =   1.0391663325314E+02
(PID.TID 0000.0001) %MON DXC_max                      =   4.4443898815675E+05
(PID.TID 0000.0001) %MON DXC_min                      =   9.2460385861875E+04
(PID.TID 0000.0001) %MON DXC_mean                     =   3.1372497618153E+05
(PID.TID 0000.0001) %MON DXC_sd                       =   1.1216447457560E+05
(PID.TID 0000.0001) %MON DXF_max                      =   4.4443898815675E+05
(PID.TID 0000.0001) %MON DXF_min                      =   9.2460385861875E+04
(PID.TID 0000.0001) %MON DXF_mean                     =   3.1372497618153E+05
(PID.TID 0000.0001) %MON DXF_sd                       =   1.1216447457560E+05
(PID.TID 0000.0001) %MON DXG_max                      =   4.4470989340816E+05
(PID.TID 0000.0001) %MON DXG_min                      =   7.7223062580781E+04
(PID.TID 0000.0001) %MON DXG_mean                     =   3.1353386340260E+05
(PID.TID 0000.0001) %MON DXG_sd                       =   1.1256651772502E+05
(PID.TID 0000.0001) %MON DXV_max                      =   4.4470989340816E+05
(PID.TID 0000.0001) %MON DXV_min                      =   7.7223062580781E+04
(PID.TID 0000.0001) %MON DXV_mean                     =   3.1353386340260E+05
(PID.TID 0000.0001) %MON DXV_sd                       =   1.1256651772502E+05
(PID.TID 0000.0001) %MON YC_max                       =   7.8000000000000E+01
(PID.TID 0000.0001) %MON YC_min                       =  -7.8000000000000E+01
(PID.TID 0000.0001) %MON YC_mean                      =   0.0000000000000E+00
(PID.TID 0000.0001) %MON YC_sd                        =   4.6173585522461E+01
(PID.TID 0000.0001) %MON YG_max                       =   7.6000000000000E+01
(PID.TID 0000.0001) %MON YG_min                       =  -8.0000000000000E+01
(PID.TID 0000.0001) %MON YG_mean                      =  -2.0000000000000E+00
(PID.TID 0000.0001) %MON YG_sd                        =   4.6173585522461E+01
(PID.TID 0000.0001) %MON DYC_max                      =   4.4470989340816E+05
(PID.TID 0000.0001) %MON DYC_min                      =   4.4470989340816E+05
(PID.TID 0000.0001) %MON DYC_mean                     =   4.4470989340814E+05
(PID.TID 0000.0001) %MON DYC_sd                       =   1.9848812371492E-08
(PID.TID 0000.0001) %MON DYF_max                      =   4.4470989340816E+05
(PID.TID 0000.0001) %MON DYF_min                      =   4.4470989340816E+05
(PID.TID 0000.0001) %MON DYF_mean                     =   4.4470989340814E+05
(PID.TID 0000.0001) %MON DYF_sd                       =   1.9848812371492E-08
(PID.TID 0000.0001) %MON DYG_max                      =   4.4470989340816E+05
(PID.TID 0000.0001) %MON DYG_min                      =   4.4470989340816E+05
(PID.TID 0000.0001) %MON DYG_mean                     =   4.4470989340814E+05
(PID.TID 0000.0001) %MON DYG_sd                       =   1.9848812371492E-08
(PID.TID 0000.0001) %MON DYU_max                      =   4.4470989340816E+05
(PID.TID 0000.0001) %MON DYU_min                      =   4.4470989340816E+05
(PID.TID 0000.0001) %MON DYU_mean                     =   4.4470989340814E+05
(PID.TID 0000.0001) %MON DYU_sd                       =   1.9848812371492E-08
(PID.TID 0000.0001) %MON RA_max                       =   1.9760627980089E+11
(PID.TID 0000.0001) %MON RA_min                       =   4.1109698667290E+10
(PID.TID 0000.0001) %MON RA_mean                      =   1.3948826965197E+11
(PID.TID 0000.0001) %MON RA_sd                        =   4.9870522472902E+10
(PID.TID 0000.0001) %MON RAW_max                      =   1.9760627980089E+11
(PID.TID 0000.0001) %MON RAW_min                      =   4.1109698667290E+10
(PID.TID 0000.0001) %MON RAW_mean                     =   1.3948826965197E+11
(PID.TID 0000.0001) %MON RAW_sd                       =   4.9870522472902E+10
(PID.TID 0000.0001) %MON RAS_max                      =   1.9772672958215E+11
(PID.TID 0000.0001) %MON RAS_min                      =   3.4334886267983E+10
(PID.TID 0000.0001) %MON RAS_mean                     =   1.3940329716694E+11
(PID.TID 0000.0001) %MON RAS_sd                       =   5.0049278732354E+10
(PID.TID 0000.0001) %MON RAZ_max                      =   1.9772672958215E+11
(PID.TID 0000.0001) %MON RAZ_min                      =   3.4334886267983E+10
(PID.TID 0000.0001) %MON RAZ_mean                     =   1.3940329716694E+11
(PID.TID 0000.0001) %MON RAZ_sd                       =   5.0049278732354E+10
(PID.TID 0000.0001) %MON AngleCS_max                  =   1.0000000000000E+00
(PID.TID 0000.0001) %MON AngleCS_min                  =   1.0000000000000E+00
(PID.TID 0000.0001) %MON AngleCS_mean                 =   1.0000000000000E+00
(PID.TID 0000.0001) %MON AngleCS_sd                   =   0.0000000000000E+00
(PID.TID 0000.0001) %MON AngleSN_max                  =   0.0000000000000E+00
(PID.TID 0000.0001) %MON AngleSN_min                  =   0.0000000000000E+00
(PID.TID 0000.0001) %MON AngleSN_mean                 =   0.0000000000000E+00
(PID.TID 0000.0001) %MON AngleSN_sd                   =   0.0000000000000E+00
(PID.TID 0000.0001)  MDS_WRITEVEC_LOC: open file: RhoRef.data
(PID.TID 0000.0001)  MDS_WR_REC_RL: iRec,Dim =         1         15
(PID.TID 0000.0001)  MDS_READ_FIELD: opening global file: bathymetry.bin
(PID.TID 0000.0001) // =======================================================
(PID.TID 0000.0001) // Field Bottom depths (ini_depths)
(PID.TID 0000.0001) // CMIN =         -5.200000000000000E+03
(PID.TID 0000.0001) // CMAX =         -1.200000000000000E+02
(PID.TID 0000.0001) // CINT =          1.881481481481482E+02
(PID.TID 0000.0001) // SYMBOLS (CMIN->CMAX): -abcdefghijklmnopqrstuvwxyz+
(PID.TID 0000.0001) //                  0.0: .
(PID.TID 0000.0001) // RANGE I (Lo:Hi:Step):(    -1:    92:     1)
(PID.TID 0000.0001) // RANGE J (Lo:Hi:Step):(    42:    -1:    -1)
(PID.TID 0000.0001) // RANGE K (Lo:Hi:Step):(   1:   1:   1)
(PID.TID 0000.0001) // =======================================================
(PID.TID 0000.0001) K =   1
(PID.TID 0000.0001) //                I=8       I=18      I=28      I=38      I=48      I=58      I=68      I=78      I=88
(PID.TID 0000.0001) // |--J--|101234567|901234567|901234567|901234567|901234567|901234567|901234567|901234567|901234567|9012
(PID.TID 0000.0001) //     42 ............................................zyxxmgfeeefefgimnpwwwy..+zyy.....yyyyoiiihhz+.....
(PID.TID 0000.0001) //     41 ..............................................................................................
(PID.TID 0000.0001) //     40 qlloqz+.++++zzz++++++..................................................................+++qllo
(PID.TID 0000.0001) //     39 slloorzzzzzzzzz+...++.....................................................yxxz........+zvusllo
(PID.TID 0000.0001) //     38 mqpporzzzzzz+++...........................................................zxxy+......zyyvsmqpp
(PID.TID 0000.0001) //     37 mmmuz..................................................................++...zy+...zttyy.+smmmu
(PID.TID 0000.0001) //     36 utt+.........................................mm++....................+++++++znmm.zoowssvuyutt+
(PID.TID 0000.0001) //     35 ++++.................................+zzz..rrmmkk+...+gghn...........+++....+nmiijlsoopuww++++
(PID.TID 0000.0001) //     34 .....................................+vvy.ggqyxv+z.ccdffhim..................+nihhikkihhm+....
(PID.TID 0000.0001) //     33 +.....................................uuz---h------aaabdefin+.................zqvddflifffw+...
(PID.TID 0000.0001) //     32 +.....................................+t----h---------acdfgnn................+++gdffkofffm+...
(PID.TID 0000.0001) //     31 ......................................-----ad--------abddegil..............qbaafccdhqqgddm....
(PID.TID 0000.0001) //     30 .....................................f----b--b------------abd............zfbb--fbcdosjfddi....
(PID.TID 0000.0001) //     29 ...................................tu----e---fjg----------abdf...........eaac--abfmijaadgi....
(PID.TID 0000.0001) //     28 .................................+xfl-------------------bdedefi.........qbaa---aemfbbaaejz....
(PID.TID 0000.0001) //     27 ................xx..............+wfgfpf--------eallc---bbbccefgi...+++y.qb-----akfa---ah......
(PID.TID 0000.0001) //     26 ................xnn...........+vd---dna------a--aicfna---aabdfghku.++xssuy-----bgca---ci......
(PID.TID 0000.0001) //     25 ................iiik...oo+...+ivd---doaa-bc--ilglf--aa---aabcghhkll...ssum+xaaacjbaabdjk......
(PID.TID 0000.0001) //     24 ..............xnheeft.kkk+...uii.aagdm----aa-----a-------bbbcdefjljjju.zummwwbbchba--abi......
(PID.TID 0000.0001) //     23 ..............xgheefp.iikw...uuw..fihi----fed-----eaaa--bbbbcdfflkjiiiq....zykccefa--abd......
(PID.TID 0000.0001) //     22 uss...........bbelffslffkk...zz.wqkeeqoheccdfa-----egabaabcdddegghliiiqq......xeeehheehccquss.
(PID.TID 0000.0001) //     21 bbeir........nbbcdjhqdddiiz.....wqfeelgghmedea-----bibbcddddddefghklnqoo........ieeflhgcccbbei
(PID.TID 0000.0001) //     20 bbder.......ldcccdgkccccidd......z.vkkktqqhegg----aaacddddddddefghkiiijl.........nhfa--gfcbbde
(PID.TID 0000.0001) //     19 cdaaf.......kddosggpaaaibbccx...+z+.....r+nlec---agaaabcddddddefikfgffff...........d---cjhcdaa
(PID.TID 0000.0001) //     18 d---d.......kglggvliaaaibbcaaeaiv++...qqzolhecccfdgkaabcdfdddeeikgfgffdd+..........d---djhd---
(PID.TID 0000.0001) //     17 c---c.......l.feewlfaaaoaa----aiv.....qqnllslmlofcdbaacceffffhhligfigeddj.........hd---ckhc---
(PID.TID 0000.0001) //     16 ba--c......tn.ddgnlfdaaqa-----lv.......vnllvllnwv--accivomfffhilhgfffeddjf........re--aeigba--
(PID.TID 0000.0001) //     15 b--dpz....+ll.ccdfhmdddlc----av.........otsxoomv---abccddfihgijkhgfffeejfff......+fd---ckfb--d
(PID.TID 0000.0001) //     14 c--mcl....weeqbaafilkfend--eagy.........hhstofft----aacdheefijkmjhhjijiffff.....zlfdaaadlfc--m
(PID.TID 0000.0001) //     13 cclbbg....nccobaaiddgkffqrqeaal.........eeutqfft------aaceeffhijlkjhhigfffq....+jgfodccflhcclb
(PID.TID 0000.0001) //     12 hgaaacw+iiicclemhdddfliigfdcaabfaaaz....ccsurqpc--------abcifffikiiihhggff.....kbbbdfffglhhgaa
(PID.TID 0000.0001) //     11 gcaaacbbifccennhbbdefnihgfdccaaaa----..dcccnt.ncab-------aabcdfilhggjiggff....l---abcefjlkgcaa
(PID.TID 0000.0001) //     10 fcaaccbdaacfrllfbbdegkmmljhfdddba----d.dcccfx.nyrebaba----abcdgilhfeegijgi..+w--aa-abcfilkfcaa
(PID.TID 0000.0001) //      9 ffcdcccaaaoqsolfdeehikihhlllgfedcccccdmdcccf.vyfaaaaaaaa--abdehmjhfeeefglv.++w-----abcdfklffcd
(PID.TID 0000.0001) //      8 iffjklcaafddffeeccvznkfffhhhlkjifgjkkfeeddfsyvcaaaaaaccdcccdfgjligedbbdeg+.++xffn--cfddefliffj
(PID.TID 0000.0001) //      7 mqnnbbkkf--bmbaabbgtykfddeffeeddccdfhlffeelfbaaaaaacddeghgjgjlligeddaaabedfiiiiiisvkfkecchmqnn
(PID.TID 0000.0001) //      6 ca-------------aabdelttdddedddddccccdfkkiiffbaaaabcdgimmkmefecaaabbbaaabbdfiiiiispmmregifcca--
(PID.TID 0000.0001) //      5 -------a-------aacdehhhiddeddddddcccdfiikomodddefffmlmigedccaaaaaaaababbbdfiijsqgeccccbaa-----
(PID.TID 0000.0001) //      4 -ahebaabbbbbeihffgijiiiijpywnnpokkomkiiijmmmolkommmgffeeedccaaaaaabbcccefhmz..yjgeccccbaa--ahe
(PID.TID 0000.0001) //      3 ffhhrpjiiwyy............................yyotmjjjjgfeeeeeeddeffffheddeghjkzz..yqjgeddccdbbgffhh
(PID.TID 0000.0001) //      2 ............................................zyxxmgfeeefefgimnpwwwy..+zyy.....yyyyoiiihhz+.....
(PID.TID 0000.0001) //      1 ..............................................................................................
(PID.TID 0000.0001) //      0 qlloqz+.++++zzz++++++..................................................................+++qllo
(PID.TID 0000.0001) //     -1 slloorzzzzzzzzz+...++.....................................................yxxz........+zvusllo
(PID.TID 0000.0001) // =======================================================
(PID.TID 0000.0001) // END OF FIELD                                          =
(PID.TID 0000.0001) // =======================================================
(PID.TID 0000.0001) 
(PID.TID 0000.0001) // =======================================================
(PID.TID 0000.0001) // Field Surface reference r-position (ini_depths)
(PID.TID 0000.0001) // CMIN =          1.000000000000000E+32
(PID.TID 0000.0001) // CMAX =         -1.000000000000000E+32
(PID.TID 0000.0001) // CINT =          0.000000000000000E+00
(PID.TID 0000.0001) // SYMBOLS (CMIN->CMAX): -abcdefghijklmnopqrstuvwxyz+
(PID.TID 0000.0001) //                  0.0: .
(PID.TID 0000.0001) // RANGE I (Lo:Hi:Step):(    -1:    92:     1)
(PID.TID 0000.0001) // RANGE J (Lo:Hi:Step):(    42:    -1:    -1)
(PID.TID 0000.0001) // RANGE K (Lo:Hi:Step):(   1:   1:   1)
(PID.TID 0000.0001) // =======================================================
(PID.TID 0000.0001) // =======================================================
(PID.TID 0000.0001) // END OF FIELD                                          =
(PID.TID 0000.0001) // =======================================================
(PID.TID 0000.0001) 
(PID.TID 0000.0001) // =======================================================
(PID.TID 0000.0001) // Field Model R_low (ini_masks_etc)
(PID.TID 0000.0001) // CMIN =         -5.200000000000000E+03
(PID.TID 0000.0001) // CMAX =         -1.200000000000000E+02
(PID.TID 0000.0001) // CINT =          1.881481481481482E+02
(PID.TID 0000.0001) // SYMBOLS (CMIN->CMAX): -abcdefghijklmnopqrstuvwxyz+
(PID.TID 0000.0001) //                  0.0: .
(PID.TID 0000.0001) // RANGE I (Lo:Hi:Step):(    -1:    92:     1)
(PID.TID 0000.0001) // RANGE J (Lo:Hi:Step):(    42:    -1:    -1)
(PID.TID 0000.0001) // RANGE K (Lo:Hi:Step):(   1:   1:   1)
(PID.TID 0000.0001) // =======================================================
(PID.TID 0000.0001) K =   1
(PID.TID 0000.0001) //                I=8       I=18      I=28      I=38      I=48      I=58      I=68      I=78      I=88
(PID.TID 0000.0001) // |--J--|101234567|901234567|901234567|901234567|901234567|901234567|901234567|901234567|901234567|9012
(PID.TID 0000.0001) //     42 ............................................zyxxmgfeeefefgimnpwwwy..+zyy.....yyyyoiiihhz+.....
(PID.TID 0000.0001) //     41 ..............................................................................................
(PID.TID 0000.0001) //     40 qlloqz+.++++zzz++++++..................................................................+++qllo
(PID.TID 0000.0001) //     39 slloorzzzzzzzzz+...++.....................................................yxxz........+zvusllo
(PID.TID 0000.0001) //     38 mqpporzzzzzz+++...........................................................zxxy+......zyyvsmqpp
(PID.TID 0000.0001) //     37 mmmuz..................................................................++...zy+...yttyy.+smmmu
(PID.TID 0000.0001) //     36 utt+.........................................mm++....................+++++++znmm.yoowssvuyutt+
(PID.TID 0000.0001) //     35 ++++.................................+zzz..rrmmkk+...+gghn...........+++....+nmiijlsoopuww++++
(PID.TID 0000.0001) //     34 .....................................+vvy.ggqyxv+y.ccdffhim..................+nihhikkihhm+....
(PID.TID 0000.0001) //     33 +.....................................uuz---h------aaabdefin+.................zqvddflifffw+...
(PID.TID 0000.0001) //     32 +.....................................+t----h---------acdfgnn................+++gdffkofffm+...
(PID.TID 0000.0001) //     31 ......................................-----ad--------abddegil..............qbaafccdhqqgddm....
(PID.TID 0000.0001) //     30 .....................................f----b--b------------abd............zfbb--fbcdosjfddi....
(PID.TID 0000.0001) //     29 ...................................tu----e---fjg----------abdf...........eaac--abfmijaadgi....
(PID.TID 0000.0001) //     28 .................................+xfl-------------------bdedefi.........qbaa---aemfbbaaejz....
(PID.TID 0000.0001) //     27 ................xx..............+wfgfpf--------eallc---bbbccefgi...+++x.qb-----akfa---ah......
(PID.TID 0000.0001) //     26 ................xnn...........+vd---dna------a--aicfna---aabdfghku.++xssuy-----bgca---ci......
(PID.TID 0000.0001) //     25 ................iiik...oo+...+ivd---doaa-bc--ilglf--aa---aabcghhkll...ssum+xaaacjbaabdjk......
(PID.TID 0000.0001) //     24 ..............xnheeft.kkk+...uii.aagdm----aa-----a-------bbbcdefjljjju.zummwwbbchba--abi......
(PID.TID 0000.0001) //     23 ..............xgheefp.iikw...uuw..fihi----fed-----eaaa--bbbbcdfflkjiiiq....zykccefa--abd......
(PID.TID 0000.0001) //     22 uss...........bbelffslffkk...zz.wqkeeqoheccdfa-----egabaabcdddegghliiiqq......xeeehheehccquss.
(PID.TID 0000.0001) //     21 bbeir........nbbcdjhqdddiiz.....wqfeelgghmedea-----bibbcddddddefghklnqoo........ieeflhgcccbbei
(PID.TID 0000.0001) //     20 bbder.......ldcccdgkccccidd......z.vkkktqqhegg----aaacddddddddefghkiiijl.........nhfa--gfcbbde
(PID.TID 0000.0001) //     19 cdaaf.......kddosggpaaaibbccx...+z+.....r+nlec---agaaabcddccddefikfgffff...........d---cjhcdaa
(PID.TID 0000.0001) //     18 d---d.......kglggvliaaaibbcaaeaiv++...qqzolhecccfdgkaabcdfccdeeikgfgffdd+..........d---djhd---
(PID.TID 0000.0001) //     17 c---c.......l.feewlfaaaoaa----aiv.....qqnllslmlofcdbaacceffffhhligfigeddj.........hd---ckhc---
(PID.TID 0000.0001) //     16 ba--c......tn.ddgnlfdaaqa-----lv.......vnllvllnwv--accivomfffhilhgfffeddjf........re--aeigba--
(PID.TID 0000.0001) //     15 b--dpz....+ll.ccdfhmdddlc----av.........otsxoomv---abccddfihgijkhgfffeejfff......+fd---ckfb--d
(PID.TID 0000.0001) //     14 c--mcl....weeqbaafilkfend--eagy.........hhstofft----aacdheefijkmjhhjijiffff.....zlfdaaadlfc--m
(PID.TID 0000.0001) //     13 cclbbg....nccobaaiddgkffqrqeaal.........eeutqfft------aaceeffhijlkjhhigfffq....+jgfodccflhcclb
(PID.TID 0000.0001) //     12 hgaaacw+iiicclemhdddfliigfdcaabfaaaz....ccsurqpc--------abcifffikiiihhggff.....kbbbdfffglhhgaa
(PID.TID 0000.0001) //     11 gcaaacbbifccennhbbdefnihgfdccaaaa----..dcccnt.ncab-------aabcdfilhggjiggff....l---abcefjlkgcaa
(PID.TID 0000.0001) //     10 fcaaccbdaacfrllfbbdegkmmljhfdddba----d.dcccfx.nyrebaba----abcdgilhfeegijgi..+w--aa-abcfilkfcaa
(PID.TID 0000.0001) //      9 ffcdcccaaaoqsolfdeehikihhlllgfedcccccdmdcccf.vyfaaaaaaaa--abdehmjhfeeefglv.++w-----abcdfklffcd
(PID.TID 0000.0001) //      8 iffjklcaafddffeeccvznkfffhhhlkjifgjkkfeeddfsyvcaaaaaaccdcccdfgjligedbbceg+.++xffn--cfddefliffj
(PID.TID 0000.0001) //      7 mqnnbbkkf--bmbaabbgtykfddeffeeddccdfhlffeelfbaaaaaacddeghgjgjlligeddaaabedfiiiiiisvkfkecchmqnn
(PID.TID 0000.0001) //      6 ca-------------aabcelttdddedddddccccdfkkiiffbaaaabcdgimmkmefecaaabbbaaabbdfiiiiispmmregifcca--
(PID.TID 0000.0001) //      5 -------a-------aaccehhhiddeddddddcccdfiikomodddefffmlmigedccaaaaaaaababbbdfiijsqgeccccbaa-----
(PID.TID 0000.0001) //      4 -ahebaabbbbbeihffgijiiiijpywnnpokkomkiiijmmmolkommmgffeeedccaaaaaabbcccefhmz..yjgeccccbaa--ahe
(PID.TID 0000.0001) //      3 ffhhrpjiiwyy............................yxotmjjjjgfeeeeeeddeffffheddeghjkyy..yqjgeddccdbbgffhh
(PID.TID 0000.0001) //      2 ............................................zyxxmgfeeefefgimnpwwwy..+zyy.....yyyyoiiihhz+.....
(PID.TID 0000.0001) //      1 ..............................................................................................
(PID.TID 0000.0001) //      0 qlloqz+.++++zzz++++++..................................................................+++qllo
(PID.TID 0000.0001) //     -1 slloorzzzzzzzzz+...++.....................................................yxxz........+zvusllo
(PID.TID 0000.0001) // =======================================================
(PID.TID 0000.0001) // END OF FIELD                                          =
(PID.TID 0000.0001) // =======================================================
(PID.TID 0000.0001) 
(PID.TID 0000.0001) // =======================================================
(PID.TID 0000.0001) // Field Model Ro_surf (ini_masks_etc)
(PID.TID 0000.0001) // CMIN =          1.000000000000000E+32
(PID.TID 0000.0001) // CMAX =         -1.000000000000000E+32
(PID.TID 0000.0001) // CINT =          0.000000000000000E+00
(PID.TID 0000.0001) // SYMBOLS (CMIN->CMAX): -abcdefghijklmnopqrstuvwxyz+
(PID.TID 0000.0001) //                  0.0: .
(PID.TID 0000.0001) // RANGE I (Lo:Hi:Step):(    -1:    92:     1)
(PID.TID 0000.0001) // RANGE J (Lo:Hi:Step):(    42:    -1:    -1)
(PID.TID 0000.0001) // RANGE K (Lo:Hi:Step):(   1:   1:   1)
(PID.TID 0000.0001) // =======================================================
(PID.TID 0000.0001) // =======================================================
(PID.TID 0000.0001) // END OF FIELD                                          =
(PID.TID 0000.0001) // =======================================================
(PID.TID 0000.0001) 
(PID.TID 0000.0001) // =======================================================
(PID.TID 0000.0001) // Field hFacC at iteration          0
(PID.TID 0000.0001) // CMIN =          1.000000000000000E+00
(PID.TID 0000.0001) // CMAX =          1.000000000000000E+00
(PID.TID 0000.0001) // CINT =          0.000000000000000E+00
(PID.TID 0000.0001) // SYMBOLS (CMIN->CMAX): -abcdefghijklmnopqrstuvwxyz+
(PID.TID 0000.0001) //                  0.0: .
(PID.TID 0000.0001) // RANGE I (Lo:Hi:Step):(    -1:    92:     1)
(PID.TID 0000.0001) // RANGE J (Lo:Hi:Step):(    42:    -1:    -1)
(PID.TID 0000.0001) // RANGE K (Lo:Hi:Step):(   1:   1:   1)
(PID.TID 0000.0001) // =======================================================
(PID.TID 0000.0001) // =======================================================
(PID.TID 0000.0001) // END OF FIELD                                          =
(PID.TID 0000.0001) // =======================================================
(PID.TID 0000.0001) 
(PID.TID 0000.0001) // =======================================================
(PID.TID 0000.0001) // Field hFacW at iteration          0
(PID.TID 0000.0001) // CMIN =          1.000000000000000E+00
(PID.TID 0000.0001) // CMAX =          1.000000000000000E+00
(PID.TID 0000.0001) // CINT =          0.000000000000000E+00
(PID.TID 0000.0001) // SYMBOLS (CMIN->CMAX): -abcdefghijklmnopqrstuvwxyz+
(PID.TID 0000.0001) //                  0.0: .
(PID.TID 0000.0001) // RANGE I (Lo:Hi:Step):(    -1:    92:     1)
(PID.TID 0000.0001) // RANGE J (Lo:Hi:Step):(    42:    -1:    -1)
(PID.TID 0000.0001) // RANGE K (Lo:Hi:Step):(   1:   1:   1)
(PID.TID 0000.0001) // =======================================================
(PID.TID 0000.0001) // =======================================================
(PID.TID 0000.0001) // END OF FIELD                                          =
(PID.TID 0000.0001) // =======================================================
(PID.TID 0000.0001) 
(PID.TID 0000.0001) // =======================================================
(PID.TID 0000.0001) // Field hFacS at iteration          0
(PID.TID 0000.0001) // CMIN =          1.000000000000000E+00
(PID.TID 0000.0001) // CMAX =          1.000000000000000E+00
(PID.TID 0000.0001) // CINT =          0.000000000000000E+00
(PID.TID 0000.0001) // SYMBOLS (CMIN->CMAX): -abcdefghijklmnopqrstuvwxyz+
(PID.TID 0000.0001) //                  0.0: .
(PID.TID 0000.0001) // RANGE I (Lo:Hi:Step):(    -1:    92:     1)
(PID.TID 0000.0001) // RANGE J (Lo:Hi:Step):(    42:    -1:    -1)
(PID.TID 0000.0001) // RANGE K (Lo:Hi:Step):(   1:   1:   1)
(PID.TID 0000.0001) // =======================================================
(PID.TID 0000.0001) // =======================================================
(PID.TID 0000.0001) // END OF FIELD                                          =
(PID.TID 0000.0001) // =======================================================
(PID.TID 0000.0001) 
(PID.TID 0000.0001) GAD_INIT_FIXED: GAD_OlMinSize=  1  0  1
(PID.TID 0000.0001) 
(PID.TID 0000.0001) // ===================================
(PID.TID 0000.0001) // GAD parameters :
(PID.TID 0000.0001) // ===================================
(PID.TID 0000.0001) tempAdvScheme =   /* Temp. Horiz.Advection scheme selector */
(PID.TID 0000.0001)                       2
(PID.TID 0000.0001)     ;
(PID.TID 0000.0001) tempVertAdvScheme =   /* Temp. Vert. Advection scheme selector */
(PID.TID 0000.0001)                       2
(PID.TID 0000.0001)     ;
(PID.TID 0000.0001) tempMultiDimAdvec =   /* use Muti-Dim Advec method for Temp */
(PID.TID 0000.0001)                   F
(PID.TID 0000.0001)     ;
(PID.TID 0000.0001) tempSOM_Advection = /* use 2nd Order Moment Advection for Temp */
(PID.TID 0000.0001)                   F
(PID.TID 0000.0001)     ;
(PID.TID 0000.0001) AdamsBashforthGt = /* apply Adams-Bashforth extrapolation on Gt */
(PID.TID 0000.0001)                   T
(PID.TID 0000.0001)     ;
(PID.TID 0000.0001) AdamsBashforth_T = /* apply Adams-Bashforth extrapolation on Temp */
(PID.TID 0000.0001)                   F
(PID.TID 0000.0001)     ;
(PID.TID 0000.0001) saltAdvScheme =   /* Salt. Horiz.advection scheme selector */
(PID.TID 0000.0001)                       2
(PID.TID 0000.0001)     ;
(PID.TID 0000.0001) saltVertAdvScheme =   /* Salt. Vert. Advection scheme selector */
(PID.TID 0000.0001)                       2
(PID.TID 0000.0001)     ;
(PID.TID 0000.0001) saltMultiDimAdvec =   /* use Muti-Dim Advec method for Salt */
(PID.TID 0000.0001)                   F
(PID.TID 0000.0001)     ;
(PID.TID 0000.0001) saltSOM_Advection = /* use 2nd Order Moment Advection for Salt */
(PID.TID 0000.0001)                   F
(PID.TID 0000.0001)     ;
(PID.TID 0000.0001) AdamsBashforthGs = /* apply Adams-Bashforth extrapolation on Gs */
(PID.TID 0000.0001)                   T
(PID.TID 0000.0001)     ;
(PID.TID 0000.0001) AdamsBashforth_S = /* apply Adams-Bashforth extrapolation on Salt */
(PID.TID 0000.0001)                   F
(PID.TID 0000.0001)     ;
(PID.TID 0000.0001) // ===================================
(PID.TID 0000.0001) %MON fCori_max                    =   1.4265546244797E-04
(PID.TID 0000.0001) %MON fCori_min                    =  -1.4265546244797E-04
(PID.TID 0000.0001) %MON fCori_mean                   =  -1.2347858075529E-21
(PID.TID 0000.0001) %MON fCori_sd                     =   9.6599226301547E-05
(PID.TID 0000.0001) %MON fCoriG_max                   =   1.4151032568025E-04
(PID.TID 0000.0001) %MON fCoriG_min                   =  -1.4362679550910E-04
(PID.TID 0000.0001) %MON fCoriG_mean                  =  -3.5906698877274E-06
(PID.TID 0000.0001) %MON fCoriG_sd                    =   9.6548915696244E-05
(PID.TID 0000.0001) %MON fCoriCos_max                 =   1.4575362704741E-04
(PID.TID 0000.0001) %MON fCoriCos_min                 =   3.0322354601388E-05
(PID.TID 0000.0001) %MON fCoriCos_mean                =   1.0288600773632E-04
(PID.TID 0000.0001) %MON fCoriCos_sd                  =   3.6784304327266E-05
(PID.TID 0000.0001) INI_CG2D: CG2D normalisation factor =  6.5682677425711703E-05
(PID.TID 0000.0001) 
(PID.TID 0000.0001) // =======================================================
(PID.TID 0000.0001) // Model configuration
(PID.TID 0000.0001) // =======================================================
(PID.TID 0000.0001) //
(PID.TID 0000.0001) // "Physical" paramters ( PARM01 in namelist )
(PID.TID 0000.0001) //
(PID.TID 0000.0001) buoyancyRelation = /* Type of relation to get Buoyancy */
(PID.TID 0000.0001)               'OCEANIC'
(PID.TID 0000.0001)     ;
(PID.TID 0000.0001) fluidIsAir   =  /* fluid major constituent is Air */
(PID.TID 0000.0001)                   F
(PID.TID 0000.0001)     ;
(PID.TID 0000.0001) fluidIsWater =  /* fluid major constituent is Water */
(PID.TID 0000.0001)                   T
(PID.TID 0000.0001)     ;
(PID.TID 0000.0001) usingPCoords =  /* use p (or p*) vertical coordinate */
(PID.TID 0000.0001)                   F
(PID.TID 0000.0001)     ;
(PID.TID 0000.0001) usingZCoords =  /* use z (or z*) vertical coordinate */
(PID.TID 0000.0001)                   T
(PID.TID 0000.0001)     ;
(PID.TID 0000.0001) tRef =   /* Reference temperature profile ( oC or K ) */
(PID.TID 0000.0001)    15 @  2.000000000000000E+01              /* K =  1: 15 */
(PID.TID 0000.0001)     ;
(PID.TID 0000.0001) sRef =   /* Reference salinity profile ( g/kg ) */
(PID.TID 0000.0001)    15 @  3.500000000000000E+01              /* K =  1: 15 */
(PID.TID 0000.0001)     ;
(PID.TID 0000.0001) useStrainTensionVisc= /* Use StrainTension Form of Viscous Operator */
(PID.TID 0000.0001)                   F
(PID.TID 0000.0001)     ;
(PID.TID 0000.0001) useVariableVisc = /* Use variable horizontal viscosity */
(PID.TID 0000.0001)                   F
(PID.TID 0000.0001)     ;
(PID.TID 0000.0001) useHarmonicVisc = /* Use harmonic horizontal viscosity */
(PID.TID 0000.0001)                   T
(PID.TID 0000.0001)     ;
(PID.TID 0000.0001) useBiharmonicVisc= /* Use biharmonic horiz.  viscosity */
(PID.TID 0000.0001)                   F
(PID.TID 0000.0001)     ;
(PID.TID 0000.0001) useSmag3D = /* Use isotropic 3-D Smagorinsky viscosity */
(PID.TID 0000.0001)                   F
(PID.TID 0000.0001)     ;
(PID.TID 0000.0001) viscAh  =   /* Lateral harmonic viscosity ( m^2/s ) */
(PID.TID 0000.0001)                 5.000000000000000E+05
(PID.TID 0000.0001)     ;
(PID.TID 0000.0001) viscA4  =   /* Lateral biharmonic viscosity ( m^4/s ) */
(PID.TID 0000.0001)                 0.000000000000000E+00
(PID.TID 0000.0001)     ;
(PID.TID 0000.0001) no_slip_sides =  /* Viscous BCs: No-slip sides */
(PID.TID 0000.0001)                   T
(PID.TID 0000.0001)     ;
(PID.TID 0000.0001) sideDragFactor = /* side-drag scaling factor (non-dim) */
(PID.TID 0000.0001)                 2.000000000000000E+00
(PID.TID 0000.0001)     ;
(PID.TID 0000.0001) viscArNr = /* vertical profile of vertical viscosity ( m^2/s )*/
(PID.TID 0000.0001)    15 @  1.000000000000000E-03              /* K =  1: 15 */
(PID.TID 0000.0001)     ;
(PID.TID 0000.0001) no_slip_bottom =  /* Viscous BCs: No-slip bottom */
(PID.TID 0000.0001)                   T
(PID.TID 0000.0001)     ;
(PID.TID 0000.0001) bottomVisc_pCell = /* Partial-cell in bottom Visc. BC */
(PID.TID 0000.0001)                   F
(PID.TID 0000.0001)     ;
(PID.TID 0000.0001) bottomDragLinear = /* linear bottom-drag coefficient ( m/s ) */
(PID.TID 0000.0001)                 0.000000000000000E+00
(PID.TID 0000.0001)     ;
(PID.TID 0000.0001) bottomDragQuadratic = /* quadratic bottom-drag coefficient (-) */
(PID.TID 0000.0001)                 0.000000000000000E+00
(PID.TID 0000.0001)     ;
(PID.TID 0000.0001) selectBotDragQuadr = /* select quadratic bottom drag options */
(PID.TID 0000.0001)                      -1
(PID.TID 0000.0001)     ;
(PID.TID 0000.0001) diffKhT =   /* Laplacian diffusion of heat laterally ( m^2/s ) */
(PID.TID 0000.0001)                 0.000000000000000E+00
(PID.TID 0000.0001)     ;
(PID.TID 0000.0001) diffK4T =   /* Biharmonic diffusion of heat laterally ( m^4/s ) */
(PID.TID 0000.0001)                 0.000000000000000E+00
(PID.TID 0000.0001)     ;
(PID.TID 0000.0001) diffKhS =   /* Laplacian diffusion of salt laterally ( m^2/s ) */
(PID.TID 0000.0001)                 0.000000000000000E+00
(PID.TID 0000.0001)     ;
(PID.TID 0000.0001) diffK4S =   /* Biharmonic diffusion of salt laterally ( m^4/s ) */
(PID.TID 0000.0001)                 0.000000000000000E+00
(PID.TID 0000.0001)     ;
(PID.TID 0000.0001) diffKrNrT = /* vertical profile of vertical diffusion of Temp ( m^2/s )*/
(PID.TID 0000.0001)    15 @  3.000000000000000E-05              /* K =  1: 15 */
(PID.TID 0000.0001)     ;
(PID.TID 0000.0001) diffKrNrS = /* vertical profile of vertical diffusion of Salt ( m^2/s )*/
(PID.TID 0000.0001)    15 @  3.000000000000000E-05              /* K =  1: 15 */
(PID.TID 0000.0001)     ;
(PID.TID 0000.0001) diffKrBL79surf = /* Surface diffusion for Bryan and Lewis 79 ( m^2/s ) */
(PID.TID 0000.0001)                 0.000000000000000E+00
(PID.TID 0000.0001)     ;
(PID.TID 0000.0001) diffKrBL79deep = /* Deep diffusion for Bryan and Lewis 1979 ( m^2/s ) */
(PID.TID 0000.0001)                 0.000000000000000E+00
(PID.TID 0000.0001)     ;
(PID.TID 0000.0001) diffKrBL79scl = /* Depth scale for Bryan and Lewis 1979 ( m ) */
(PID.TID 0000.0001)                 2.000000000000000E+02
(PID.TID 0000.0001)     ;
(PID.TID 0000.0001) diffKrBL79Ho = /* Turning depth for Bryan and Lewis 1979 ( m ) */
(PID.TID 0000.0001)                -2.000000000000000E+03
(PID.TID 0000.0001)     ;
(PID.TID 0000.0001) ivdc_kappa = /* Implicit Vertical Diffusivity for Convection ( m^2/s) */
(PID.TID 0000.0001)                 1.000000000000000E+02
(PID.TID 0000.0001)     ;
(PID.TID 0000.0001) hMixCriteria=  /* Criteria for mixed-layer diagnostic */
(PID.TID 0000.0001)                -8.000000000000000E-01
(PID.TID 0000.0001)     ;
(PID.TID 0000.0001) dRhoSmall =  /* Parameter for mixed-layer diagnostic */
(PID.TID 0000.0001)                 1.000000000000000E-06
(PID.TID 0000.0001)     ;
(PID.TID 0000.0001) hMixSmooth=  /* Smoothing parameter for mixed-layer diagnostic */
(PID.TID 0000.0001)                 0.000000000000000E+00
(PID.TID 0000.0001)     ;
(PID.TID 0000.0001) eosType =  /* Type of Equation of State */
(PID.TID 0000.0001)               'JMD95Z'
(PID.TID 0000.0001)     ;
(PID.TID 0000.0001) eosRefP0 = /* Reference atmospheric pressure for EOS ( Pa ) */
(PID.TID 0000.0001)                 1.013250000000000E+05
(PID.TID 0000.0001)     ;
(PID.TID 0000.0001) selectP_inEOS_Zc = /* select pressure to use in EOS (0,1,2,3) */
(PID.TID 0000.0001)                       0
(PID.TID 0000.0001)     0= -g*rhoConst*z ; 1= pRef (from tRef,sRef); 2= Hyd P ; 3= Hyd+NH P
(PID.TID 0000.0001)     ;
(PID.TID 0000.0001) surf_pRef = /* Surface reference pressure ( Pa ) */
(PID.TID 0000.0001)                 1.013250000000000E+05
(PID.TID 0000.0001)     ;
(PID.TID 0000.0001) HeatCapacity_Cp =  /* Specific heat capacity ( J/kg/K ) */
(PID.TID 0000.0001)                 3.994000000000000E+03
(PID.TID 0000.0001)     ;
(PID.TID 0000.0001) celsius2K = /* 0 degree Celsius converted to Kelvin ( K ) */
(PID.TID 0000.0001)                 2.731500000000000E+02
(PID.TID 0000.0001)     ;
(PID.TID 0000.0001) rhoConst  = /* Reference density (Boussinesq)  ( kg/m^3 ) */
(PID.TID 0000.0001)                 1.035000000000000E+03
(PID.TID 0000.0001)     ;
(PID.TID 0000.0001) rhoFacC = /* normalized Reference density @ cell-Center (-) */
(PID.TID 0000.0001)    15 @  1.000000000000000E+00              /* K =  1: 15 */
(PID.TID 0000.0001)     ;
(PID.TID 0000.0001) rhoFacF = /* normalized Reference density @ W-Interface (-) */
(PID.TID 0000.0001)    16 @  1.000000000000000E+00              /* K =  1: 16 */
(PID.TID 0000.0001)     ;
(PID.TID 0000.0001) rhoConstFresh = /* Fresh-water reference density ( kg/m^3 ) */
(PID.TID 0000.0001)                 1.000000000000000E+03
(PID.TID 0000.0001)     ;
(PID.TID 0000.0001) gravity =   /* Gravitational acceleration ( m/s^2 ) */
(PID.TID 0000.0001)                 9.810000000000000E+00
(PID.TID 0000.0001)     ;
(PID.TID 0000.0001) gBaro =   /* Barotropic gravity ( m/s^2 ) */
(PID.TID 0000.0001)                 9.810000000000000E+00
(PID.TID 0000.0001)     ;
(PID.TID 0000.0001) gravFacC = /* gravity factor (vs surf.) @ cell-Center (-) */
(PID.TID 0000.0001)    15 @  1.000000000000000E+00              /* K =  1: 15 */
(PID.TID 0000.0001)     ;
(PID.TID 0000.0001) gravFacF = /* gravity factor (vs surf.) @ W-Interface (-) */
(PID.TID 0000.0001)    16 @  1.000000000000000E+00              /* K =  1: 16 */
(PID.TID 0000.0001)     ;
(PID.TID 0000.0001) rotationPeriod =   /* Rotation Period ( s ) */
(PID.TID 0000.0001)                 8.616400000000000E+04
(PID.TID 0000.0001)     ;
(PID.TID 0000.0001) omega =   /* Angular velocity ( rad/s ) */
(PID.TID 0000.0001)                 7.292123516990375E-05
(PID.TID 0000.0001)     ;
(PID.TID 0000.0001) f0 =   /* Reference coriolis parameter ( 1/s ) */
(PID.TID 0000.0001)                 1.000000000000000E-04
(PID.TID 0000.0001)     ;
(PID.TID 0000.0001) beta =   /* Beta ( 1/(m.s) ) */
(PID.TID 0000.0001)                 9.999999999999999E-12
(PID.TID 0000.0001)     ;
(PID.TID 0000.0001) fPrime =   /* Second coriolis parameter ( 1/s ) */
(PID.TID 0000.0001)                 0.000000000000000E+00
(PID.TID 0000.0001)     ;
(PID.TID 0000.0001) rigidLid =   /* Rigid lid on/off flag */
(PID.TID 0000.0001)                   F
(PID.TID 0000.0001)     ;
(PID.TID 0000.0001) implicitFreeSurface =   /* Implicit free surface on/off flag */
(PID.TID 0000.0001)                   T
(PID.TID 0000.0001)     ;
(PID.TID 0000.0001) freeSurfFac =   /* Implicit free surface factor */
(PID.TID 0000.0001)                 1.000000000000000E+00
(PID.TID 0000.0001)     ;
(PID.TID 0000.0001) implicSurfPress =  /* Surface Pressure implicit factor (0-1) */
(PID.TID 0000.0001)                 1.000000000000000E+00
(PID.TID 0000.0001)     ;
(PID.TID 0000.0001) implicDiv2DFlow =  /* Barot. Flow Div. implicit factor (0-1) */
(PID.TID 0000.0001)                 1.000000000000000E+00
(PID.TID 0000.0001)     ;
(PID.TID 0000.0001) uniformLin_PhiSurf = /* use uniform Bo_surf on/off flag */
(PID.TID 0000.0001)                   T
(PID.TID 0000.0001)     ;
(PID.TID 0000.0001) uniformFreeSurfLev = /* free-surface level-index is uniform */
(PID.TID 0000.0001)                   T
(PID.TID 0000.0001)     ;
(PID.TID 0000.0001) sIceLoadFac =  /* scale factor for sIceLoad (0-1) */
(PID.TID 0000.0001)                 1.000000000000000E+00
(PID.TID 0000.0001)     ;
(PID.TID 0000.0001) hFacMin =   /* minimum partial cell factor (hFac) */
(PID.TID 0000.0001)                 5.000000000000000E-02
(PID.TID 0000.0001)     ;
(PID.TID 0000.0001) hFacMinDr = /* minimum partial cell thickness ( m) */
(PID.TID 0000.0001)                 5.000000000000000E+01
(PID.TID 0000.0001)     ;
(PID.TID 0000.0001) exactConserv =  /* Exact Volume Conservation on/off flag */
(PID.TID 0000.0001)                   T
(PID.TID 0000.0001)     ;
(PID.TID 0000.0001) linFSConserveTr = /* Tracer correction for Lin Free Surface on/off flag */
(PID.TID 0000.0001)                   F
(PID.TID 0000.0001)     ;
(PID.TID 0000.0001) nonlinFreeSurf = /* Non-linear Free Surf. options (-1,0,1,2,3)*/
(PID.TID 0000.0001)                       0
(PID.TID 0000.0001)      -1,0= Off ; 1,2,3= On, 2=+rescale gU,gV, 3=+update cg2d solv.
(PID.TID 0000.0001)     ;
(PID.TID 0000.0001) hFacInf =   /* lower threshold for hFac (nonlinFreeSurf only)*/
(PID.TID 0000.0001)                 2.000000000000000E-01
(PID.TID 0000.0001)     ;
(PID.TID 0000.0001) hFacSup =   /* upper threshold for hFac (nonlinFreeSurf only)*/
(PID.TID 0000.0001)                 2.000000000000000E+00
(PID.TID 0000.0001)     ;
(PID.TID 0000.0001) select_rStar = /* r* Vertical coord. options (=0 r coord.; >0 uses r*)*/
(PID.TID 0000.0001)                       0
(PID.TID 0000.0001)     ;
(PID.TID 0000.0001) useRealFreshWaterFlux = /* Real Fresh Water Flux on/off flag*/
(PID.TID 0000.0001)                   T
(PID.TID 0000.0001)     ;
(PID.TID 0000.0001) temp_EvPrRn = /* Temp. of Evap/Prec/R (UNSET=use local T)(oC)*/
(PID.TID 0000.0001)                 1.234567000000000E+05
(PID.TID 0000.0001)     ;
(PID.TID 0000.0001) salt_EvPrRn = /* Salin. of Evap/Prec/R (UNSET=use local S)(g/kg)*/
(PID.TID 0000.0001)                 0.000000000000000E+00
(PID.TID 0000.0001)     ;
(PID.TID 0000.0001) selectAddFluid = /* option for mass source/sink of fluid (=0: off) */
(PID.TID 0000.0001)                       0
(PID.TID 0000.0001)     ;
(PID.TID 0000.0001) temp_addMass = /* Temp. of addMass array (UNSET=use local T)(oC)*/
(PID.TID 0000.0001)                 1.234567000000000E+05
(PID.TID 0000.0001)     ;
(PID.TID 0000.0001) salt_addMass = /* Salin. of addMass array (UNSET=use local S)(g/kg)*/
(PID.TID 0000.0001)                 0.000000000000000E+00
(PID.TID 0000.0001)     ;
(PID.TID 0000.0001) convertFW2Salt = /* convert F.W. Flux to Salt Flux (-1=use local S)(g/kg)*/
(PID.TID 0000.0001)                -1.000000000000000E+00
(PID.TID 0000.0001)     ;
(PID.TID 0000.0001) use3Dsolver = /* use 3-D pressure solver on/off flag */
(PID.TID 0000.0001)                   F
(PID.TID 0000.0001)     ;
(PID.TID 0000.0001) nonHydrostatic =  /* Non-Hydrostatic on/off flag */
(PID.TID 0000.0001)                   F
(PID.TID 0000.0001)     ;
(PID.TID 0000.0001) nh_Am2 = /* Non-Hydrostatic terms scaling factor */
(PID.TID 0000.0001)                 1.000000000000000E+00
(PID.TID 0000.0001)     ;
(PID.TID 0000.0001) implicitNHPress = /* Non-Hyd Pressure implicit factor (0-1)*/
(PID.TID 0000.0001)                 1.000000000000000E+00
(PID.TID 0000.0001)     ;
(PID.TID 0000.0001) selectNHfreeSurf = /* Non-Hyd (free-)Surface option */
(PID.TID 0000.0001)                       0
(PID.TID 0000.0001)     ;
(PID.TID 0000.0001) quasiHydrostatic = /* Quasi-Hydrostatic on/off flag */
(PID.TID 0000.0001)                   F
(PID.TID 0000.0001)     ;
(PID.TID 0000.0001) calc_wVelocity = /* vertical velocity calculation on/off flag */
(PID.TID 0000.0001)                   T
(PID.TID 0000.0001)     ;
(PID.TID 0000.0001) momStepping =  /* Momentum equation on/off flag */
(PID.TID 0000.0001)                   T
(PID.TID 0000.0001)     ;
(PID.TID 0000.0001) vectorInvariantMomentum= /* Vector-Invariant Momentum on/off */
(PID.TID 0000.0001)                   F
(PID.TID 0000.0001)     ;
(PID.TID 0000.0001) momAdvection =  /* Momentum advection on/off flag */
(PID.TID 0000.0001)                   T
(PID.TID 0000.0001)     ;
(PID.TID 0000.0001) momViscosity =  /* Momentum viscosity on/off flag */
(PID.TID 0000.0001)                   T
(PID.TID 0000.0001)     ;
(PID.TID 0000.0001) momImplVertAdv= /* Momentum implicit vert. advection on/off*/
(PID.TID 0000.0001)                   F
(PID.TID 0000.0001)     ;
(PID.TID 0000.0001) implicitViscosity = /* Implicit viscosity on/off flag */
(PID.TID 0000.0001)                   F
(PID.TID 0000.0001)     ;
(PID.TID 0000.0001) selectImplicitDrag= /* Implicit bot Drag options (0,1,2)*/
(PID.TID 0000.0001)                       0
(PID.TID 0000.0001)     0= Expl. ; 1= Impl. on provis. Vel ; 2= Fully Impl (with surf.P)
(PID.TID 0000.0001)     ;
(PID.TID 0000.0001) metricTerms =  /* metric-Terms on/off flag */
(PID.TID 0000.0001)                   T
(PID.TID 0000.0001)     ;
(PID.TID 0000.0001) useNHMTerms = /* Non-Hydrostatic Metric-Terms on/off */
(PID.TID 0000.0001)                   F
(PID.TID 0000.0001)     ;
(PID.TID 0000.0001) selectCoriMap = /* Coriolis Map options (0,1,2,3)*/
(PID.TID 0000.0001)                       2
(PID.TID 0000.0001)     0= f-Plane ; 1= Beta-Plane ; 2= Spherical ; 3= read from file
(PID.TID 0000.0001)     ;
(PID.TID 0000.0001) use3dCoriolis = /* 3-D Coriolis on/off flag */
(PID.TID 0000.0001)                   F
(PID.TID 0000.0001)     ;
(PID.TID 0000.0001) useCoriolis =  /* Coriolis on/off flag */
(PID.TID 0000.0001)                   T
(PID.TID 0000.0001)     ;
(PID.TID 0000.0001) useCDscheme =  /* CD scheme on/off flag */
(PID.TID 0000.0001)                   T
(PID.TID 0000.0001)     ;
(PID.TID 0000.0001) selectCoriScheme= /* Scheme selector for Coriolis-Term */
(PID.TID 0000.0001)                       0
(PID.TID 0000.0001)    = 0 : original discretization (simple averaging, no hFac)
(PID.TID 0000.0001)    = 1 : Wet-point averaging (Jamar & Ozer 1986)
(PID.TID 0000.0001)    = 2 : energy conserving scheme (no hFac weight)
(PID.TID 0000.0001)    = 3 : energy conserving scheme using Wet-point averaging
(PID.TID 0000.0001)     ;
(PID.TID 0000.0001) momForcing =  /* Momentum forcing on/off flag */
(PID.TID 0000.0001)                   T
(PID.TID 0000.0001)     ;
(PID.TID 0000.0001) momTidalForcing = /* Momentum Tidal forcing on/off flag */
(PID.TID 0000.0001)                   T
(PID.TID 0000.0001)     ;
(PID.TID 0000.0001) momPressureForcing =  /* Momentum pressure term on/off flag */
(PID.TID 0000.0001)                   T
(PID.TID 0000.0001)     ;
(PID.TID 0000.0001) implicitIntGravWave= /* Implicit Internal Gravity Wave flag */
(PID.TID 0000.0001)                   F
(PID.TID 0000.0001)     ;
(PID.TID 0000.0001) staggerTimeStep =    /* Stagger time stepping on/off flag */
(PID.TID 0000.0001)                   F
(PID.TID 0000.0001)     ;
(PID.TID 0000.0001) doResetHFactors = /* reset thickness factors @ each time-step */
(PID.TID 0000.0001)                   F
(PID.TID 0000.0001)     ;
(PID.TID 0000.0001) multiDimAdvection =  /* enable/disable Multi-Dim Advection */
(PID.TID 0000.0001)                   T
(PID.TID 0000.0001)     ;
(PID.TID 0000.0001) useMultiDimAdvec =   /* Multi-Dim Advection is/is-not used */
(PID.TID 0000.0001)                   F
(PID.TID 0000.0001)     ;
(PID.TID 0000.0001) implicitDiffusion = /* Implicit Diffusion on/off flag */
(PID.TID 0000.0001)                   T
(PID.TID 0000.0001)     ;
(PID.TID 0000.0001) tempStepping =  /* Temperature equation on/off flag */
(PID.TID 0000.0001)                   T
(PID.TID 0000.0001)     ;
(PID.TID 0000.0001) tempAdvection = /* Temperature advection on/off flag */
(PID.TID 0000.0001)                   T
(PID.TID 0000.0001)     ;
(PID.TID 0000.0001) tempImplVertAdv = /* Temp. implicit vert. advection on/off */
(PID.TID 0000.0001)                   F
(PID.TID 0000.0001)     ;
(PID.TID 0000.0001) tempForcing  =  /* Temperature forcing on/off flag */
(PID.TID 0000.0001)                   T
(PID.TID 0000.0001)     ;
(PID.TID 0000.0001) doThetaClimRelax = /* apply SST relaxation on/off flag */
(PID.TID 0000.0001)                   F
(PID.TID 0000.0001)     ;
(PID.TID 0000.0001) tempIsActiveTr = /* Temp. is a dynamically Active Tracer */
(PID.TID 0000.0001)                   T
(PID.TID 0000.0001)     ;
(PID.TID 0000.0001) saltStepping =  /* Salinity equation on/off flag */
(PID.TID 0000.0001)                   T
(PID.TID 0000.0001)     ;
(PID.TID 0000.0001) saltAdvection = /* Salinity advection on/off flag */
(PID.TID 0000.0001)                   T
(PID.TID 0000.0001)     ;
(PID.TID 0000.0001) saltImplVertAdv = /* Sali. implicit vert. advection on/off */
(PID.TID 0000.0001)                   F
(PID.TID 0000.0001)     ;
(PID.TID 0000.0001) saltForcing  =  /* Salinity forcing on/off flag */
(PID.TID 0000.0001)                   T
(PID.TID 0000.0001)     ;
(PID.TID 0000.0001) doSaltClimRelax = /* apply SSS relaxation on/off flag */
(PID.TID 0000.0001)                   F
(PID.TID 0000.0001)     ;
(PID.TID 0000.0001) saltIsActiveTr = /* Salt  is a dynamically Active Tracer */
(PID.TID 0000.0001)                   T
(PID.TID 0000.0001)     ;
(PID.TID 0000.0001)  readBinaryPrec = /* Precision used for reading binary files */
(PID.TID 0000.0001)                      32
(PID.TID 0000.0001)     ;
(PID.TID 0000.0001) writeBinaryPrec = /* Precision used for writing binary files */
(PID.TID 0000.0001)                      32
(PID.TID 0000.0001)     ;
(PID.TID 0000.0001)  rwSuffixType =   /* select format of mds file suffix */
(PID.TID 0000.0001)                       0
(PID.TID 0000.0001)    = 0 : myIter (I10.10) ;   = 1 : 100*myTime (100th sec) ;
(PID.TID 0000.0001)    = 2 : myTime (seconds);   = 3 : myTime/360 (10th of hr);
(PID.TID 0000.0001)    = 4 : myTime/3600 (hours)
(PID.TID 0000.0001)     ;
(PID.TID 0000.0001)  globalFiles = /* write "global" (=not per tile) files */
(PID.TID 0000.0001)                   F
(PID.TID 0000.0001)     ;
(PID.TID 0000.0001)  useSingleCpuIO = /* only master MPI process does I/O */
(PID.TID 0000.0001)                   T
(PID.TID 0000.0001)     ;
(PID.TID 0000.0001)  useSingleCpuInput = /* only master process reads input */
(PID.TID 0000.0001)                   T
(PID.TID 0000.0001)     ;
(PID.TID 0000.0001) /* debLev[*]  : level of debug & auxiliary message printing */
(PID.TID 0000.0001) debLevZero =  0 ; /* level of disabled aux. msg printing */
(PID.TID 0000.0001)    debLevA =  1 ; /* level of minimum  aux. msg printing */
(PID.TID 0000.0001)    debLevB =  2 ; /* level of low aux. print (report read-file opening)*/
(PID.TID 0000.0001)    debLevC =  3 ; /* level of moderate debug prt (most pkgs debug msg) */
(PID.TID 0000.0001)    debLevD =  4 ; /* level of enhanced debug prt (add DEBUG_STATS prt) */
(PID.TID 0000.0001)    debLevE =  5 ; /* level of extensive debug printing */
(PID.TID 0000.0001) debugLevel =  /* select debug printing level */
(PID.TID 0000.0001)                       5
(PID.TID 0000.0001)     ;
(PID.TID 0000.0001)  plotLevel =  /* select PLOT_FIELD printing level */
(PID.TID 0000.0001)                       5
(PID.TID 0000.0001)     ;
(PID.TID 0000.0001) //
(PID.TID 0000.0001) // Elliptic solver(s) paramters ( PARM02 in namelist )
(PID.TID 0000.0001) //
(PID.TID 0000.0001) cg2dMaxIters =   /* Upper limit on 2d con. grad iterations  */
(PID.TID 0000.0001)                     500
(PID.TID 0000.0001)     ;
(PID.TID 0000.0001) cg2dMinItersNSA =   /* Minimum number of iterations of 2d con. grad solver  */
(PID.TID 0000.0001)                       0
(PID.TID 0000.0001)     ;
(PID.TID 0000.0001) cg2dUseMinResSol= /* use cg2d last-iter(=0) / min-resid.(=1) solution */
(PID.TID 0000.0001)                       0
(PID.TID 0000.0001)     ;
(PID.TID 0000.0001) cg2dTargetResidual =   /* 2d con. grad target residual  */
(PID.TID 0000.0001)                 1.000000000000000E-13
(PID.TID 0000.0001)     ;
(PID.TID 0000.0001) cg2dTargetResWunit =   /* CG2d target residual [W units] */
(PID.TID 0000.0001)                -1.000000000000000E+00
(PID.TID 0000.0001)     ;
(PID.TID 0000.0001) cg2dPreCondFreq =   /* Freq. for updating cg2d preconditioner */
(PID.TID 0000.0001)                       1
(PID.TID 0000.0001)     ;
(PID.TID 0000.0001) useSRCGSolver =  /* use single reduction CG solver(s) */
(PID.TID 0000.0001)                   F
(PID.TID 0000.0001)     ;
(PID.TID 0000.0001) useNSACGSolver =  /* use not-self-adjoint CG solver */
(PID.TID 0000.0001)                   F
(PID.TID 0000.0001)     ;
(PID.TID 0000.0001) printResidualFreq = /* Freq. for printing CG residual */
(PID.TID 0000.0001)                       1
(PID.TID 0000.0001)     ;
(PID.TID 0000.0001) //
(PID.TID 0000.0001) // Time stepping paramters ( PARM03 in namelist )
(PID.TID 0000.0001) //
(PID.TID 0000.0001) deltaTMom =   /* Momentum equation timestep ( s ) */
(PID.TID 0000.0001)                 1.800000000000000E+03
(PID.TID 0000.0001)     ;
(PID.TID 0000.0001) deltaTFreeSurf = /* FreeSurface equation timestep ( s ) */
(PID.TID 0000.0001)                 8.640000000000000E+04
(PID.TID 0000.0001)     ;
(PID.TID 0000.0001) dTtracerLev =  /* Tracer equation timestep ( s ) */
(PID.TID 0000.0001)    15 @  8.640000000000000E+04              /* K =  1: 15 */
(PID.TID 0000.0001)     ;
(PID.TID 0000.0001) deltaTClock  =   /* Model clock timestep ( s ) */
(PID.TID 0000.0001)                 8.640000000000000E+04
(PID.TID 0000.0001)     ;
(PID.TID 0000.0001) cAdjFreq =   /* Convective adjustment interval ( s ) */
(PID.TID 0000.0001)                 0.000000000000000E+00
(PID.TID 0000.0001)     ;
(PID.TID 0000.0001) momForcingOutAB = /* =1: take Momentum Forcing out of Adams-Bash. stepping */
(PID.TID 0000.0001)                       0
(PID.TID 0000.0001)     ;
(PID.TID 0000.0001) tracForcingOutAB = /* =1: take T,S,pTr Forcing out of Adams-Bash. stepping */
(PID.TID 0000.0001)                       0
(PID.TID 0000.0001)     ;
(PID.TID 0000.0001) momDissip_In_AB = /* put Dissipation Tendency in Adams-Bash. stepping */
(PID.TID 0000.0001)                   T
(PID.TID 0000.0001)     ;
(PID.TID 0000.0001) doAB_onGtGs = /* apply AB on Tendencies (rather than on T,S)*/
(PID.TID 0000.0001)                   T
(PID.TID 0000.0001)     ;
(PID.TID 0000.0001) abEps =   /* Adams-Bashforth-2 stabilizing weight */
(PID.TID 0000.0001)                 1.000000000000000E-01
(PID.TID 0000.0001)     ;
(PID.TID 0000.0001) applyExchUV_early = /* Apply EXCH to U,V earlier in time-step */
(PID.TID 0000.0001)                   F
(PID.TID 0000.0001)     ;
(PID.TID 0000.0001) tauCD =   /* CD coupling time-scale ( s ) */
(PID.TID 0000.0001)                 3.214280000000000E+05
(PID.TID 0000.0001)     ;
(PID.TID 0000.0001) rCD =   /* Normalised CD coupling parameter */
(PID.TID 0000.0001)                 9.943999900444267E-01
(PID.TID 0000.0001)     ;
(PID.TID 0000.0001) epsAB_CD = /* AB-2 stabilizing weight for CD-scheme*/
(PID.TID 0000.0001)                 1.000000000000000E-01
(PID.TID 0000.0001)     ;
(PID.TID 0000.0001) pickupStrictlyMatch= /* stop if pickup do not strictly match */
(PID.TID 0000.0001)                   T
(PID.TID 0000.0001)     ;
(PID.TID 0000.0001) nIter0   =   /* Run starting timestep number */
(PID.TID 0000.0001)                       0
(PID.TID 0000.0001)     ;
(PID.TID 0000.0001) nTimeSteps = /* Number of timesteps */
(PID.TID 0000.0001)                     100
(PID.TID 0000.0001)     ;
(PID.TID 0000.0001) nEndIter =   /* Run ending timestep number */
(PID.TID 0000.0001)                     100
(PID.TID 0000.0001)     ;
(PID.TID 0000.0001) baseTime =   /* Model base time ( s ) */
(PID.TID 0000.0001)                 0.000000000000000E+00
(PID.TID 0000.0001)     ;
(PID.TID 0000.0001) startTime =  /* Run start time ( s ) */
(PID.TID 0000.0001)                 0.000000000000000E+00
(PID.TID 0000.0001)     ;
(PID.TID 0000.0001) endTime  =   /* Integration ending time ( s ) */
(PID.TID 0000.0001)                 8.640000000000000E+06
(PID.TID 0000.0001)     ;
(PID.TID 0000.0001) pChkPtFreq = /* Permanent restart/pickup file interval ( s ) */
(PID.TID 0000.0001)                 8.640000000000000E+05
(PID.TID 0000.0001)     ;
(PID.TID 0000.0001) chkPtFreq  = /* Rolling restart/pickup file interval ( s ) */
(PID.TID 0000.0001)                 0.000000000000000E+00
(PID.TID 0000.0001)     ;
(PID.TID 0000.0001) pickup_write_mdsio =   /* Model IO flag. */
(PID.TID 0000.0001)                   T
(PID.TID 0000.0001)     ;
(PID.TID 0000.0001) pickup_read_mdsio =   /* Model IO flag. */
(PID.TID 0000.0001)                   T
(PID.TID 0000.0001)     ;
(PID.TID 0000.0001) pickup_write_mnc =   /* Model IO flag. */
(PID.TID 0000.0001)                   F
(PID.TID 0000.0001)     ;
(PID.TID 0000.0001) pickup_read_mnc =   /* Model IO flag. */
(PID.TID 0000.0001)                   F
(PID.TID 0000.0001)     ;
(PID.TID 0000.0001) writePickupAtEnd =   /* Model IO flag. */
(PID.TID 0000.0001)                   T
(PID.TID 0000.0001)     ;
(PID.TID 0000.0001) dumpFreq =   /* Model state write out interval ( s ). */
(PID.TID 0000.0001)                 8.640000000000000E+05
(PID.TID 0000.0001)     ;
(PID.TID 0000.0001) dumpInitAndLast= /* write out Initial & Last iter. model state */
(PID.TID 0000.0001)                   T
(PID.TID 0000.0001)     ;
(PID.TID 0000.0001) snapshot_mdsio =   /* Model IO flag. */
(PID.TID 0000.0001)                   T
(PID.TID 0000.0001)     ;
(PID.TID 0000.0001) snapshot_mnc =   /* Model IO flag. */
(PID.TID 0000.0001)                   F
(PID.TID 0000.0001)     ;
(PID.TID 0000.0001) monitorFreq =   /* Monitor output interval ( s ). */
(PID.TID 0000.0001)                 1.000000000000000E+00
(PID.TID 0000.0001)     ;
(PID.TID 0000.0001) monitorSelect = /* select group of variables to monitor */
(PID.TID 0000.0001)                       3
(PID.TID 0000.0001)     ;
(PID.TID 0000.0001) monitor_stdio =   /* Model IO flag. */
(PID.TID 0000.0001)                   T
(PID.TID 0000.0001)     ;
(PID.TID 0000.0001) monitor_mnc =   /* Model IO flag. */
(PID.TID 0000.0001)                   F
(PID.TID 0000.0001)     ;
(PID.TID 0000.0001) externForcingPeriod =   /* forcing period (s) */
(PID.TID 0000.0001)                 2.592000000000000E+06
(PID.TID 0000.0001)     ;
(PID.TID 0000.0001) externForcingCycle =   /* period of the cyle (s). */
(PID.TID 0000.0001)                 3.110400000000000E+07
(PID.TID 0000.0001)     ;
(PID.TID 0000.0001) tauThetaClimRelax =   /* relaxation time scale (s) */
(PID.TID 0000.0001)                 0.000000000000000E+00
(PID.TID 0000.0001)     ;
(PID.TID 0000.0001) tauSaltClimRelax =   /* relaxation time scale (s) */
(PID.TID 0000.0001)                 0.000000000000000E+00
(PID.TID 0000.0001)     ;
(PID.TID 0000.0001) latBandClimRelax =   /* max. Lat. where relaxation */
(PID.TID 0000.0001)                 1.800000000000000E+02
(PID.TID 0000.0001)     ;
(PID.TID 0000.0001) //
(PID.TID 0000.0001) // Gridding paramters ( PARM04 in namelist )
(PID.TID 0000.0001) //
(PID.TID 0000.0001) usingCartesianGrid = /* Cartesian coordinates flag ( True/False ) */
(PID.TID 0000.0001)                   F
(PID.TID 0000.0001)     ;
(PID.TID 0000.0001) usingCylindricalGrid = /* Cylindrical coordinates flag ( True/False ) */
(PID.TID 0000.0001)                   F
(PID.TID 0000.0001)     ;
(PID.TID 0000.0001) usingSphericalPolarGrid = /* Spherical coordinates flag ( True/False ) */
(PID.TID 0000.0001)                   T
(PID.TID 0000.0001)     ;
(PID.TID 0000.0001) usingCurvilinearGrid = /* Curvilinear coordinates flag ( True/False ) */
(PID.TID 0000.0001)                   F
(PID.TID 0000.0001)     ;
(PID.TID 0000.0001) useMin4hFacEdges = /* set hFacW,S as minimum of adjacent hFacC factor */
(PID.TID 0000.0001)                   F
(PID.TID 0000.0001)     ;
(PID.TID 0000.0001) interViscAr_pCell = /* account for partial-cell in interior vert. viscosity */
(PID.TID 0000.0001)                   F
(PID.TID 0000.0001)     ;
(PID.TID 0000.0001) interDiffKr_pCell = /* account for partial-cell in interior vert. diffusion */
(PID.TID 0000.0001)                   F
(PID.TID 0000.0001)     ;
(PID.TID 0000.0001) pCellMix_select = /* option to enhance mixing near surface & bottom */
(PID.TID 0000.0001)                       0
(PID.TID 0000.0001)     ;
(PID.TID 0000.0001) selectSigmaCoord = /* Hybrid-Sigma Vert. Coordinate option */
(PID.TID 0000.0001)                       0
(PID.TID 0000.0001)     ;
(PID.TID 0000.0001) rSigmaBnd = /* r/sigma transition ( units of r ==  m ) */
(PID.TID 0000.0001)                 1.234567000000000E+05
(PID.TID 0000.0001)     ;
(PID.TID 0000.0001) rkSign =   /* index orientation relative to vertical coordinate */
(PID.TID 0000.0001)                -1.000000000000000E+00
(PID.TID 0000.0001)     ;
(PID.TID 0000.0001) gravitySign = /* gravity orientation relative to vertical coordinate */
(PID.TID 0000.0001)                -1.000000000000000E+00
(PID.TID 0000.0001)     ;
(PID.TID 0000.0001) seaLev_Z =  /* reference height of sea-level [m] */
(PID.TID 0000.0001)                 0.000000000000000E+00
(PID.TID 0000.0001)     ;
(PID.TID 0000.0001) top_Pres =  /* reference pressure at the top [Pa] */
(PID.TID 0000.0001)                 0.000000000000000E+00
(PID.TID 0000.0001)     ;
(PID.TID 0000.0001) mass2rUnit = /* convert mass per unit area [kg/m2] to r-units [m] */
(PID.TID 0000.0001)                 9.661835748792270E-04
(PID.TID 0000.0001)     ;
(PID.TID 0000.0001) rUnit2mass = /* convert r-units [m] to mass per unit area [kg/m2] */
(PID.TID 0000.0001)                 1.035000000000000E+03
(PID.TID 0000.0001)     ;
(PID.TID 0000.0001) drC =   /* C spacing ( units of r ) */
(PID.TID 0000.0001)                 2.500000000000000E+01,      /* K =  1 */
(PID.TID 0000.0001)                 6.000000000000000E+01,      /* K =  2 */
(PID.TID 0000.0001)                 8.500000000000000E+01,      /* K =  3 */
(PID.TID 0000.0001)                 1.200000000000000E+02,      /* K =  4 */
(PID.TID 0000.0001)                 1.650000000000000E+02,      /* K =  5 */
(PID.TID 0000.0001)                 2.150000000000000E+02,      /* K =  6 */
(PID.TID 0000.0001)                 2.650000000000000E+02,      /* K =  7 */
(PID.TID 0000.0001)                 3.150000000000000E+02,      /* K =  8 */
(PID.TID 0000.0001)                 3.650000000000000E+02,      /* K =  9 */
(PID.TID 0000.0001)                 4.150000000000000E+02,      /* K = 10 */
(PID.TID 0000.0001)                 4.650000000000000E+02,      /* K = 11 */
(PID.TID 0000.0001)                 5.150000000000000E+02,      /* K = 12 */
(PID.TID 0000.0001)                 5.650000000000000E+02,      /* K = 13 */
(PID.TID 0000.0001)                 6.150000000000000E+02,      /* K = 14 */
(PID.TID 0000.0001)                 6.650000000000000E+02,      /* K = 15 */
(PID.TID 0000.0001)                 3.450000000000000E+02       /* K = 16 */
(PID.TID 0000.0001)     ;
(PID.TID 0000.0001) drF =   /* W spacing ( units of r ) */
(PID.TID 0000.0001)                 5.000000000000000E+01,      /* K =  1 */
(PID.TID 0000.0001)                 7.000000000000000E+01,      /* K =  2 */
(PID.TID 0000.0001)                 1.000000000000000E+02,      /* K =  3 */
(PID.TID 0000.0001)                 1.400000000000000E+02,      /* K =  4 */
(PID.TID 0000.0001)                 1.900000000000000E+02,      /* K =  5 */
(PID.TID 0000.0001)                 2.400000000000000E+02,      /* K =  6 */
(PID.TID 0000.0001)                 2.900000000000000E+02,      /* K =  7 */
(PID.TID 0000.0001)                 3.400000000000000E+02,      /* K =  8 */
(PID.TID 0000.0001)                 3.900000000000000E+02,      /* K =  9 */
(PID.TID 0000.0001)                 4.400000000000000E+02,      /* K = 10 */
(PID.TID 0000.0001)                 4.900000000000000E+02,      /* K = 11 */
(PID.TID 0000.0001)                 5.400000000000000E+02,      /* K = 12 */
(PID.TID 0000.0001)                 5.900000000000000E+02,      /* K = 13 */
(PID.TID 0000.0001)                 6.400000000000000E+02,      /* K = 14 */
(PID.TID 0000.0001)                 6.900000000000000E+02       /* K = 15 */
(PID.TID 0000.0001)     ;
(PID.TID 0000.0001) delX = /* U spacing ( m - cartesian, degrees - spherical ) */
(PID.TID 0000.0001)    90 @  4.000000000000000E+00              /* I =  1: 90 */
(PID.TID 0000.0001)     ;
(PID.TID 0000.0001) delY = /* V spacing ( m - cartesian, degrees - spherical ) */
(PID.TID 0000.0001)    40 @  4.000000000000000E+00              /* J =  1: 40 */
(PID.TID 0000.0001)     ;
(PID.TID 0000.0001) xgOrigin = /* X-axis origin of West  edge (cartesian: m, lat-lon: deg) */
(PID.TID 0000.0001)                 0.000000000000000E+00
(PID.TID 0000.0001)     ;
(PID.TID 0000.0001) ygOrigin = /* Y-axis origin of South edge (cartesian: m, lat-lon: deg) */
(PID.TID 0000.0001)                -8.000000000000000E+01
(PID.TID 0000.0001)     ;
(PID.TID 0000.0001) rSphere =  /* Radius ( ignored - cartesian, m - spherical ) */
(PID.TID 0000.0001)                 6.370000000000000E+06
(PID.TID 0000.0001)     ;
(PID.TID 0000.0001) deepAtmosphere = /* Deep/Shallow Atmosphere flag (True/False) */
(PID.TID 0000.0001)                   F
(PID.TID 0000.0001)     ;
(PID.TID 0000.0001) xC =  /* xC(:,1,:,1) : P-point X coord ( deg. or m if cartesian) */
(PID.TID 0000.0001)                 2.000000000000000E+00,      /* I =  1 */
(PID.TID 0000.0001)                 6.000000000000000E+00,      /* I =  2 */
(PID.TID 0000.0001)                 1.000000000000000E+01,      /* I =  3 */
(PID.TID 0000.0001)      . . .
(PID.TID 0000.0001)                 8.200000000000000E+01,      /* I = 21 */
(PID.TID 0000.0001)                 8.600000000000000E+01,      /* I = 22 */
(PID.TID 0000.0001)                 9.000000000000000E+01,      /* I = 23 */
(PID.TID 0000.0001)                 9.400000000000000E+01,      /* I = 24 */
(PID.TID 0000.0001)                 9.800000000000000E+01,      /* I = 25 */
(PID.TID 0000.0001)                 1.020000000000000E+02,      /* I = 26 */
(PID.TID 0000.0001)      . . .
(PID.TID 0000.0001)                 1.700000000000000E+02,      /* I = 43 */
(PID.TID 0000.0001)                 1.740000000000000E+02,      /* I = 44 */
(PID.TID 0000.0001)                 1.780000000000000E+02,      /* I = 45 */
(PID.TID 0000.0001)                 1.820000000000000E+02,      /* I = 46 */
(PID.TID 0000.0001)                 1.860000000000000E+02,      /* I = 47 */
(PID.TID 0000.0001)                 1.900000000000000E+02,      /* I = 48 */
(PID.TID 0000.0001)      . . .
(PID.TID 0000.0001)                 2.580000000000000E+02,      /* I = 65 */
(PID.TID 0000.0001)                 2.620000000000000E+02,      /* I = 66 */
(PID.TID 0000.0001)                 2.660000000000000E+02,      /* I = 67 */
(PID.TID 0000.0001)                 2.700000000000000E+02,      /* I = 68 */
(PID.TID 0000.0001)                 2.740000000000000E+02,      /* I = 69 */
(PID.TID 0000.0001)                 2.780000000000000E+02,      /* I = 70 */
(PID.TID 0000.0001)      . . .
(PID.TID 0000.0001)                 3.500000000000000E+02,      /* I = 88 */
(PID.TID 0000.0001)                 3.540000000000000E+02,      /* I = 89 */
(PID.TID 0000.0001)                 3.580000000000000E+02       /* I = 90 */
(PID.TID 0000.0001)     ;
(PID.TID 0000.0001) yC =  /* yC(1,:,1,:) : P-point Y coord ( deg. or m if cartesian) */
(PID.TID 0000.0001)                -7.800000000000000E+01,      /* J =  1 */
(PID.TID 0000.0001)                -7.400000000000000E+01,      /* J =  2 */
(PID.TID 0000.0001)                -7.000000000000000E+01,      /* J =  3 */
(PID.TID 0000.0001)                -6.600000000000000E+01,      /* J =  4 */
(PID.TID 0000.0001)                -6.200000000000000E+01,      /* J =  5 */
(PID.TID 0000.0001)                -5.800000000000000E+01,      /* J =  6 */
(PID.TID 0000.0001)                -5.400000000000000E+01,      /* J =  7 */
(PID.TID 0000.0001)                -5.000000000000000E+01,      /* J =  8 */
(PID.TID 0000.0001)                -4.600000000000000E+01,      /* J =  9 */
(PID.TID 0000.0001)                -4.200000000000000E+01,      /* J = 10 */
(PID.TID 0000.0001)                -3.800000000000000E+01,      /* J = 11 */
(PID.TID 0000.0001)                -3.400000000000000E+01,      /* J = 12 */
(PID.TID 0000.0001)                -3.000000000000000E+01,      /* J = 13 */
(PID.TID 0000.0001)                -2.600000000000000E+01,      /* J = 14 */
(PID.TID 0000.0001)                -2.200000000000000E+01,      /* J = 15 */
(PID.TID 0000.0001)                -1.800000000000000E+01,      /* J = 16 */
(PID.TID 0000.0001)                -1.400000000000000E+01,      /* J = 17 */
(PID.TID 0000.0001)                -1.000000000000000E+01,      /* J = 18 */
(PID.TID 0000.0001)                -6.000000000000000E+00,      /* J = 19 */
(PID.TID 0000.0001)                -2.000000000000000E+00,      /* J = 20 */
(PID.TID 0000.0001)                 2.000000000000000E+00,      /* J = 21 */
(PID.TID 0000.0001)                 6.000000000000000E+00,      /* J = 22 */
(PID.TID 0000.0001)                 1.000000000000000E+01,      /* J = 23 */
(PID.TID 0000.0001)                 1.400000000000000E+01,      /* J = 24 */
(PID.TID 0000.0001)                 1.800000000000000E+01,      /* J = 25 */
(PID.TID 0000.0001)                 2.200000000000000E+01,      /* J = 26 */
(PID.TID 0000.0001)                 2.600000000000000E+01,      /* J = 27 */
(PID.TID 0000.0001)                 3.000000000000000E+01,      /* J = 28 */
(PID.TID 0000.0001)                 3.400000000000000E+01,      /* J = 29 */
(PID.TID 0000.0001)                 3.800000000000000E+01,      /* J = 30 */
(PID.TID 0000.0001)                 4.200000000000000E+01,      /* J = 31 */
(PID.TID 0000.0001)                 4.600000000000000E+01,      /* J = 32 */
(PID.TID 0000.0001)                 5.000000000000000E+01,      /* J = 33 */
(PID.TID 0000.0001)                 5.400000000000000E+01,      /* J = 34 */
(PID.TID 0000.0001)                 5.800000000000000E+01,      /* J = 35 */
(PID.TID 0000.0001)                 6.200000000000000E+01,      /* J = 36 */
(PID.TID 0000.0001)                 6.600000000000000E+01,      /* J = 37 */
(PID.TID 0000.0001)                 7.000000000000000E+01,      /* J = 38 */
(PID.TID 0000.0001)                 7.400000000000000E+01,      /* J = 39 */
(PID.TID 0000.0001)                 7.800000000000000E+01       /* J = 40 */
(PID.TID 0000.0001)     ;
(PID.TID 0000.0001) rcoord = /* P-point R coordinate (  units of r ) */
(PID.TID 0000.0001)                -2.500000000000000E+01,      /* K =  1 */
(PID.TID 0000.0001)                -8.500000000000000E+01,      /* K =  2 */
(PID.TID 0000.0001)                -1.700000000000000E+02,      /* K =  3 */
(PID.TID 0000.0001)                -2.900000000000000E+02,      /* K =  4 */
(PID.TID 0000.0001)                -4.550000000000000E+02,      /* K =  5 */
(PID.TID 0000.0001)                -6.700000000000000E+02,      /* K =  6 */
(PID.TID 0000.0001)                -9.350000000000000E+02,      /* K =  7 */
(PID.TID 0000.0001)                -1.250000000000000E+03,      /* K =  8 */
(PID.TID 0000.0001)                -1.615000000000000E+03,      /* K =  9 */
(PID.TID 0000.0001)                -2.030000000000000E+03,      /* K = 10 */
(PID.TID 0000.0001)                -2.495000000000000E+03,      /* K = 11 */
(PID.TID 0000.0001)                -3.010000000000000E+03,      /* K = 12 */
(PID.TID 0000.0001)                -3.575000000000000E+03,      /* K = 13 */
(PID.TID 0000.0001)                -4.190000000000000E+03,      /* K = 14 */
(PID.TID 0000.0001)                -4.855000000000000E+03       /* K = 15 */
(PID.TID 0000.0001)     ;
(PID.TID 0000.0001) rF =   /* W-Interf. R coordinate (  units of r ) */
(PID.TID 0000.0001)                 0.000000000000000E+00,      /* K =  1 */
(PID.TID 0000.0001)                -5.000000000000000E+01,      /* K =  2 */
(PID.TID 0000.0001)                -1.200000000000000E+02,      /* K =  3 */
(PID.TID 0000.0001)                -2.200000000000000E+02,      /* K =  4 */
(PID.TID 0000.0001)                -3.600000000000000E+02,      /* K =  5 */
(PID.TID 0000.0001)                -5.500000000000000E+02,      /* K =  6 */
(PID.TID 0000.0001)                -7.900000000000000E+02,      /* K =  7 */
(PID.TID 0000.0001)                -1.080000000000000E+03,      /* K =  8 */
(PID.TID 0000.0001)                -1.420000000000000E+03,      /* K =  9 */
(PID.TID 0000.0001)                -1.810000000000000E+03,      /* K = 10 */
(PID.TID 0000.0001)                -2.250000000000000E+03,      /* K = 11 */
(PID.TID 0000.0001)                -2.740000000000000E+03,      /* K = 12 */
(PID.TID 0000.0001)                -3.280000000000000E+03,      /* K = 13 */
(PID.TID 0000.0001)                -3.870000000000000E+03,      /* K = 14 */
(PID.TID 0000.0001)                -4.510000000000000E+03,      /* K = 15 */
(PID.TID 0000.0001)                -5.200000000000000E+03       /* K = 16 */
(PID.TID 0000.0001)     ;
(PID.TID 0000.0001) deepFacC = /* deep-model grid factor @ cell-Center (-) */
(PID.TID 0000.0001)    15 @  1.000000000000000E+00              /* K =  1: 15 */
(PID.TID 0000.0001)     ;
(PID.TID 0000.0001) deepFacF = /* deep-model grid factor @ W-Interface (-) */
(PID.TID 0000.0001)    16 @  1.000000000000000E+00              /* K =  1: 16 */
(PID.TID 0000.0001)     ;
(PID.TID 0000.0001) rVel2wUnit = /* convert units: rVel -> wSpeed (=1 if z-coord)*/
(PID.TID 0000.0001)    16 @  1.000000000000000E+00              /* K =  1: 16 */
(PID.TID 0000.0001)     ;
(PID.TID 0000.0001) wUnit2rVel = /* convert units: wSpeed -> rVel (=1 if z-coord)*/
(PID.TID 0000.0001)    16 @  1.000000000000000E+00              /* K =  1: 16 */
(PID.TID 0000.0001)     ;
(PID.TID 0000.0001) dBdrRef = /* Vertical grad. of reference buoyancy [(m/s/r)^2] */
(PID.TID 0000.0001)    15 @  0.000000000000000E+00              /* K =  1: 15 */
(PID.TID 0000.0001)     ;
(PID.TID 0000.0001) rotateGrid = /* use rotated grid ( True/False ) */
(PID.TID 0000.0001)                   F
(PID.TID 0000.0001)     ;
(PID.TID 0000.0001) phiEuler = /* Euler angle, rotation about original z-coordinate [rad] */
(PID.TID 0000.0001)                 0.000000000000000E+00
(PID.TID 0000.0001)     ;
(PID.TID 0000.0001) thetaEuler = /* Euler angle, rotation about new x-coordinate [rad] */
(PID.TID 0000.0001)                 0.000000000000000E+00
(PID.TID 0000.0001)     ;
(PID.TID 0000.0001) psiEuler = /* Euler angle, rotation about new z-coordinate [rad] */
(PID.TID 0000.0001)                 0.000000000000000E+00
(PID.TID 0000.0001)     ;
(PID.TID 0000.0001) dxF =  /* dxF(:,1,:,1) ( units: m ) */
(PID.TID 0000.0001)    90 @  9.246038586187513E+04              /* I =  1: 90 */
(PID.TID 0000.0001)     ;
(PID.TID 0000.0001) dxF =  /* dxF(1,:,1,:) ( units: m ) */
(PID.TID 0000.0001)                 9.246038586187513E+04,      /* J =  1 */
(PID.TID 0000.0001)                 1.225786591246834E+05,      /* J =  2 */
(PID.TID 0000.0001)                 1.520997414818001E+05,      /* J =  3 */
(PID.TID 0000.0001)                 1.808798091874300E+05,      /* J =  4 */
(PID.TID 0000.0001)                 2.087786486446736E+05,      /* J =  5 */
(PID.TID 0000.0001)                 2.356603395120765E+05,      /* J =  6 */
(PID.TID 0000.0001)                 2.613939168938713E+05,      /* J =  7 */
(PID.TID 0000.0001)                 2.858540093877838E+05,      /* J =  8 */
(PID.TID 0000.0001)                 3.089214498819034E+05,      /* J =  9 */
(PID.TID 0000.0001)                 3.304838561248741E+05,      /* J = 10 */
(PID.TID 0000.0001)                 3.504361782409254E+05,      /* J = 11 */
(PID.TID 0000.0001)                 3.686812105223082E+05,      /* J = 12 */
(PID.TID 0000.0001)                 3.851300650057323E+05,      /* J = 13 */
(PID.TID 0000.0001)                 3.997026045255871E+05,      /* J = 14 */
(PID.TID 0000.0001)                 4.123278331341585E+05,      /* J = 15 */
(PID.TID 0000.0001)                 4.229442419867491E+05,      /* J = 16 */
(PID.TID 0000.0001)                 4.315001090065870E+05,      /* J = 17 */
(PID.TID 0000.0001)                 4.379537508695838E+05,      /* J = 18 */
(PID.TID 0000.0001)                 4.422737260813012E+05,      /* J = 19 */
(PID.TID 0000.0001)     2 @  4.444389881567502E+05,             /* J = 20: 21 */
(PID.TID 0000.0001)                 4.422737260813012E+05,      /* J = 22 */
(PID.TID 0000.0001)                 4.379537508695838E+05,      /* J = 23 */
(PID.TID 0000.0001)                 4.315001090065870E+05,      /* J = 24 */
(PID.TID 0000.0001)                 4.229442419867491E+05,      /* J = 25 */
(PID.TID 0000.0001)                 4.123278331341585E+05,      /* J = 26 */
(PID.TID 0000.0001)                 3.997026045255871E+05,      /* J = 27 */
(PID.TID 0000.0001)                 3.851300650057323E+05,      /* J = 28 */
(PID.TID 0000.0001)                 3.686812105223082E+05,      /* J = 29 */
(PID.TID 0000.0001)                 3.504361782409254E+05,      /* J = 30 */
(PID.TID 0000.0001)                 3.304838561248741E+05,      /* J = 31 */
(PID.TID 0000.0001)                 3.089214498819034E+05,      /* J = 32 */
(PID.TID 0000.0001)                 2.858540093877838E+05,      /* J = 33 */
(PID.TID 0000.0001)                 2.613939168938713E+05,      /* J = 34 */
(PID.TID 0000.0001)                 2.356603395120765E+05,      /* J = 35 */
(PID.TID 0000.0001)                 2.087786486446736E+05,      /* J = 36 */
(PID.TID 0000.0001)                 1.808798091874300E+05,      /* J = 37 */
(PID.TID 0000.0001)                 1.520997414818001E+05,      /* J = 38 */
(PID.TID 0000.0001)                 1.225786591246834E+05,      /* J = 39 */
(PID.TID 0000.0001)                 9.246038586187513E+04       /* J = 40 */
(PID.TID 0000.0001)     ;
(PID.TID 0000.0001) dyF =  /* dyF(:,1,:,1) ( units: m ) */
(PID.TID 0000.0001)    90 @  4.447098934081552E+05              /* I =  1: 90 */
(PID.TID 0000.0001)     ;
(PID.TID 0000.0001) dyF =  /* dyF(1,:,1,:) ( units: m ) */
(PID.TID 0000.0001)    40 @  4.447098934081552E+05              /* J =  1: 40 */
(PID.TID 0000.0001)     ;
(PID.TID 0000.0001) dxG =  /* dxG(:,1,:,1) ( units: m ) */
(PID.TID 0000.0001)    90 @  7.722306258078101E+04              /* I =  1: 90 */
(PID.TID 0000.0001)     ;
(PID.TID 0000.0001) dxG =  /* dxG(1,:,1,:) ( units: m ) */
(PID.TID 0000.0001)                 7.722306258078101E+04,      /* J =  1 */
(PID.TID 0000.0001)                 1.075850604052271E+05,      /* J =  2 */
(PID.TID 0000.0001)                 1.374229146297914E+05,      /* J =  3 */
(PID.TID 0000.0001)                 1.665912582279823E+05,      /* J =  4 */
(PID.TID 0000.0001)                 1.949479859617814E+05,      /* J =  5 */
(PID.TID 0000.0001)                 2.223549467040777E+05,      /* J =  6 */
(PID.TID 0000.0001)                 2.486786164970726E+05,      /* J =  7 */
(PID.TID 0000.0001)                 2.737907490675810E+05,      /* J =  8 */
(PID.TID 0000.0001)                 2.975690006299821E+05,      /* J =  9 */
(PID.TID 0000.0001)                 3.198975259328452E+05,      /* J = 10 */
(PID.TID 0000.0001)                 3.406675426453503E+05,      /* J = 11 */
(PID.TID 0000.0001)                 3.597778613338690E+05,      /* J = 12 */
(PID.TID 0000.0001)                 3.771353784467131E+05,      /* J = 13 */
(PID.TID 0000.0001)                 3.926555299052806E+05,      /* J = 14 */
(PID.TID 0000.0001)                 4.062627030917454E+05,      /* J = 15 */
(PID.TID 0000.0001)                 4.178906052261313E+05,      /* J = 16 */
(PID.TID 0000.0001)                 4.274825863380723E+05,      /* J = 17 */
(PID.TID 0000.0001)                 4.349919152597734E+05,      /* J = 18 */
(PID.TID 0000.0001)                 4.403820072955634E+05,      /* J = 19 */
(PID.TID 0000.0001)                 4.436266024588540E+05,      /* J = 20 */
(PID.TID 0000.0001)                 4.447098934081552E+05,      /* J = 21 */
(PID.TID 0000.0001)                 4.436266024588540E+05,      /* J = 22 */
(PID.TID 0000.0001)                 4.403820072955634E+05,      /* J = 23 */
(PID.TID 0000.0001)                 4.349919152597734E+05,      /* J = 24 */
(PID.TID 0000.0001)                 4.274825863380723E+05,      /* J = 25 */
(PID.TID 0000.0001)                 4.178906052261313E+05,      /* J = 26 */
(PID.TID 0000.0001)                 4.062627030917454E+05,      /* J = 27 */
(PID.TID 0000.0001)                 3.926555299052806E+05,      /* J = 28 */
(PID.TID 0000.0001)                 3.771353784467131E+05,      /* J = 29 */
(PID.TID 0000.0001)                 3.597778613338690E+05,      /* J = 30 */
(PID.TID 0000.0001)                 3.406675426453503E+05,      /* J = 31 */
(PID.TID 0000.0001)                 3.198975259328452E+05,      /* J = 32 */
(PID.TID 0000.0001)                 2.975690006299821E+05,      /* J = 33 */
(PID.TID 0000.0001)                 2.737907490675810E+05,      /* J = 34 */
(PID.TID 0000.0001)                 2.486786164970726E+05,      /* J = 35 */
(PID.TID 0000.0001)                 2.223549467040777E+05,      /* J = 36 */
(PID.TID 0000.0001)                 1.949479859617814E+05,      /* J = 37 */
(PID.TID 0000.0001)                 1.665912582279823E+05,      /* J = 38 */
(PID.TID 0000.0001)                 1.374229146297914E+05,      /* J = 39 */
(PID.TID 0000.0001)                 1.075850604052271E+05       /* J = 40 */
(PID.TID 0000.0001)     ;
(PID.TID 0000.0001) dyG =  /* dyG(:,1,:,1) ( units: m ) */
(PID.TID 0000.0001)    90 @  4.447098934081552E+05              /* I =  1: 90 */
(PID.TID 0000.0001)     ;
(PID.TID 0000.0001) dyG =  /* dyG(1,:,1,:) ( units: m ) */
(PID.TID 0000.0001)    40 @  4.447098934081552E+05              /* J =  1: 40 */
(PID.TID 0000.0001)     ;
(PID.TID 0000.0001) dxC =  /* dxC(:,1,:,1) ( units: m ) */
(PID.TID 0000.0001)    90 @  9.246038586187513E+04              /* I =  1: 90 */
(PID.TID 0000.0001)     ;
(PID.TID 0000.0001) dxC =  /* dxC(1,:,1,:) ( units: m ) */
(PID.TID 0000.0001)                 9.246038586187513E+04,      /* J =  1 */
(PID.TID 0000.0001)                 1.225786591246834E+05,      /* J =  2 */
(PID.TID 0000.0001)                 1.520997414818001E+05,      /* J =  3 */
(PID.TID 0000.0001)                 1.808798091874300E+05,      /* J =  4 */
(PID.TID 0000.0001)                 2.087786486446736E+05,      /* J =  5 */
(PID.TID 0000.0001)                 2.356603395120765E+05,      /* J =  6 */
(PID.TID 0000.0001)                 2.613939168938713E+05,      /* J =  7 */
(PID.TID 0000.0001)                 2.858540093877838E+05,      /* J =  8 */
(PID.TID 0000.0001)                 3.089214498819034E+05,      /* J =  9 */
(PID.TID 0000.0001)                 3.304838561248741E+05,      /* J = 10 */
(PID.TID 0000.0001)                 3.504361782409254E+05,      /* J = 11 */
(PID.TID 0000.0001)                 3.686812105223082E+05,      /* J = 12 */
(PID.TID 0000.0001)                 3.851300650057323E+05,      /* J = 13 */
(PID.TID 0000.0001)                 3.997026045255871E+05,      /* J = 14 */
(PID.TID 0000.0001)                 4.123278331341585E+05,      /* J = 15 */
(PID.TID 0000.0001)                 4.229442419867491E+05,      /* J = 16 */
(PID.TID 0000.0001)                 4.315001090065870E+05,      /* J = 17 */
(PID.TID 0000.0001)                 4.379537508695838E+05,      /* J = 18 */
(PID.TID 0000.0001)                 4.422737260813012E+05,      /* J = 19 */
(PID.TID 0000.0001)     2 @  4.444389881567502E+05,             /* J = 20: 21 */
(PID.TID 0000.0001)                 4.422737260813012E+05,      /* J = 22 */
(PID.TID 0000.0001)                 4.379537508695838E+05,      /* J = 23 */
(PID.TID 0000.0001)                 4.315001090065870E+05,      /* J = 24 */
(PID.TID 0000.0001)                 4.229442419867491E+05,      /* J = 25 */
(PID.TID 0000.0001)                 4.123278331341585E+05,      /* J = 26 */
(PID.TID 0000.0001)                 3.997026045255871E+05,      /* J = 27 */
(PID.TID 0000.0001)                 3.851300650057323E+05,      /* J = 28 */
(PID.TID 0000.0001)                 3.686812105223082E+05,      /* J = 29 */
(PID.TID 0000.0001)                 3.504361782409254E+05,      /* J = 30 */
(PID.TID 0000.0001)                 3.304838561248741E+05,      /* J = 31 */
(PID.TID 0000.0001)                 3.089214498819034E+05,      /* J = 32 */
(PID.TID 0000.0001)                 2.858540093877838E+05,      /* J = 33 */
(PID.TID 0000.0001)                 2.613939168938713E+05,      /* J = 34 */
(PID.TID 0000.0001)                 2.356603395120765E+05,      /* J = 35 */
(PID.TID 0000.0001)                 2.087786486446736E+05,      /* J = 36 */
(PID.TID 0000.0001)                 1.808798091874300E+05,      /* J = 37 */
(PID.TID 0000.0001)                 1.520997414818001E+05,      /* J = 38 */
(PID.TID 0000.0001)                 1.225786591246834E+05,      /* J = 39 */
(PID.TID 0000.0001)                 9.246038586187513E+04       /* J = 40 */
(PID.TID 0000.0001)     ;
(PID.TID 0000.0001) dyC =  /* dyC(:,1,:,1) ( units: m ) */
(PID.TID 0000.0001)    90 @  4.447098934081552E+05              /* I =  1: 90 */
(PID.TID 0000.0001)     ;
(PID.TID 0000.0001) dyC =  /* dyC(1,:,1,:) ( units: m ) */
(PID.TID 0000.0001)    40 @  4.447098934081552E+05              /* J =  1: 40 */
(PID.TID 0000.0001)     ;
(PID.TID 0000.0001) dxV =  /* dxV(:,1,:,1) ( units: m ) */
(PID.TID 0000.0001)    90 @  7.722306258078101E+04              /* I =  1: 90 */
(PID.TID 0000.0001)     ;
(PID.TID 0000.0001) dxV =  /* dxV(1,:,1,:) ( units: m ) */
(PID.TID 0000.0001)                 7.722306258078101E+04,      /* J =  1 */
(PID.TID 0000.0001)                 1.075850604052271E+05,      /* J =  2 */
(PID.TID 0000.0001)                 1.374229146297914E+05,      /* J =  3 */
(PID.TID 0000.0001)                 1.665912582279823E+05,      /* J =  4 */
(PID.TID 0000.0001)                 1.949479859617814E+05,      /* J =  5 */
(PID.TID 0000.0001)                 2.223549467040777E+05,      /* J =  6 */
(PID.TID 0000.0001)                 2.486786164970726E+05,      /* J =  7 */
(PID.TID 0000.0001)                 2.737907490675810E+05,      /* J =  8 */
(PID.TID 0000.0001)                 2.975690006299821E+05,      /* J =  9 */
(PID.TID 0000.0001)                 3.198975259328452E+05,      /* J = 10 */
(PID.TID 0000.0001)                 3.406675426453503E+05,      /* J = 11 */
(PID.TID 0000.0001)                 3.597778613338690E+05,      /* J = 12 */
(PID.TID 0000.0001)                 3.771353784467131E+05,      /* J = 13 */
(PID.TID 0000.0001)                 3.926555299052806E+05,      /* J = 14 */
(PID.TID 0000.0001)                 4.062627030917454E+05,      /* J = 15 */
(PID.TID 0000.0001)                 4.178906052261313E+05,      /* J = 16 */
(PID.TID 0000.0001)                 4.274825863380723E+05,      /* J = 17 */
(PID.TID 0000.0001)                 4.349919152597734E+05,      /* J = 18 */
(PID.TID 0000.0001)                 4.403820072955634E+05,      /* J = 19 */
(PID.TID 0000.0001)                 4.436266024588540E+05,      /* J = 20 */
(PID.TID 0000.0001)                 4.447098934081552E+05,      /* J = 21 */
(PID.TID 0000.0001)                 4.436266024588540E+05,      /* J = 22 */
(PID.TID 0000.0001)                 4.403820072955634E+05,      /* J = 23 */
(PID.TID 0000.0001)                 4.349919152597734E+05,      /* J = 24 */
(PID.TID 0000.0001)                 4.274825863380723E+05,      /* J = 25 */
(PID.TID 0000.0001)                 4.178906052261313E+05,      /* J = 26 */
(PID.TID 0000.0001)                 4.062627030917454E+05,      /* J = 27 */
(PID.TID 0000.0001)                 3.926555299052806E+05,      /* J = 28 */
(PID.TID 0000.0001)                 3.771353784467131E+05,      /* J = 29 */
(PID.TID 0000.0001)                 3.597778613338690E+05,      /* J = 30 */
(PID.TID 0000.0001)                 3.406675426453503E+05,      /* J = 31 */
(PID.TID 0000.0001)                 3.198975259328452E+05,      /* J = 32 */
(PID.TID 0000.0001)                 2.975690006299821E+05,      /* J = 33 */
(PID.TID 0000.0001)                 2.737907490675810E+05,      /* J = 34 */
(PID.TID 0000.0001)                 2.486786164970726E+05,      /* J = 35 */
(PID.TID 0000.0001)                 2.223549467040777E+05,      /* J = 36 */
(PID.TID 0000.0001)                 1.949479859617814E+05,      /* J = 37 */
(PID.TID 0000.0001)                 1.665912582279823E+05,      /* J = 38 */
(PID.TID 0000.0001)                 1.374229146297914E+05,      /* J = 39 */
(PID.TID 0000.0001)                 1.075850604052271E+05       /* J = 40 */
(PID.TID 0000.0001)     ;
(PID.TID 0000.0001) dyU =  /* dyU(:,1,:,1) ( units: m ) */
(PID.TID 0000.0001)    90 @  4.447098934081552E+05              /* I =  1: 90 */
(PID.TID 0000.0001)     ;
(PID.TID 0000.0001) dyU =  /* dyU(1,:,1,:) ( units: m ) */
(PID.TID 0000.0001)    40 @  4.447098934081552E+05              /* J =  1: 40 */
(PID.TID 0000.0001)     ;
(PID.TID 0000.0001) rA  =  /* rA (:,1,:,1) ( units: m^2 ) */
(PID.TID 0000.0001)    90 @  4.110969866729047E+10              /* I =  1: 90 */
(PID.TID 0000.0001)     ;
(PID.TID 0000.0001) rA  =  /* rA (1,:,1,:) ( units: m^2 ) */
(PID.TID 0000.0001)                 4.110969866729047E+10,      /* J =  1 */
(PID.TID 0000.0001)                 5.450087291636665E+10,      /* J =  2 */
(PID.TID 0000.0001)                 6.762652439100235E+10,      /* J =  3 */
(PID.TID 0000.0001)                 8.042270623659998E+10,      /* J =  4 */
(PID.TID 0000.0001)                 9.282707674147523E+10,      /* J =  5 */
(PID.TID 0000.0001)                 1.047792030594103E+11,      /* J =  6 */
(PID.TID 0000.0001)                 1.162208556324093E+11,      /* J =  7 */
(PID.TID 0000.0001)                 1.270962918792468E+11,      /* J =  8 */
(PID.TID 0000.0001)                 1.373525277677229E+11,      /* J =  9 */
(PID.TID 0000.0001)                 1.469395959475426E+11,      /* J = 10 */
(PID.TID 0000.0001)                 1.558107891862220E+11,      /* J = 11 */
(PID.TID 0000.0001)                 1.639228879220326E+11,      /* J = 12 */
(PID.TID 0000.0001)                 1.712363708253573E+11,      /* J = 13 */
(PID.TID 0000.0001)                 1.777156073426415E+11,      /* J = 14 */
(PID.TID 0000.0001)                 1.833290312848623E+11,      /* J = 15 */
(PID.TID 0000.0001)                 1.880492946148330E+11,      /* J = 16 */
(PID.TID 0000.0001)                 1.918534006840893E+11,      /* J = 17 */
(PID.TID 0000.0001)                 1.947228162702492E+11,      /* J = 18 */
(PID.TID 0000.0001)                 1.966435618690094E+11,      /* J = 19 */
(PID.TID 0000.0001)     2 @  1.976062798008856E+11,             /* J = 20: 21 */
(PID.TID 0000.0001)                 1.966435618690094E+11,      /* J = 22 */
(PID.TID 0000.0001)                 1.947228162702492E+11,      /* J = 23 */
(PID.TID 0000.0001)                 1.918534006840893E+11,      /* J = 24 */
(PID.TID 0000.0001)                 1.880492946148330E+11,      /* J = 25 */
(PID.TID 0000.0001)                 1.833290312848623E+11,      /* J = 26 */
(PID.TID 0000.0001)                 1.777156073426415E+11,      /* J = 27 */
(PID.TID 0000.0001)                 1.712363708253573E+11,      /* J = 28 */
(PID.TID 0000.0001)                 1.639228879220326E+11,      /* J = 29 */
(PID.TID 0000.0001)                 1.558107891862220E+11,      /* J = 30 */
(PID.TID 0000.0001)                 1.469395959475426E+11,      /* J = 31 */
(PID.TID 0000.0001)                 1.373525277677229E+11,      /* J = 32 */
(PID.TID 0000.0001)                 1.270962918792468E+11,      /* J = 33 */
(PID.TID 0000.0001)                 1.162208556324093E+11,      /* J = 34 */
(PID.TID 0000.0001)                 1.047792030594103E+11,      /* J = 35 */
(PID.TID 0000.0001)                 9.282707674147523E+10,      /* J = 36 */
(PID.TID 0000.0001)                 8.042270623659998E+10,      /* J = 37 */
(PID.TID 0000.0001)                 6.762652439100235E+10,      /* J = 38 */
(PID.TID 0000.0001)                 5.450087291636665E+10,      /* J = 39 */
(PID.TID 0000.0001)                 4.110969866729047E+10       /* J = 40 */
(PID.TID 0000.0001)     ;
(PID.TID 0000.0001) rAw =  /* rAw(:,1,:,1) ( units: m^2 ) */
(PID.TID 0000.0001)    90 @  4.110969866729047E+10              /* I =  1: 90 */
(PID.TID 0000.0001)     ;
(PID.TID 0000.0001) rAw =  /* rAw(1,:,1,:) ( units: m^2 ) */
(PID.TID 0000.0001)                 4.110969866729047E+10,      /* J =  1 */
(PID.TID 0000.0001)                 5.450087291636665E+10,      /* J =  2 */
(PID.TID 0000.0001)                 6.762652439100235E+10,      /* J =  3 */
(PID.TID 0000.0001)                 8.042270623659998E+10,      /* J =  4 */
(PID.TID 0000.0001)                 9.282707674147523E+10,      /* J =  5 */
(PID.TID 0000.0001)                 1.047792030594103E+11,      /* J =  6 */
(PID.TID 0000.0001)                 1.162208556324093E+11,      /* J =  7 */
(PID.TID 0000.0001)                 1.270962918792468E+11,      /* J =  8 */
(PID.TID 0000.0001)                 1.373525277677229E+11,      /* J =  9 */
(PID.TID 0000.0001)                 1.469395959475426E+11,      /* J = 10 */
(PID.TID 0000.0001)                 1.558107891862220E+11,      /* J = 11 */
(PID.TID 0000.0001)                 1.639228879220326E+11,      /* J = 12 */
(PID.TID 0000.0001)                 1.712363708253573E+11,      /* J = 13 */
(PID.TID 0000.0001)                 1.777156073426415E+11,      /* J = 14 */
(PID.TID 0000.0001)                 1.833290312848623E+11,      /* J = 15 */
(PID.TID 0000.0001)                 1.880492946148330E+11,      /* J = 16 */
(PID.TID 0000.0001)                 1.918534006840893E+11,      /* J = 17 */
(PID.TID 0000.0001)                 1.947228162702492E+11,      /* J = 18 */
(PID.TID 0000.0001)                 1.966435618690094E+11,      /* J = 19 */
(PID.TID 0000.0001)     2 @  1.976062798008856E+11,             /* J = 20: 21 */
(PID.TID 0000.0001)                 1.966435618690094E+11,      /* J = 22 */
(PID.TID 0000.0001)                 1.947228162702492E+11,      /* J = 23 */
(PID.TID 0000.0001)                 1.918534006840893E+11,      /* J = 24 */
(PID.TID 0000.0001)                 1.880492946148330E+11,      /* J = 25 */
(PID.TID 0000.0001)                 1.833290312848623E+11,      /* J = 26 */
(PID.TID 0000.0001)                 1.777156073426415E+11,      /* J = 27 */
(PID.TID 0000.0001)                 1.712363708253573E+11,      /* J = 28 */
(PID.TID 0000.0001)                 1.639228879220326E+11,      /* J = 29 */
(PID.TID 0000.0001)                 1.558107891862220E+11,      /* J = 30 */
(PID.TID 0000.0001)                 1.469395959475426E+11,      /* J = 31 */
(PID.TID 0000.0001)                 1.373525277677229E+11,      /* J = 32 */
(PID.TID 0000.0001)                 1.270962918792468E+11,      /* J = 33 */
(PID.TID 0000.0001)                 1.162208556324093E+11,      /* J = 34 */
(PID.TID 0000.0001)                 1.047792030594103E+11,      /* J = 35 */
(PID.TID 0000.0001)                 9.282707674147523E+10,      /* J = 36 */
(PID.TID 0000.0001)                 8.042270623659998E+10,      /* J = 37 */
(PID.TID 0000.0001)                 6.762652439100235E+10,      /* J = 38 */
(PID.TID 0000.0001)                 5.450087291636665E+10,      /* J = 39 */
(PID.TID 0000.0001)                 4.110969866729047E+10       /* J = 40 */
(PID.TID 0000.0001)     ;
(PID.TID 0000.0001) rAs =  /* rAs(:,1,:,1) ( units: m^2 ) */
(PID.TID 0000.0001)    90 @  3.433488626798250E+10              /* I =  1: 90 */
(PID.TID 0000.0001)     ;
(PID.TID 0000.0001) rAs =  /* rAs(1,:,1,:) ( units: m^2 ) */
(PID.TID 0000.0001)                 3.433488626798250E+10,      /* J =  1 */
(PID.TID 0000.0001)                 4.783442523123625E+10,      /* J =  2 */
(PID.TID 0000.0001)                 6.110091968306414E+10,      /* J =  3 */
(PID.TID 0000.0001)                 7.406973659603818E+10,      /* J =  4 */
(PID.TID 0000.0001)                 8.667769319778079E+10,      /* J =  5 */
(PID.TID 0000.0001)                 9.886336479107463E+10,      /* J =  6 */
(PID.TID 0000.0001)                 1.105673840088173E+11,      /* J =  7 */
(PID.TID 0000.0001)                 1.217327300458638E+11,      /* J =  8 */
(PID.TID 0000.0001)                 1.323050064586578E+11,      /* J =  9 */
(PID.TID 0000.0001)                 1.422327061792377E+11,      /* J = 10 */
(PID.TID 0000.0001)                 1.514674624524945E+11,      /* J = 11 */
(PID.TID 0000.0001)                 1.599642844741385E+11,      /* J = 12 */
(PID.TID 0000.0001)                 1.676817765813788E+11,      /* J = 13 */
(PID.TID 0000.0001)                 1.745823399284268E+11,      /* J = 14 */
(PID.TID 0000.0001)                 1.806323556642996E+11,      /* J = 15 */
(PID.TID 0000.0001)                 1.858023487204767E+11,      /* J = 16 */
(PID.TID 0000.0001)                 1.900671314104743E+11,      /* J = 17 */
(PID.TID 0000.0001)                 1.934059261417216E+11,      /* J = 18 */
(PID.TID 0000.0001)                 1.958024666419019E+11,      /* J = 19 */
(PID.TID 0000.0001)                 1.972450772065981E+11,      /* J = 20 */
(PID.TID 0000.0001)                 1.977267295821495E+11,      /* J = 21 */
(PID.TID 0000.0001)                 1.972450772065981E+11,      /* J = 22 */
(PID.TID 0000.0001)                 1.958024666419019E+11,      /* J = 23 */
(PID.TID 0000.0001)                 1.934059261417216E+11,      /* J = 24 */
(PID.TID 0000.0001)                 1.900671314104743E+11,      /* J = 25 */
(PID.TID 0000.0001)                 1.858023487204767E+11,      /* J = 26 */
(PID.TID 0000.0001)                 1.806323556642996E+11,      /* J = 27 */
(PID.TID 0000.0001)                 1.745823399284268E+11,      /* J = 28 */
(PID.TID 0000.0001)                 1.676817765813788E+11,      /* J = 29 */
(PID.TID 0000.0001)                 1.599642844741385E+11,      /* J = 30 */
(PID.TID 0000.0001)                 1.514674624524945E+11,      /* J = 31 */
(PID.TID 0000.0001)                 1.422327061792377E+11,      /* J = 32 */
(PID.TID 0000.0001)                 1.323050064586578E+11,      /* J = 33 */
(PID.TID 0000.0001)                 1.217327300458638E+11,      /* J = 34 */
(PID.TID 0000.0001)                 1.105673840088173E+11,      /* J = 35 */
(PID.TID 0000.0001)                 9.886336479107463E+10,      /* J = 36 */
(PID.TID 0000.0001)                 8.667769319778079E+10,      /* J = 37 */
(PID.TID 0000.0001)                 7.406973659603818E+10,      /* J = 38 */
(PID.TID 0000.0001)                 6.110091968306414E+10,      /* J = 39 */
(PID.TID 0000.0001)                 4.783442523123625E+10       /* J = 40 */
(PID.TID 0000.0001)     ;
(PID.TID 0000.0001) globalArea = /* Integrated horizontal Area (m^2) */
(PID.TID 0000.0001)                 3.450614146649838E+14
(PID.TID 0000.0001)     ;
(PID.TID 0000.0001) the_run_name = /* Name of this simulation */
(PID.TID 0000.0001)               'global_oce_latlon'
(PID.TID 0000.0001)     ;
(PID.TID 0000.0001) // =======================================================
(PID.TID 0000.0001) // End of Model config. summary
(PID.TID 0000.0001) // =======================================================
(PID.TID 0000.0001) 
(PID.TID 0000.0001) == Packages configuration : Check & print summary ==
(PID.TID 0000.0001) 
(PID.TID 0000.0001) GMREDI_CHECK: #define GMREDI
(PID.TID 0000.0001) GM_AdvForm =     /* if FALSE => use SkewFlux Form */
(PID.TID 0000.0001)                   F
(PID.TID 0000.0001)     ;
(PID.TID 0000.0001) GM_InMomAsStress = /* if TRUE => apply as Eddy Stress */
(PID.TID 0000.0001)                   F
(PID.TID 0000.0001)     ;
(PID.TID 0000.0001) GM_AdvSeparate = /* Calc Bolus & Euler Adv. separately */
(PID.TID 0000.0001)                   F
(PID.TID 0000.0001)     ;
(PID.TID 0000.0001) GM_ExtraDiag =   /* Tensor Extra Diag (line 1&2) non 0 */
(PID.TID 0000.0001)                   F
(PID.TID 0000.0001)     ;
(PID.TID 0000.0001) GM_isopycK =    /* Background Isopyc. Diffusivity [m^2/s] */
(PID.TID 0000.0001)                 1.000000000000000E+03
(PID.TID 0000.0001)     ;
(PID.TID 0000.0001) GM_skewflx*K =  /* Background GM_SkewFlx Diffusivity [m^2/s] */
(PID.TID 0000.0001)                 1.000000000000000E+03
(PID.TID 0000.0001)     ;
(PID.TID 0000.0001) GM_advec*K =    /* Backg. GM-Advec(=Bolus) Diffusivity [m^2/s]*/
(PID.TID 0000.0001)                 0.000000000000000E+00
(PID.TID 0000.0001)     ;
(PID.TID 0000.0001) GM_Kmin_horiz = /* Minimum Horizontal Diffusivity [m^2/s] */
(PID.TID 0000.0001)                 5.000000000000000E+01
(PID.TID 0000.0001)     ;
(PID.TID 0000.0001) GM_Visbeck_alpha = /* Visbeck alpha coeff. [-] */
(PID.TID 0000.0001)                 0.000000000000000E+00
(PID.TID 0000.0001)     ;
(PID.TID 0000.0001) GM_Small_Number =  /* epsilon used in slope calc */
(PID.TID 0000.0001)                 9.999999999999999E-21
(PID.TID 0000.0001)     ;
(PID.TID 0000.0001) GM_slopeSqCutoff = /* Slope^2 cut-off value */
(PID.TID 0000.0001)                 1.000000000000000E+48
(PID.TID 0000.0001)     ;
(PID.TID 0000.0001) GM_taper_scheme =  /* Type of Tapering/Clipping scheme */
(PID.TID 0000.0001)               'gkw91                                   '
(PID.TID 0000.0001)     ;
(PID.TID 0000.0001) GM_maxSlope =  /* Maximum Slope (Tapering/Clipping) */
(PID.TID 0000.0001)                 1.000000000000000E-02
(PID.TID 0000.0001)     ;
(PID.TID 0000.0001) GM_facTrL2dz = /* Minimum Trans.Layer Thick. (factor of dz) */
(PID.TID 0000.0001)                 1.000000000000000E+00
(PID.TID 0000.0001)     ;
(PID.TID 0000.0001) GM_facTrL2ML = /* Max.Trans.Layer Thick. (factor of MxL Depth)*/
(PID.TID 0000.0001)                 5.000000000000000E+00
(PID.TID 0000.0001)     ;
(PID.TID 0000.0001) GM_maxTransLay = /* Maximum Transition Layer Thickness [m] */
(PID.TID 0000.0001)                 5.000000000000000E+02
(PID.TID 0000.0001)     ;
(PID.TID 0000.0001) GM_UseBVP = /* if TRUE => use bvp a la Ferrari et al. (2010) */
(PID.TID 0000.0001)                   F
(PID.TID 0000.0001)     ;
(PID.TID 0000.0001) GM_BVP_ModeNumber = /* Vertical mode number for BVP wave speed */
(PID.TID 0000.0001)                       1
(PID.TID 0000.0001)     ;
(PID.TID 0000.0001) GM_BVP_cMin = /* Minimum wave speed for BVP [m/s] */
(PID.TID 0000.0001)                 1.000000000000000E-01
(PID.TID 0000.0001)     ;
(PID.TID 0000.0001) GM_useSubMeso = /* if TRUE => use Sub-Meso param. (B.Fox-Kemper) */
(PID.TID 0000.0001)                   F
(PID.TID 0000.0001)     ;
(PID.TID 0000.0001) subMeso_Ceff = /* efficiency coeff. of Mixed-Layer Eddies [-] */
(PID.TID 0000.0001)                 7.000000000000001E-02
(PID.TID 0000.0001)     ;
(PID.TID 0000.0001) subMeso_invTau = /* inverse of Sub-Meso mixing time-scale [/s] */
(PID.TID 0000.0001)                 2.000000000000000E-06
(PID.TID 0000.0001)     ;
(PID.TID 0000.0001) subMeso_LfMin = /* minimum length-scale "Lf" [m] */
(PID.TID 0000.0001)                 1.000000000000000E+03
(PID.TID 0000.0001)     ;
(PID.TID 0000.0001) subMeso_Lmax = /* maximum grid-scale length [m] */
(PID.TID 0000.0001)                 1.100000000000000E+05
(PID.TID 0000.0001)     ;
(PID.TID 0000.0001) GM_useLeithQG = /* if TRUE => add QG Leith viscosity to GMRedi tensor */
(PID.TID 0000.0001)                   F
(PID.TID 0000.0001)     ;
(PID.TID 0000.0001) GAD_CHECK: #define ALLOW_GENERIC_ADVDIFF
(PID.TID 0000.0001) // =======================================================
(PID.TID 0000.0001) // Check Model config. (CONFIG_CHECK):
(PID.TID 0000.0001) // CONFIG_CHECK : Normal End
(PID.TID 0000.0001) // =======================================================
(PID.TID 0000.0001) 
(PID.TID 0000.0001)  MDS_WRITE_FIELD: it,rec,kS,kL,kH=      -1     1   1   1   1 file=XC
(PID.TID 0000.0001)  MDS_WRITE_FIELD: it,rec,kS,kL,kH=      -1     1   1   1   1 file=YC
(PID.TID 0000.0001)  MDS_WRITE_FIELD: it,rec,kS,kL,kH=      -1     1   1   1   1 file=XG
(PID.TID 0000.0001)  MDS_WRITE_FIELD: it,rec,kS,kL,kH=      -1     1   1   1   1 file=YG
(PID.TID 0000.0001)  MDS_WRITE_FIELD: it,rec,kS,kL,kH=      -1     1   1   1   1 file=RAC
(PID.TID 0000.0001)  MDS_WRITE_FIELD: it,rec,kS,kL,kH=      -1     1   1   1   1 file=RAW
(PID.TID 0000.0001)  MDS_WRITE_FIELD: it,rec,kS,kL,kH=      -1     1   1   1   1 file=RAS
(PID.TID 0000.0001)  MDS_WRITE_FIELD: it,rec,kS,kL,kH=      -1     1   1   1   1 file=RAZ
(PID.TID 0000.0001)  MDS_WRITE_FIELD: it,rec,kS,kL,kH=      -1     1   1   1   1 file=DXG
(PID.TID 0000.0001)  MDS_WRITE_FIELD: it,rec,kS,kL,kH=      -1     1   1   1   1 file=DYG
(PID.TID 0000.0001)  MDS_WRITE_FIELD: it,rec,kS,kL,kH=      -1     1   1   1   1 file=DXC
(PID.TID 0000.0001)  MDS_WRITE_FIELD: it,rec,kS,kL,kH=      -1     1   1   1   1 file=DYC
(PID.TID 0000.0001)  MDS_WRITE_FIELD: it,rec,kS,kL,kH=      -1     1   1   1   1 file=DXF
(PID.TID 0000.0001)  MDS_WRITE_FIELD: it,rec,kS,kL,kH=      -1     1   1   1   1 file=DYF
(PID.TID 0000.0001)  MDS_WRITE_FIELD: it,rec,kS,kL,kH=      -1     1   1   1   1 file=DXV
(PID.TID 0000.0001)  MDS_WRITE_FIELD: it,rec,kS,kL,kH=      -1     1   1   1   1 file=DYU
(PID.TID 0000.0001)  MDS_WRITE_FIELD: it,rec,kS,kL,kH=      -1     1   1   1   1 file=Depth
(PID.TID 0000.0001)  MDS_WRITE_FIELD: it,rec,kS,kL,kH=      -1     1   1   1   1 file=rLowC
(PID.TID 0000.0001)  MDS_WRITE_FIELD: it,rec,kS,kL,kH=      -1     1   1   1   1 file=rLowW
(PID.TID 0000.0001)  MDS_WRITE_FIELD: it,rec,kS,kL,kH=      -1     1   1   1   1 file=rLowS
(PID.TID 0000.0001)  MDS_WRITE_FIELD: it,rec,kS,kL,kH=      -1     1   1   1   1 file=rSurfC
(PID.TID 0000.0001)  MDS_WRITE_FIELD: it,rec,kS,kL,kH=      -1     1   1   1   1 file=rSurfW
(PID.TID 0000.0001)  MDS_WRITE_FIELD: it,rec,kS,kL,kH=      -1     1   1   1   1 file=rSurfS
(PID.TID 0000.0001)  MDS_WRITE_FIELD: it,rec,kS,kL,kH=       0     1  15   1  15 file=hFacC
(PID.TID 0000.0001)  MDS_WRITE_FIELD: it,rec,kS,kL,kH=       0     1  15   1  15 file=hFacW
(PID.TID 0000.0001)  MDS_WRITE_FIELD: it,rec,kS,kL,kH=       0     1  15   1  15 file=hFacS
(PID.TID 0000.0001)  MDS_WRITEVEC_LOC: open file: RC.data
(PID.TID 0000.0001)  MDS_WR_REC_RS: iRec,Dim =         1         15
(PID.TID 0000.0001)  MDS_WRITEVEC_LOC: open file: RF.data
(PID.TID 0000.0001)  MDS_WR_REC_RS: iRec,Dim =         1         16
(PID.TID 0000.0001)  MDS_WRITEVEC_LOC: open file: DRC.data
(PID.TID 0000.0001)  MDS_WR_REC_RS: iRec,Dim =         1         16
(PID.TID 0000.0001)  MDS_WRITEVEC_LOC: open file: DRF.data
(PID.TID 0000.0001)  MDS_WR_REC_RS: iRec,Dim =         1         15
(PID.TID 0000.0001)  MDS_WRITEVEC_LOC: open file: PHrefF.data
(PID.TID 0000.0001)  MDS_WR_REC_RS: iRec,Dim =         1         16
(PID.TID 0000.0001)  MDS_WRITEVEC_LOC: open file: PHrefC.data
(PID.TID 0000.0001)  MDS_WR_REC_RS: iRec,Dim =         1         15
(PID.TID 0000.0001)  MDS_READ_FIELD: opening global file: lev_t.bin
(PID.TID 0000.0001) // =======================================================
(PID.TID 0000.0001) // Field Initial Temperature at iteration          1
(PID.TID 0000.0001) // CMIN =         -1.900000000000000E+00
(PID.TID 0000.0001) // CMAX =          2.973338890075684E+01
(PID.TID 0000.0001) // CINT =          1.171606996324327E+00
(PID.TID 0000.0001) // SYMBOLS (CMIN->CMAX): -abcdefghijklmnopqrstuvwxyz+
(PID.TID 0000.0001) //                  0.0: .
(PID.TID 0000.0001) // RANGE I (Lo:Hi:Step):(     1:    90:     1)
(PID.TID 0000.0001) // RANGE J (Lo:Hi:Step):(    40:     1:    -1)
(PID.TID 0000.0001) // RANGE K (Lo:Hi:Step):(   1:   1:   1)
(PID.TID 0000.0001) // =======================================================
(PID.TID 0000.0001) K =   1
(PID.TID 0000.0001)                I=10      I=20      I=30      I=40      I=50      I=60      I=70      I=80      I=90
(PID.TID 0000.0001) |--J--|123456789|123456789|123456789|123456789|123456789|123456789|123456789|123456789|123456789|
(PID.TID 0000.0001)     40 bccdd.baa----abdedd..................................................................bbbbb
(PID.TID 0000.0001)     39 ccdddddccbbbaa...ed.....................................................----........bbbbbb
(PID.TID 0000.0001)     38 fffgfedeedddc...........................................................-----......cbbbcde
(PID.TID 0000.0001)     37 ghh..................................................................bc...bbc...edeed.defg
(PID.TID 0000.0001)     36 hh.........................................ddcb....................dcccbabccdd.eefghhihhih
(PID.TID 0000.0001)     35 hh.................................aaab..dddeddd...ffggg...........ccc....ddeeeffghijjjjih
(PID.TID 0000.0001)     34 ...................................babb.deeeeeee.ffffgghh..................ccdffghijkkkj..
(PID.TID 0000.0001)     33 ....................................accdddeeeeefffffgghhiii.................bcfijkkllllkk.
(PID.TID 0000.0001)     32 ....................................bdddeffgffgghhhhhiiijjj................dccglmnmmmmlll.
(PID.TID 0000.0001)     31 ....................................fghiiiijjjjjjkkkkklllkk..............ikkjjmooooonnmm..
(PID.TID 0000.0001)     30 ...................................mmmnmmmmmmmmmmmmmnnnnnmm............moqrrrqrqqqpppooo..
(PID.TID 0000.0001)     29 .................................pqqqqqpppppppppoppoppppponm...........ssssssrrrrrqqqqpp..
(PID.TID 0000.0001)     28 ...............................prssssrrrsssrrrrrrrrrrrrrqqpoo.........uttssstssrssrrrqqq..
(PID.TID 0000.0001)     27 ..............vv..............stuttuuuuutuuuuuuuuuuttttssrrqqq...stuu.vvvuuuuutttttsss....
(PID.TID 0000.0001)     26 ..............vvv...........uuvvvvvwwwwwwwwvvvvvvvvvuuutttsssttv.uuvxxwwwwwwvvvvuuttsr....
(PID.TID 0000.0001)     25 ..............wwwx...xxx...vvvxxxxxyyxxxxxxxxxwwwwwvvvvvuuuuuvwwx...xxxxxxwwwwwwvvutsr....
(PID.TID 0000.0001)     24 ............wwwwxyy.xxyy...wxx.yyyyyyyyyyyxxxxxxxxwwwwwwwvvwwxxyywww.xxxxxxxxxxwwwvvur....
(PID.TID 0000.0001)     23 ............xxxyyyz.xyyy...xxx..yyyyzzyyyyyyyyxxxxxxxxxwwwwwxxxwwwwwx....vwxxxxwwwwwvu....
(PID.TID 0000.0001)     22 w...........xxyyyzyyyyyz...xx.yyzzzzzzzzzzzzzyyzyyyyyyxxwwxxxxwvvvwwxw......yyyyxxxxxxwxxw
(PID.TID 0000.0001)     21 xxx........xxxxyyzzzzzzz+.....zyzzzzzzz++zzzzyyyyyyyyxxwvvwwwwvvvvvvvu........yyyyyyyyyxxx
(PID.TID 0000.0001)     20 xww.......xyyyyxyyzzzzzz+......z.zzzzz+++zzzzzzyyyyyxxxxwvwxwvuuuuuuut.........yyyyxxxxwww
(PID.TID 0000.0001)     19 vvv.......yyyyxwwxyzyyzzzzz...zzz.....++++++z++z+zzzyyyyxxxxwwvvvvvvvu...........yyxxxwwww
(PID.TID 0000.0001)     18 uut.......zzyyywwxyzyyyyzzyzzzzzz...z+z++++zz+++++++zzzyyyyxxwwwvvvvvtt..........yyxxwvvwv
(PID.TID 0000.0001)     17 uus.......z.yyyyyyxyzzyyyyyyyzz.....yzzzzzzzzzzzzzzzzzzyyyyxxwwvuuvvuut.........yyyxxwttvu
(PID.TID 0000.0001)     16 utr......yy.zyyyyxxxxxxxwxxxxy.......yyyyyyyyyyyyyyyyyyyyyyyxxwvvvuuutts........xyyyxwvuuu
(PID.TID 0000.0001)     15 ttrr....xxx.xxxwxwwwwvwwvvvww.........xwxxxxxxxxxxxxxxxxxyyyxwwwvvuttssrr......wxxxxxwwvuu
(PID.TID 0000.0001)     14 ttsq....xyxwwxwvwwwvutuuuuuuu.........wwvwwwwvwvvwwwvwvvwwwwwwvvvuuutssrr.....vwwwwwwwvvvu
(PID.TID 0000.0001)     13 tttr....wwwvvvtttuuuutttssttt.........vvvuuuuuuutttttuuuuuvwwwuuuttttssrr....uvvvvvvvvvvut
(PID.TID 0000.0001)     12 sssssstttutssssrrrrrstrqqrrssqqrrq....uuttssssrrrrrrrrrrrstttssssrssrrqp.....uuuttssttssss
(PID.TID 0000.0001)     11 poprsssrqqqqqrqppooopqpoppppppppppp..sssrrr.rqpppqqqqppppqqqoppqqqqrqqpp....prsrqqqqqppppq
(PID.TID 0000.0001)     10 lllmoooonmnnmnnnnmmmmmmlmmlllmnnnnon.qqqppp.ppppppooooooooonmnnnonnooooo..nmoponnmnnnnnmll
(PID.TID 0000.0001)      9 ihhiiiihhhhhhiiihiiiiihhhiiiijjkkmnllnnnnn.mmmmnnnnmmmmnnmmlklllllklllll.mllmmllkjiijjihhi
(PID.TID 0000.0001)      8 eeeeeeeedefgggffeeffggffffggghiiiijjijklklkkkkkkkklllkkkkjjiiijkjjjjjjkj.kkjjiihggffffedde
(PID.TID 0000.0001)      7 cccccddeedddefeddddddddddefeefffffgggghiiiiiijjjihhgggghhhhhghhhhhhhiiiihiihhgfeddddddcccc
(PID.TID 0000.0001)      6 abbcccddcccccdddddccdddddddccddddddeeeeffggggghhgeddddddeeeeeeefggggghggggffeedccbbbbbbbba
(PID.TID 0000.0001)      5 bbbcccccccccccccccccccccbbccccdddddddcccddeeddeedcbbbbbbccccccdddeeeeeddddddccbbbbaaaaaaab
(PID.TID 0000.0001)      4 bbbbbbbaaabbbbbbbbbbbbaabbabbbbcbbbbbbbbbbbbbbbbbbbabbaaabbbbbbbbbbbbbbbbb..a--aaabbbaaabb
(PID.TID 0000.0001)      3 bbbbaaa-a-............................bbaaaaaaaaaaaaaaaaaaaaaaaaaaaaaaaab..aaaaaaaabbbaaaa
(PID.TID 0000.0001)      2 ..........................................baaaaaaaaaaaa-------aa..aaaa.....aaaaaaaaaaaa...
(PID.TID 0000.0001)      1 ..........................................................................................
(PID.TID 0000.0001) // =======================================================
(PID.TID 0000.0001) // END OF FIELD                                          =
(PID.TID 0000.0001) // =======================================================
(PID.TID 0000.0001) 
(PID.TID 0000.0001)  MDS_READ_FIELD: opening global file: lev_s.bin
(PID.TID 0000.0001) // =======================================================
(PID.TID 0000.0001) // Field Initial Salinity at iteration          1
(PID.TID 0000.0001) // CMIN =          2.975276947021484E+01
(PID.TID 0000.0001) // CMAX =          3.747562789916992E+01
(PID.TID 0000.0001) // CINT =          2.860317936650029E-01
(PID.TID 0000.0001) // SYMBOLS (CMIN->CMAX): -abcdefghijklmnopqrstuvwxyz+
(PID.TID 0000.0001) //                  0.0: .
(PID.TID 0000.0001) // RANGE I (Lo:Hi:Step):(     1:    90:     1)
(PID.TID 0000.0001) // RANGE J (Lo:Hi:Step):(    40:     1:    -1)
(PID.TID 0000.0001) // RANGE K (Lo:Hi:Step):(   1:   1:   1)
(PID.TID 0000.0001) // =======================================================
(PID.TID 0000.0001) K =   1
(PID.TID 0000.0001)                I=10      I=20      I=30      I=40      I=50      I=60      I=70      I=80      I=90
(PID.TID 0000.0001) |--J--|123456789|123456789|123456789|123456789|123456789|123456789|123456789|123456789|123456789|
(PID.TID 0000.0001)     40 qrrrr.oonnooopqtutt..................................................................mnnop
(PID.TID 0000.0001)     39 rssrrrrrrrqqpn...ut.....................................................mmmm........opqqqr
(PID.TID 0000.0001)     38 ssrrqqqqrrqpo...........................................................lkkll......onoqrrs
(PID.TID 0000.0001)     37 ssr..................................................................hg...lln...qppqr.rrrs
(PID.TID 0000.0001)     36 rr.........................................lkji....................feeegikmoop.pqrssssssss
(PID.TID 0000.0001)     35 rr.................................kkkk..lllllki...jijjj...........aa-....opqrrrrrrrssttss
(PID.TID 0000.0001)     34 ...................................jlll.kklllllk.ijkkkjih..................hlpqrqrrsstts..
(PID.TID 0000.0001)     33 ....................................iklkkkkkkkkkjkkjjjjjjii.................jmprrsstttttt.
(PID.TID 0000.0001)     32 ....................................iklllkllllllllkkkkkkkji................gilpstuuttuuut.
(PID.TID 0000.0001)     31 ....................................lmnonnnnoooonnmmmmllkjj..............loopqtvvvuuuuuu..
(PID.TID 0000.0001)     30 ...................................pppppppqqqqpppoooonnmlkk............ptvxwwvvwvvvvvvvu..
(PID.TID 0000.0001)     29 .................................pqqrqqqqqqrrrqqppqqqpponmll...........vxxxxxxwwwwwxwwxw..
(PID.TID 0000.0001)     28 ...............................prrrrrqqrrrrrsrrsrssssssrqonmm.........wxxxxxxxyyyyyyyyxx..
(PID.TID 0000.0001)     27 ..............xx..............prrrrrrrrrssssssstttssssssrqpoop...uwww.wwxxxyyy++zzzzyy....
(PID.TID 0000.0001)     26 ..............wxx...........ppqrrrrrrsssrrstsstttssrrrrrrrqppqqp.wwwvvwwwwwxyy+++zzyxw....
(PID.TID 0000.0001)     25 ..............wxxv...kkk...ooopqrrrrrssrrrrrrrssssqqpppppppppppoo...vvutuuvvwxyyyxxvvu....
(PID.TID 0000.0001)     24 ............uvvwwur.lmlk...nmm.pqqqqrrrrrqqqqrrqqrpppppooooonmmmnooo.uuuuuuttuvvvuvuut....
(PID.TID 0000.0001)     23 ............vvuvtqp.lmml...mln..ppppqpqppppppqpppppppppqppponnnnnoopm....xvuuuvvvvuuut....
(PID.TID 0000.0001)     22 r...........vuttsqqpnppn...mm.oppqqrrqqqqqqppppqqrrrqqqrrppppoopooomjj......uuvvvvvuttssrr
(PID.TID 0000.0001)     21 qmm........ttsssssssrsqon.....opqqqqqqqrrrrqqqssssssrrrrrrrrpqqqppomll........tvvvvuttssrr
(PID.TID 0000.0001)     20 sqq.......sttssrrsrrrrpol......p.qrqpqrrrrrrrstttttsssrrsssrqrrrrqqqpo.........wwwvvvuuutt
(PID.TID 0000.0001)     19 tsr.......ssssrrrrpppppnmmm...oqq.....qrqqsrrstttuuuttssttssrrssrrrrqq...........wwwvuvvvv
(PID.TID 0000.0001)     18 wut.......ssrrrrrqppppppppoooorrr...poqqqprrrttttuuutuuuuuutttttttutsss..........yyxwwxwxx
(PID.TID 0000.0001)     17 wwu.......s.rrrrrrqppppqqqqqqqr.....rrsrqrsssuusrtuuuvvvwwvvvuuuuutttss.........xyzyyyyxxx
(PID.TID 0000.0001)     16 vvt......ss.qrrssrqrqpqrrrrrrr.......ssrrstsstusrsuuuvwwwwxxwwvvvuttttsr........yz+zzzxwww
(PID.TID 0000.0001)     15 utss....stt.rrssstttsrrsrstsr.........ssstttssttsuuttuvvvvwxwwwwwuttsssrr......xyyyyxyyxwv
(PID.TID 0000.0001)     14 utts....sstrrssstuuuuuuuuuutt.........stttuutttttttuttttttuvvvvvvutsrqrrr.....vxxwwwwxwvwv
(PID.TID 0000.0001)     13 uuut....ttttttttuuuuuvtuuuuuu.........ttttuutttttttuutsssstttttstsqrqqppp....uwwwvuvvvutvv
(PID.TID 0000.0001)     12 ttttttttttttttttttttttssuuuuutuuut....tttttttttttsssssrrrrrrrqqqqqppppoo.....rvvuuttttttuu
(PID.TID 0000.0001)     11 rqsttttttttuuttttsssssrrstttttttsss..ttttts.tsssrrrrqqqqqppppoonnooooooo....oruttttsssrqrs
(PID.TID 0000.0001)     10 pppqrssrqqrqpqrssrrqqqqqqrrrrrrrrrrs.sssssr.rssrrqqpppppppooooonnnoooonn..moqrrrqqqqqqqqqq
(PID.TID 0000.0001)      9 oonooooooooonnnooooooooooppppppqqqqqrrrqrq.pppqqqqqppppppppppoooooooooll.lmoqqqqppooooopoo
(PID.TID 0000.0001)      8 nnnoonooooooonnnnnnnoooonoonoooppopqqqqqqqppopppqqqpppppppppppppppooopon.lnopppoooonnnnooo
(PID.TID 0000.0001)      7 ooooooooooopponnnooooooonnnnnonnooooooooopppppppoooooooooopppppppppoopqnnmnoooonnnonnnnnno
(PID.TID 0000.0001)      6 oooonnoonnnnooooooooooooonnnnnnnnnnnnnnnnoooopppooooooooooooooppppppppppoooooooonnnnnmnnnn
(PID.TID 0000.0001)      5 oooonnnnnnnnnnnnnnnnnoooooonnnnnnonnnnnnnnnoooooooooooonnnnnnooooooopoooonoooonnnnnnnooooo
(PID.TID 0000.0001)      4 oooonnnooonnnnnnnnnnnnnnoooooonnnooooonnnooooooooppponnnnmmmnnnnmnnoonnnnn..nnnooooooooooo
(PID.TID 0000.0001)      3 ooonnnnnnn............................nnoooooonnooooonnnnnnnoonnnnnnnnmmm..ooopooooooooooo
(PID.TID 0000.0001)      2 ..........................................pppooooonnnnnnoooppppo..nnnn.....qqqpppoooooo...
(PID.TID 0000.0001)      1 ..........................................................................................
(PID.TID 0000.0001) // =======================================================
(PID.TID 0000.0001) // END OF FIELD                                          =
(PID.TID 0000.0001) // =======================================================
(PID.TID 0000.0001) 
(PID.TID 0000.0001) Start initial hydrostatic pressure computation
(PID.TID 0000.0001) Pressure is predetermined for buoyancyRelation OCEANIC
(PID.TID 0000.0001) 
(PID.TID 0000.0001)  MDS_READ_FIELD: opening global file: trenberth_taux.bin
(PID.TID 0000.0001)  MDS_READ_FIELD: opening global file: trenberth_tauy.bin
(PID.TID 0000.0001)  MDS_READ_FIELD: opening global file: ncep_qnet.bin
(PID.TID 0000.0001)  MDS_READ_FIELD: opening global file: ncep_emp.bin
(PID.TID 0000.0001)  MDS_READ_FIELD: opening global file: lev_sst.bin
(PID.TID 0000.0001)  MDS_READ_FIELD: opening global file: lev_sss.bin
(PID.TID 0000.0001) // =======================================================
(PID.TID 0000.0001) // Model current state
(PID.TID 0000.0001) // =======================================================
(PID.TID 0000.0001) 
(PID.TID 0000.0001) // =======================================================
(PID.TID 0000.0001) // Begin MONITOR dynamic field statistics
(PID.TID 0000.0001) // =======================================================
(PID.TID 0000.0001) %MON time_tsnumber                =                     0
(PID.TID 0000.0001) %MON time_secondsf                =   0.0000000000000E+00
(PID.TID 0000.0001) %MON dynstat_eta_max              =   0.0000000000000E+00
(PID.TID 0000.0001) %MON dynstat_eta_min              =   0.0000000000000E+00
(PID.TID 0000.0001) %MON dynstat_eta_mean             =   0.0000000000000E+00
(PID.TID 0000.0001) %MON dynstat_eta_sd               =   0.0000000000000E+00
(PID.TID 0000.0001) %MON dynstat_eta_del2             =   0.0000000000000E+00
(PID.TID 0000.0001) %MON dynstat_uvel_max             =   0.0000000000000E+00
(PID.TID 0000.0001) %MON dynstat_uvel_min             =   0.0000000000000E+00
(PID.TID 0000.0001) %MON dynstat_uvel_mean            =   0.0000000000000E+00
(PID.TID 0000.0001) %MON dynstat_uvel_sd              =   0.0000000000000E+00
(PID.TID 0000.0001) %MON dynstat_uvel_del2            =   0.0000000000000E+00
(PID.TID 0000.0001) %MON dynstat_vvel_max             =   0.0000000000000E+00
(PID.TID 0000.0001) %MON dynstat_vvel_min             =   0.0000000000000E+00
(PID.TID 0000.0001) %MON dynstat_vvel_mean            =   0.0000000000000E+00
(PID.TID 0000.0001) %MON dynstat_vvel_sd              =   0.0000000000000E+00
(PID.TID 0000.0001) %MON dynstat_vvel_del2            =   0.0000000000000E+00
(PID.TID 0000.0001) %MON dynstat_wvel_max             =   0.0000000000000E+00
(PID.TID 0000.0001) %MON dynstat_wvel_min             =   0.0000000000000E+00
(PID.TID 0000.0001) %MON dynstat_wvel_mean            =   0.0000000000000E+00
(PID.TID 0000.0001) %MON dynstat_wvel_sd              =   0.0000000000000E+00
(PID.TID 0000.0001) %MON dynstat_wvel_del2            =   0.0000000000000E+00
(PID.TID 0000.0001) %MON dynstat_theta_max            =   2.9733388900757E+01
(PID.TID 0000.0001) %MON dynstat_theta_min            =  -1.9000000000000E+00
(PID.TID 0000.0001) %MON dynstat_theta_mean           =   3.6197074666129E+00
(PID.TID 0000.0001) %MON dynstat_theta_sd             =   4.4174614518568E+00
(PID.TID 0000.0001) %MON dynstat_theta_del2           =   5.6229722638211E-03
(PID.TID 0000.0001) %MON dynstat_salt_max             =   3.7475627899170E+01
(PID.TID 0000.0001) %MON dynstat_salt_min             =   2.9752769470215E+01
(PID.TID 0000.0001) %MON dynstat_salt_mean            =   3.4718006161475E+01
(PID.TID 0000.0001) %MON dynstat_salt_sd              =   2.9628819587990E-01
(PID.TID 0000.0001) %MON dynstat_salt_del2            =   1.0127003139695E-03
(PID.TID 0000.0001) %MON dynstat_sst_max              =   2.9733388900757E+01
(PID.TID 0000.0001) %MON dynstat_sst_min              =  -1.9000000000000E+00
(PID.TID 0000.0001) %MON dynstat_sst_mean             =   1.8484768169451E+01
(PID.TID 0000.0001) %MON dynstat_sst_sd               =   9.1795873467430E+00
(PID.TID 0000.0001) %MON dynstat_sst_del2             =   2.7217991810411E-02
(PID.TID 0000.0001) %MON dynstat_sss_max              =   3.7475627899170E+01
(PID.TID 0000.0001) %MON dynstat_sss_min              =   2.9752769470215E+01
(PID.TID 0000.0001) %MON dynstat_sss_mean             =   3.4849925275207E+01
(PID.TID 0000.0001) %MON dynstat_sss_sd               =   9.6344930396289E-01
(PID.TID 0000.0001) %MON dynstat_sss_del2             =   8.0490524880020E-03
(PID.TID 0000.0001) %MON forcing_qnet_max             =   4.4161361694336E+02
(PID.TID 0000.0001) %MON forcing_qnet_min             =  -1.8132531738281E+02
(PID.TID 0000.0001) %MON forcing_qnet_mean            =  -1.6512526001044E+01
(PID.TID 0000.0001) %MON forcing_qnet_sd              =   1.0987288293460E+02
(PID.TID 0000.0001) %MON forcing_qnet_del2            =   1.0245701543512E+00
(PID.TID 0000.0001) %MON forcing_qsw_max              =   0.0000000000000E+00
(PID.TID 0000.0001) %MON forcing_qsw_min              =   0.0000000000000E+00
(PID.TID 0000.0001) %MON forcing_qsw_mean             =   0.0000000000000E+00
(PID.TID 0000.0001) %MON forcing_qsw_sd               =   0.0000000000000E+00
(PID.TID 0000.0001) %MON forcing_qsw_del2             =   0.0000000000000E+00
(PID.TID 0000.0001) %MON forcing_empmr_max            =   8.2174238968946E-05
(PID.TID 0000.0001) %MON forcing_empmr_min            =  -7.6155956207913E-05
(PID.TID 0000.0001) %MON forcing_empmr_mean           =   9.2293706211063E-07
(PID.TID 0000.0001) %MON forcing_empmr_sd             =   2.8800050217957E-05
(PID.TID 0000.0001) %MON forcing_empmr_del2           =   3.6757632549621E-07
(PID.TID 0000.0001) %MON forcing_fu_max               =   2.7877888083458E-01
(PID.TID 0000.0001) %MON forcing_fu_min               =  -1.7088057100773E-01
(PID.TID 0000.0001) %MON forcing_fu_mean              =   1.6001735152566E-02
(PID.TID 0000.0001) %MON forcing_fu_sd                =   9.1062350670783E-02
(PID.TID 0000.0001) %MON forcing_fu_del2              =   7.2483493833855E-04
(PID.TID 0000.0001) %MON forcing_fv_max               =   2.3312132060528E-01
(PID.TID 0000.0001) %MON forcing_fv_min               =  -1.7813690006733E-01
(PID.TID 0000.0001) %MON forcing_fv_mean              =  -5.2588977395051E-03
(PID.TID 0000.0001) %MON forcing_fv_sd                =   4.8248606070107E-02
(PID.TID 0000.0001) %MON forcing_fv_del2              =   4.9948324922575E-04
(PID.TID 0000.0001) %MON trAdv_CFL_u_max              =   0.0000000000000E+00
(PID.TID 0000.0001) %MON trAdv_CFL_v_max              =   0.0000000000000E+00
(PID.TID 0000.0001) %MON trAdv_CFL_w_max              =   0.0000000000000E+00
(PID.TID 0000.0001) %MON advcfl_uvel_max              =   0.0000000000000E+00
(PID.TID 0000.0001) %MON advcfl_vvel_max              =   0.0000000000000E+00
(PID.TID 0000.0001) %MON advcfl_wvel_max              =   0.0000000000000E+00
(PID.TID 0000.0001) %MON advcfl_W_hf_max              =   0.0000000000000E+00
(PID.TID 0000.0001) %MON pe_b_mean                    =   0.0000000000000E+00
(PID.TID 0000.0001) %MON ke_max                       =   0.0000000000000E+00
(PID.TID 0000.0001) %MON ke_mean                      =   0.0000000000000E+00
(PID.TID 0000.0001) %MON ke_vol                       =   1.3226782436723E+18
(PID.TID 0000.0001) %MON vort_r_min                   =   0.0000000000000E+00
(PID.TID 0000.0001) %MON vort_r_max                   =   0.0000000000000E+00
(PID.TID 0000.0001) %MON vort_a_mean                  =  -2.5274807396949E-05
(PID.TID 0000.0001) %MON vort_a_sd                    =   7.3604350271441E-05
(PID.TID 0000.0001) %MON vort_p_mean                  =  -3.1845655798840E-05
(PID.TID 0000.0001) %MON vort_p_sd                    =   1.3162570071703E-04
(PID.TID 0000.0001) %MON surfExpan_theta_mean         =   0.0000000000000E+00
(PID.TID 0000.0001) %MON surfExpan_salt_mean          =   0.0000000000000E+00
(PID.TID 0000.0001) // =======================================================
(PID.TID 0000.0001) // End MONITOR dynamic field statistics
(PID.TID 0000.0001) // =======================================================
(PID.TID 0000.0001) // =======================================================
(PID.TID 0000.0001) // Field Current uVel   at iteration          0
(PID.TID 0000.0001) // CMIN =          1.000000000000000E+32
(PID.TID 0000.0001) // CMAX =         -1.000000000000000E+32
(PID.TID 0000.0001) // CINT =          0.000000000000000E+00
(PID.TID 0000.0001) // SYMBOLS (CMIN->CMAX): -abcdefghijklmnopqrstuvwxyz+
(PID.TID 0000.0001) //                  0.0: .
(PID.TID 0000.0001) // RANGE I (Lo:Hi:Step):(     1:    90:     1)
(PID.TID 0000.0001) // RANGE J (Lo:Hi:Step):(    40:     1:    -1)
(PID.TID 0000.0001) // RANGE K (Lo:Hi:Step):(   1:   1:   1)
(PID.TID 0000.0001) // =======================================================
(PID.TID 0000.0001) // =======================================================
(PID.TID 0000.0001) // END OF FIELD                                          =
(PID.TID 0000.0001) // =======================================================
(PID.TID 0000.0001) 
(PID.TID 0000.0001) // =======================================================
(PID.TID 0000.0001) // Field Current vVel   at iteration          0
(PID.TID 0000.0001) // CMIN =          1.000000000000000E+32
(PID.TID 0000.0001) // CMAX =         -1.000000000000000E+32
(PID.TID 0000.0001) // CINT =          0.000000000000000E+00
(PID.TID 0000.0001) // SYMBOLS (CMIN->CMAX): -abcdefghijklmnopqrstuvwxyz+
(PID.TID 0000.0001) //                  0.0: .
(PID.TID 0000.0001) // RANGE I (Lo:Hi:Step):(     1:    90:     1)
(PID.TID 0000.0001) // RANGE J (Lo:Hi:Step):(    40:     1:    -1)
(PID.TID 0000.0001) // RANGE K (Lo:Hi:Step):(   1:   1:   1)
(PID.TID 0000.0001) // =======================================================
(PID.TID 0000.0001) // =======================================================
(PID.TID 0000.0001) // END OF FIELD                                          =
(PID.TID 0000.0001) // =======================================================
(PID.TID 0000.0001) 
(PID.TID 0000.0001) // =======================================================
(PID.TID 0000.0001) // Field Current theta  at iteration          0
(PID.TID 0000.0001) // CMIN =         -1.900000000000000E+00
(PID.TID 0000.0001) // CMAX =          2.973338890075684E+01
(PID.TID 0000.0001) // CINT =          1.171606996324327E+00
(PID.TID 0000.0001) // SYMBOLS (CMIN->CMAX): -abcdefghijklmnopqrstuvwxyz+
(PID.TID 0000.0001) //                  0.0: .
(PID.TID 0000.0001) // RANGE I (Lo:Hi:Step):(     1:    90:     1)
(PID.TID 0000.0001) // RANGE J (Lo:Hi:Step):(    40:     1:    -1)
(PID.TID 0000.0001) // RANGE K (Lo:Hi:Step):(   1:   1:   1)
(PID.TID 0000.0001) // =======================================================
(PID.TID 0000.0001) K =   1
(PID.TID 0000.0001)                I=10      I=20      I=30      I=40      I=50      I=60      I=70      I=80      I=90
(PID.TID 0000.0001) |--J--|123456789|123456789|123456789|123456789|123456789|123456789|123456789|123456789|123456789|
(PID.TID 0000.0001)     40 bccdd.baa----abdedd..................................................................bbbbb
(PID.TID 0000.0001)     39 ccdddddccbbbaa...ed.....................................................----........bbbbbb
(PID.TID 0000.0001)     38 fffgfedeedddc...........................................................-----......cbbbcde
(PID.TID 0000.0001)     37 ghh..................................................................bc...bbc...edeed.defg
(PID.TID 0000.0001)     36 hh.........................................ddcb....................dcccbabccdd.eefghhihhih
(PID.TID 0000.0001)     35 hh.................................aaab..dddeddd...ffggg...........ccc....ddeeeffghijjjjih
(PID.TID 0000.0001)     34 ...................................babb.deeeeeee.ffffgghh..................ccdffghijkkkj..
(PID.TID 0000.0001)     33 ....................................accdddeeeeefffffgghhiii.................bcfijkkllllkk.
(PID.TID 0000.0001)     32 ....................................bdddeffgffgghhhhhiiijjj................dccglmnmmmmlll.
(PID.TID 0000.0001)     31 ....................................fghiiiijjjjjjkkkkklllkk..............ikkjjmooooonnmm..
(PID.TID 0000.0001)     30 ...................................mmmnmmmmmmmmmmmmmnnnnnmm............moqrrrqrqqqpppooo..
(PID.TID 0000.0001)     29 .................................pqqqqqpppppppppoppoppppponm...........ssssssrrrrrqqqqpp..
(PID.TID 0000.0001)     28 ...............................prssssrrrsssrrrrrrrrrrrrrqqpoo.........uttssstssrssrrrqqq..
(PID.TID 0000.0001)     27 ..............vv..............stuttuuuuutuuuuuuuuuuttttssrrqqq...stuu.vvvuuuuutttttsss....
(PID.TID 0000.0001)     26 ..............vvv...........uuvvvvvwwwwwwwwvvvvvvvvvuuutttsssttv.uuvxxwwwwwwvvvvuuttsr....
(PID.TID 0000.0001)     25 ..............wwwx...xxx...vvvxxxxxyyxxxxxxxxxwwwwwvvvvvuuuuuvwwx...xxxxxxwwwwwwvvutsr....
(PID.TID 0000.0001)     24 ............wwwwxyy.xxyy...wxx.yyyyyyyyyyyxxxxxxxxwwwwwwwvvwwxxyywww.xxxxxxxxxxwwwvvur....
(PID.TID 0000.0001)     23 ............xxxyyyz.xyyy...xxx..yyyyzzyyyyyyyyxxxxxxxxxwwwwwxxxwwwwwx....vwxxxxwwwwwvu....
(PID.TID 0000.0001)     22 w...........xxyyyzyyyyyz...xx.yyzzzzzzzzzzzzzyyzyyyyyyxxwwxxxxwvvvwwxw......yyyyxxxxxxwxxw
(PID.TID 0000.0001)     21 xxx........xxxxyyzzzzzzz+.....zyzzzzzzz++zzzzyyyyyyyyxxwvvwwwwvvvvvvvu........yyyyyyyyyxxx
(PID.TID 0000.0001)     20 xww.......xyyyyxyyzzzzzz+......z.zzzzz+++zzzzzzyyyyyxxxxwvwxwvuuuuuuut.........yyyyxxxxwww
(PID.TID 0000.0001)     19 vvv.......yyyyxwwxyzyyzzzzz...zzz.....++++++z++z+zzzyyyyxxxxwwvvvvvvvu...........yyxxxwwww
(PID.TID 0000.0001)     18 uut.......zzyyywwxyzyyyyzzyzzzzzz...z+z++++zz+++++++zzzyyyyxxwwwvvvvvtt..........yyxxwvvwv
(PID.TID 0000.0001)     17 uus.......z.yyyyyyxyzzyyyyyyyzz.....yzzzzzzzzzzzzzzzzzzyyyyxxwwvuuvvuut.........yyyxxwttvu
(PID.TID 0000.0001)     16 utr......yy.zyyyyxxxxxxxwxxxxy.......yyyyyyyyyyyyyyyyyyyyyyyxxwvvvuuutts........xyyyxwvuuu
(PID.TID 0000.0001)     15 ttrr....xxx.xxxwxwwwwvwwvvvww.........xwxxxxxxxxxxxxxxxxxyyyxwwwvvuttssrr......wxxxxxwwvuu
(PID.TID 0000.0001)     14 ttsq....xyxwwxwvwwwvutuuuuuuu.........wwvwwwwvwvvwwwvwvvwwwwwwvvvuuutssrr.....vwwwwwwwvvvu
(PID.TID 0000.0001)     13 tttr....wwwvvvtttuuuutttssttt.........vvvuuuuuuutttttuuuuuvwwwuuuttttssrr....uvvvvvvvvvvut
(PID.TID 0000.0001)     12 sssssstttutssssrrrrrstrqqrrssqqrrq....uuttssssrrrrrrrrrrrstttssssrssrrqp.....uuuttssttssss
(PID.TID 0000.0001)     11 poprsssrqqqqqrqppooopqpoppppppppppp..sssrrr.rqpppqqqqppppqqqoppqqqqrqqpp....prsrqqqqqppppq
(PID.TID 0000.0001)     10 lllmoooonmnnmnnnnmmmmmmlmmlllmnnnnon.qqqppp.ppppppooooooooonmnnnonnooooo..nmoponnmnnnnnmll
(PID.TID 0000.0001)      9 ihhiiiihhhhhhiiihiiiiihhhiiiijjkkmnllnnnnn.mmmmnnnnmmmmnnmmlklllllklllll.mllmmllkjiijjihhi
(PID.TID 0000.0001)      8 eeeeeeeedefgggffeeffggffffggghiiiijjijklklkkkkkkkklllkkkkjjiiijkjjjjjjkj.kkjjiihggffffedde
(PID.TID 0000.0001)      7 cccccddeedddefeddddddddddefeefffffgggghiiiiiijjjihhgggghhhhhghhhhhhhiiiihiihhgfeddddddcccc
(PID.TID 0000.0001)      6 abbcccddcccccdddddccdddddddccddddddeeeeffggggghhgeddddddeeeeeeefggggghggggffeedccbbbbbbbba
(PID.TID 0000.0001)      5 bbbcccccccccccccccccccccbbccccdddddddcccddeeddeedcbbbbbbccccccdddeeeeeddddddccbbbbaaaaaaab
(PID.TID 0000.0001)      4 bbbbbbbaaabbbbbbbbbbbbaabbabbbbcbbbbbbbbbbbbbbbbbbbabbaaabbbbbbbbbbbbbbbbb..a--aaabbbaaabb
(PID.TID 0000.0001)      3 bbbbaaa-a-............................bbaaaaaaaaaaaaaaaaaaaaaaaaaaaaaaaab..aaaaaaaabbbaaaa
(PID.TID 0000.0001)      2 ..........................................baaaaaaaaaaaa-------aa..aaaa.....aaaaaaaaaaaa...
(PID.TID 0000.0001)      1 ..........................................................................................
(PID.TID 0000.0001) // =======================================================
(PID.TID 0000.0001) // END OF FIELD                                          =
(PID.TID 0000.0001) // =======================================================
(PID.TID 0000.0001) 
(PID.TID 0000.0001) // =======================================================
(PID.TID 0000.0001) // Field Current etaN   at iteration          0
(PID.TID 0000.0001) // CMIN =          1.000000000000000E+32
(PID.TID 0000.0001) // CMAX =         -1.000000000000000E+32
(PID.TID 0000.0001) // CINT =          0.000000000000000E+00
(PID.TID 0000.0001) // SYMBOLS (CMIN->CMAX): -abcdefghijklmnopqrstuvwxyz+
(PID.TID 0000.0001) //                  0.0: .
(PID.TID 0000.0001) // RANGE I (Lo:Hi:Step):(    -1:    92:     1)
(PID.TID 0000.0001) // RANGE J (Lo:Hi:Step):(    42:    -1:    -1)
(PID.TID 0000.0001) // RANGE K (Lo:Hi:Step):(   1:   1:   1)
(PID.TID 0000.0001) // =======================================================
(PID.TID 0000.0001) // =======================================================
(PID.TID 0000.0001) // END OF FIELD                                          =
(PID.TID 0000.0001) // =======================================================
(PID.TID 0000.0001) 
(PID.TID 0000.0001)  MDS_WRITE_FIELD: it,rec,kS,kL,kH=       0     1  15   1  15 file=U.0000000000
(PID.TID 0000.0001)  MDS_WRITE_FIELD: it,rec,kS,kL,kH=       0     1  15   1  15 file=V.0000000000
(PID.TID 0000.0001)  MDS_WRITE_FIELD: it,rec,kS,kL,kH=       0     1  15   1  15 file=T.0000000000
(PID.TID 0000.0001)  MDS_WRITE_FIELD: it,rec,kS,kL,kH=       0     1  15   1  15 file=S.0000000000
(PID.TID 0000.0001)  MDS_WRITE_FIELD: it,rec,kS,kL,kH=       0     1   1   1   1 file=Eta.0000000000
(PID.TID 0000.0001)  MDS_WRITE_FIELD: it,rec,kS,kL,kH=       0     1  15   1  15 file=W.0000000000
 EXTERNAL_FIELDS_LOAD,         0 : iP,iLd,i0,i1=   12    0   12    1 ; Wght=  0.5000000000  0.5000000000
 EXTERNAL_FIELDS_LOAD, it=         0 : Reading new data, i0,i1=   12    1 (prev=   12    0 )
(PID.TID 0000.0001)  MDS_READ_FIELD: opening global file: trenberth_taux.bin
(PID.TID 0000.0001)  MDS_READ_FIELD: opening global file: trenberth_taux.bin
(PID.TID 0000.0001)  MDS_READ_FIELD: opening global file: trenberth_tauy.bin
(PID.TID 0000.0001)  MDS_READ_FIELD: opening global file: trenberth_tauy.bin
(PID.TID 0000.0001)  MDS_READ_FIELD: opening global file: ncep_qnet.bin
(PID.TID 0000.0001)  MDS_READ_FIELD: opening global file: ncep_qnet.bin
(PID.TID 0000.0001)  MDS_READ_FIELD: opening global file: ncep_emp.bin
(PID.TID 0000.0001)  MDS_READ_FIELD: opening global file: ncep_emp.bin
(PID.TID 0000.0001)  MDS_READ_FIELD: opening global file: lev_sst.bin
(PID.TID 0000.0001)  MDS_READ_FIELD: opening global file: lev_sst.bin
(PID.TID 0000.0001)  MDS_READ_FIELD: opening global file: lev_sss.bin
(PID.TID 0000.0001)  MDS_READ_FIELD: opening global file: lev_sss.bin
 EXTERNAL_FIELDS_LOAD: (fu0,1),fu,fv= -4.5368E-02 -3.5633E-02 -4.0500E-02 -6.3753E-02
 EXTERNAL_FIELDS_LOAD: SST,SSS,Q,E-P=  5.3151E-02  3.4364E+01  2.6510E+02  1.0843E-05
DEBUG_STATS_RL:          Uvel (THERMODYNAMICS)  min=  3.00000000000000E-02
DEBUG_STATS_RL:          Uvel (THERMODYNAMICS)  max=  3.00000000000000E-02
DEBUG_STATS_RL:          Uvel (THERMODYNAMICS) mean=  2.99999999999772E-02
DEBUG_STATS_RL:          Uvel (THERMODYNAMICS) S.D.=  2.28046748151911E-14
DEBUG_STATS_RL:          Vvel (THERMODYNAMICS)  min=  3.00000000000000E-02
DEBUG_STATS_RL:          Vvel (THERMODYNAMICS)  max=  3.00000000000000E-02
DEBUG_STATS_RL:          Vvel (THERMODYNAMICS) mean=  2.99999999999772E-02
DEBUG_STATS_RL:          Vvel (THERMODYNAMICS) S.D.=  2.28046748151911E-14
DEBUG_STATS_RL:          Wvel (THERMODYNAMICS)  min=  0.00000000000000E+00
DEBUG_STATS_RL:          Wvel (THERMODYNAMICS)  max=  0.00000000000000E+00
DEBUG_STATS_RL:          Wvel (THERMODYNAMICS) mean=  0.00000000000000E+00
DEBUG_STATS_RL:          Wvel (THERMODYNAMICS) S.D.=  0.00000000000000E+00
DEBUG_STATS_RL:         Theta (THERMODYNAMICS)  min= -1.87870652566853E+00
DEBUG_STATS_RL:         Theta (THERMODYNAMICS)  max=  2.97776899675126E+01
DEBUG_STATS_RL:         Theta (THERMODYNAMICS) mean=  3.22505140080184E+00
DEBUG_STATS_RL:         Theta (THERMODYNAMICS) S.D.=  5.84759421436646E+00
DEBUG_STATS_RL:          Salt (THERMODYNAMICS)  min=  3.00000000000000E-02
DEBUG_STATS_RL:          Salt (THERMODYNAMICS)  max=  3.74963810155094E+01
DEBUG_STATS_RL:          Salt (THERMODYNAMICS) mean=  1.88751623642365E+01
DEBUG_STATS_RL:          Salt (THERMODYNAMICS) S.D.=  1.73006240956644E+01
DEBUG_STATS_RL:         GtNm1 (THERMODYNAMICS)  min= -2.12622595237893E-06
DEBUG_STATS_RL:         GtNm1 (THERMODYNAMICS)  max=  1.44297562157252E-06
DEBUG_STATS_RL:         GtNm1 (THERMODYNAMICS) mean= -4.19726243308101E-09
DEBUG_STATS_RL:         GtNm1 (THERMODYNAMICS) S.D.=  1.58073496304259E-07
DEBUG_STATS_RL:         GsNm1 (THERMODYNAMICS)  min= -5.44156389031944E-07
DEBUG_STATS_RL:         GsNm1 (THERMODYNAMICS)  max=  2.31238517408321E-07
DEBUG_STATS_RL:         GsNm1 (THERMODYNAMICS) mean= -7.86013423370762E-11
DEBUG_STATS_RL:         GsNm1 (THERMODYNAMICS) S.D.=  1.34561451527008E-08
DEBUG_STATS_RL:                EtaN (DYNAMICS)  min=  3.00000000000000E-02
DEBUG_STATS_RL:                EtaN (DYNAMICS)  max=  3.00000000000000E-02
DEBUG_STATS_RL:                EtaN (DYNAMICS) mean=  3.00000000000009E-02
DEBUG_STATS_RL:                EtaN (DYNAMICS) S.D.=  9.26342336171615E-16
DEBUG_STATS_RL:                Uvel (DYNAMICS)  min=  3.00000000000000E-02
DEBUG_STATS_RL:                Uvel (DYNAMICS)  max=  3.00000000000000E-02
DEBUG_STATS_RL:                Uvel (DYNAMICS) mean=  2.99999999999772E-02
DEBUG_STATS_RL:                Uvel (DYNAMICS) S.D.=  2.28046748151911E-14
DEBUG_STATS_RL:                Vvel (DYNAMICS)  min=  3.00000000000000E-02
DEBUG_STATS_RL:                Vvel (DYNAMICS)  max=  3.00000000000000E-02
DEBUG_STATS_RL:                Vvel (DYNAMICS) mean=  2.99999999999772E-02
DEBUG_STATS_RL:                Vvel (DYNAMICS) S.D.=  2.28046748151911E-14
DEBUG_STATS_RL:                Wvel (DYNAMICS)  min=  0.00000000000000E+00
DEBUG_STATS_RL:                Wvel (DYNAMICS)  max=  0.00000000000000E+00
DEBUG_STATS_RL:                Wvel (DYNAMICS) mean=  0.00000000000000E+00
DEBUG_STATS_RL:                Wvel (DYNAMICS) S.D.=  0.00000000000000E+00
DEBUG_STATS_RL:               Theta (DYNAMICS)  min= -1.87870652566853E+00
DEBUG_STATS_RL:               Theta (DYNAMICS)  max=  2.97776899675126E+01
DEBUG_STATS_RL:               Theta (DYNAMICS) mean=  3.22505140080184E+00
DEBUG_STATS_RL:               Theta (DYNAMICS) S.D.=  5.84759421436646E+00
DEBUG_STATS_RL:                Salt (DYNAMICS)  min=  3.00000000000000E-02
DEBUG_STATS_RL:                Salt (DYNAMICS)  max=  3.74963810155094E+01
DEBUG_STATS_RL:                Salt (DYNAMICS) mean=  1.88751623642365E+01
DEBUG_STATS_RL:                Salt (DYNAMICS) S.D.=  1.73006240956644E+01
DEBUG_STATS_RL:                  Gu (DYNAMICS)  min=  1.08179352158945E-02
DEBUG_STATS_RL:                  Gu (DYNAMICS)  max=  4.71737874185756E-02
DEBUG_STATS_RL:                  Gu (DYNAMICS) mean=  2.93345535365711E-02
DEBUG_STATS_RL:                  Gu (DYNAMICS) S.D.=  2.00454840110256E-03
DEBUG_STATS_RL:                  Gv (DYNAMICS)  min=  6.33797495111415E-03
DEBUG_STATS_RL:                  Gv (DYNAMICS)  max=  6.05074047777194E-02
DEBUG_STATS_RL:                  Gv (DYNAMICS) mean=  3.03020117123629E-02
DEBUG_STATS_RL:                  Gv (DYNAMICS) S.D.=  3.63510841995724E-03
DEBUG_STATS_RL:               GuNm1 (DYNAMICS)  min= -1.03908035561888E-05
DEBUG_STATS_RL:               GuNm1 (DYNAMICS)  max=  1.04446608936587E-05
DEBUG_STATS_RL:               GuNm1 (DYNAMICS) mean= -7.07270598439167E-08
DEBUG_STATS_RL:               GuNm1 (DYNAMICS) S.D.=  1.42174093941087E-06
DEBUG_STATS_RL:               GvNm1 (DYNAMICS)  min= -1.26616522168133E-05
DEBUG_STATS_RL:               GvNm1 (DYNAMICS)  max=  1.77318920906506E-05
DEBUG_STATS_RL:               GvNm1 (DYNAMICS) mean=  7.26573817313318E-07
DEBUG_STATS_RL:               GvNm1 (DYNAMICS) S.D.=  2.91209943868067E-06
DEBUG_STATS_RL:               GtNm1 (DYNAMICS)  min= -2.12622595237893E-06
DEBUG_STATS_RL:               GtNm1 (DYNAMICS)  max=  1.44297562157252E-06
DEBUG_STATS_RL:               GtNm1 (DYNAMICS) mean= -4.19726243308101E-09
DEBUG_STATS_RL:               GtNm1 (DYNAMICS) S.D.=  1.58073496304259E-07
DEBUG_STATS_RL:               GsNm1 (DYNAMICS)  min= -5.44156389031944E-07
DEBUG_STATS_RL:               GsNm1 (DYNAMICS)  max=  2.31238517408321E-07
DEBUG_STATS_RL:               GsNm1 (DYNAMICS) mean= -7.86013423370762E-11
DEBUG_STATS_RL:               GsNm1 (DYNAMICS) S.D.=  1.34561451527008E-08
(PID.TID 0000.0001) SOLVE_FOR_PRESSURE: putPmEinXvector =    F
DEBUG_STATS_RL:    cg2d_b (SOLVE_FOR_PRESSURE)  min= -7.28732104118708E+04
DEBUG_STATS_RL:    cg2d_b (SOLVE_FOR_PRESSURE)  max=  7.81553396361051E+04
DEBUG_STATS_RL:    cg2d_b (SOLVE_FOR_PRESSURE) mean=  6.21173429283127E-02
DEBUG_STATS_RL:    cg2d_b (SOLVE_FOR_PRESSURE) S.D.=  1.21342410263334E+04
 cg2d: Sum(rhs),rhsMax =   1.83994656735018E-03  5.13345196241523E+00
(PID.TID 0000.0001)  cg2d: iter=     1 ; resid.=  5.42234086380491E+00
(PID.TID 0000.0001)  cg2d: iter=     2 ; resid.=  4.83833199103738E+00
(PID.TID 0000.0001)  cg2d: iter=     3 ; resid.=  3.99087202712994E+00
(PID.TID 0000.0001)  cg2d: iter=     4 ; resid.=  3.28197899877022E+00
(PID.TID 0000.0001)  cg2d: iter=     5 ; resid.=  2.74420055238811E+00
(PID.TID 0000.0001)  cg2d: iter=     6 ; resid.=  2.35227346014951E+00
(PID.TID 0000.0001)  cg2d: iter=     7 ; resid.=  2.00940011584643E+00
(PID.TID 0000.0001)  cg2d: iter=     8 ; resid.=  1.67834315418981E+00
(PID.TID 0000.0001)  cg2d: iter=     9 ; resid.=  1.35809188886751E+00
(PID.TID 0000.0001)  cg2d: iter=    10 ; resid.=  1.12912368651944E+00
(PID.TID 0000.0001)  cg2d: iter=    11 ; resid.=  1.06267472129538E+00
(PID.TID 0000.0001)  cg2d: iter=    12 ; resid.=  9.42926829563792E-01
(PID.TID 0000.0001)  cg2d: iter=    13 ; resid.=  8.24740738006679E-01
(PID.TID 0000.0001)  cg2d: iter=    14 ; resid.=  7.12579703942866E-01
(PID.TID 0000.0001)  cg2d: iter=    15 ; resid.=  6.26457765031098E-01
(PID.TID 0000.0001)  cg2d: iter=    16 ; resid.=  5.33832092220275E-01
(PID.TID 0000.0001)  cg2d: iter=    17 ; resid.=  4.40028208103774E-01
(PID.TID 0000.0001)  cg2d: iter=    18 ; resid.=  3.57582311072197E-01
(PID.TID 0000.0001)  cg2d: iter=    19 ; resid.=  3.00016010489062E-01
(PID.TID 0000.0001)  cg2d: iter=    20 ; resid.=  2.55296897089266E-01
(PID.TID 0000.0001)  cg2d: iter=    21 ; resid.=  2.18800608242735E-01
(PID.TID 0000.0001)  cg2d: iter=    22 ; resid.=  1.84423549851977E-01
(PID.TID 0000.0001)  cg2d: iter=    23 ; resid.=  1.51034750291476E-01
(PID.TID 0000.0001)  cg2d: iter=    24 ; resid.=  1.21559790186413E-01
(PID.TID 0000.0001)  cg2d: iter=    25 ; resid.=  8.76679133978347E-02
(PID.TID 0000.0001)  cg2d: iter=    26 ; resid.=  7.22289748802893E-02
(PID.TID 0000.0001)  cg2d: iter=    27 ; resid.=  6.06817710248460E-02
(PID.TID 0000.0001)  cg2d: iter=    28 ; resid.=  4.97782789244724E-02
(PID.TID 0000.0001)  cg2d: iter=    29 ; resid.=  4.47511264095094E-02
(PID.TID 0000.0001)  cg2d: iter=    30 ; resid.=  4.28744807943351E-02
(PID.TID 0000.0001)  cg2d: iter=    31 ; resid.=  3.45470296222763E-02
(PID.TID 0000.0001)  cg2d: iter=    32 ; resid.=  2.42761247423788E-02
(PID.TID 0000.0001)  cg2d: iter=    33 ; resid.=  1.81232569947947E-02
(PID.TID 0000.0001)  cg2d: iter=    34 ; resid.=  1.52422872685758E-02
(PID.TID 0000.0001)  cg2d: iter=    35 ; resid.=  1.26687371600719E-02
(PID.TID 0000.0001)  cg2d: iter=    36 ; resid.=  9.74003026888944E-03
(PID.TID 0000.0001)  cg2d: iter=    37 ; resid.=  8.03128937734311E-03
(PID.TID 0000.0001)  cg2d: iter=    38 ; resid.=  6.59348620905419E-03
(PID.TID 0000.0001)  cg2d: iter=    39 ; resid.=  5.50906345901202E-03
(PID.TID 0000.0001)  cg2d: iter=    40 ; resid.=  4.51449399295525E-03
(PID.TID 0000.0001)  cg2d: iter=    41 ; resid.=  3.67785796314541E-03
(PID.TID 0000.0001)  cg2d: iter=    42 ; resid.=  2.95480988668768E-03
(PID.TID 0000.0001)  cg2d: iter=    43 ; resid.=  2.32041058686750E-03
(PID.TID 0000.0001)  cg2d: iter=    44 ; resid.=  1.73722912253791E-03
(PID.TID 0000.0001)  cg2d: iter=    45 ; resid.=  1.46184730102624E-03
(PID.TID 0000.0001)  cg2d: iter=    46 ; resid.=  1.28445297295342E-03
(PID.TID 0000.0001)  cg2d: iter=    47 ; resid.=  1.10079756216644E-03
(PID.TID 0000.0001)  cg2d: iter=    48 ; resid.=  9.08009453708866E-04
(PID.TID 0000.0001)  cg2d: iter=    49 ; resid.=  7.88647750524575E-04
(PID.TID 0000.0001)  cg2d: iter=    50 ; resid.=  6.64977942231004E-04
(PID.TID 0000.0001)  cg2d: iter=    51 ; resid.=  5.71052159950178E-04
(PID.TID 0000.0001)  cg2d: iter=    52 ; resid.=  5.04075357096080E-04
(PID.TID 0000.0001)  cg2d: iter=    53 ; resid.=  4.08170506432526E-04
(PID.TID 0000.0001)  cg2d: iter=    54 ; resid.=  3.65031551530928E-04
(PID.TID 0000.0001)  cg2d: iter=    55 ; resid.=  3.28693610209362E-04
(PID.TID 0000.0001)  cg2d: iter=    56 ; resid.=  2.52341341218608E-04
(PID.TID 0000.0001)  cg2d: iter=    57 ; resid.=  1.79256242023597E-04
(PID.TID 0000.0001)  cg2d: iter=    58 ; resid.=  1.38149257211183E-04
(PID.TID 0000.0001)  cg2d: iter=    59 ; resid.=  1.09687156356104E-04
(PID.TID 0000.0001)  cg2d: iter=    60 ; resid.=  8.85123530595636E-05
(PID.TID 0000.0001)  cg2d: iter=    61 ; resid.=  7.62649506396770E-05
(PID.TID 0000.0001)  cg2d: iter=    62 ; resid.=  6.12700826771298E-05
(PID.TID 0000.0001)  cg2d: iter=    63 ; resid.=  4.25438938958063E-05
(PID.TID 0000.0001)  cg2d: iter=    64 ; resid.=  3.41292088672038E-05
(PID.TID 0000.0001)  cg2d: iter=    65 ; resid.=  2.77065203269453E-05
(PID.TID 0000.0001)  cg2d: iter=    66 ; resid.=  2.52081191253963E-05
(PID.TID 0000.0001)  cg2d: iter=    67 ; resid.=  2.22652928636222E-05
(PID.TID 0000.0001)  cg2d: iter=    68 ; resid.=  1.83606946445085E-05
(PID.TID 0000.0001)  cg2d: iter=    69 ; resid.=  1.54280913548665E-05
(PID.TID 0000.0001)  cg2d: iter=    70 ; resid.=  1.17229397026997E-05
(PID.TID 0000.0001)  cg2d: iter=    71 ; resid.=  8.75036305317197E-06
(PID.TID 0000.0001)  cg2d: iter=    72 ; resid.=  7.14244182826805E-06
(PID.TID 0000.0001)  cg2d: iter=    73 ; resid.=  5.84155603181697E-06
(PID.TID 0000.0001)  cg2d: iter=    74 ; resid.=  4.92337205844506E-06
(PID.TID 0000.0001)  cg2d: iter=    75 ; resid.=  4.12159578211975E-06
(PID.TID 0000.0001)  cg2d: iter=    76 ; resid.=  3.55447013433214E-06
(PID.TID 0000.0001)  cg2d: iter=    77 ; resid.=  3.11810112047447E-06
(PID.TID 0000.0001)  cg2d: iter=    78 ; resid.=  2.53689035590684E-06
(PID.TID 0000.0001)  cg2d: iter=    79 ; resid.=  2.09835117250732E-06
(PID.TID 0000.0001)  cg2d: iter=    80 ; resid.=  1.81973402125994E-06
(PID.TID 0000.0001)  cg2d: iter=    81 ; resid.=  1.51481628313255E-06
(PID.TID 0000.0001)  cg2d: iter=    82 ; resid.=  1.25287670200205E-06
(PID.TID 0000.0001)  cg2d: iter=    83 ; resid.=  1.04088494855519E-06
(PID.TID 0000.0001)  cg2d: iter=    84 ; resid.=  8.15471199013293E-07
(PID.TID 0000.0001)  cg2d: iter=    85 ; resid.=  6.48292882764273E-07
(PID.TID 0000.0001)  cg2d: iter=    86 ; resid.=  5.38635565611376E-07
(PID.TID 0000.0001)  cg2d: iter=    87 ; resid.=  4.37967298097218E-07
(PID.TID 0000.0001)  cg2d: iter=    88 ; resid.=  3.90774797453225E-07
(PID.TID 0000.0001)  cg2d: iter=    89 ; resid.=  3.32914986421875E-07
(PID.TID 0000.0001)  cg2d: iter=    90 ; resid.=  2.61220779196644E-07
(PID.TID 0000.0001)  cg2d: iter=    91 ; resid.=  1.92600648049368E-07
(PID.TID 0000.0001)  cg2d: iter=    92 ; resid.=  1.42872644703716E-07
(PID.TID 0000.0001)  cg2d: iter=    93 ; resid.=  1.04126775173760E-07
(PID.TID 0000.0001)  cg2d: iter=    94 ; resid.=  8.22230806794872E-08
(PID.TID 0000.0001)  cg2d: iter=    95 ; resid.=  6.38825005636474E-08
(PID.TID 0000.0001)  cg2d: iter=    96 ; resid.=  4.77970912970311E-08
(PID.TID 0000.0001)  cg2d: iter=    97 ; resid.=  3.54458321267066E-08
(PID.TID 0000.0001)  cg2d: iter=    98 ; resid.=  2.68564539323490E-08
(PID.TID 0000.0001)  cg2d: iter=    99 ; resid.=  2.03976338379758E-08
(PID.TID 0000.0001)  cg2d: iter=   100 ; resid.=  1.68197780233859E-08
(PID.TID 0000.0001)  cg2d: iter=   101 ; resid.=  1.15055785892127E-08
(PID.TID 0000.0001)  cg2d: iter=   102 ; resid.=  8.24474330333665E-09
(PID.TID 0000.0001)  cg2d: iter=   103 ; resid.=  6.41578767361227E-09
(PID.TID 0000.0001)  cg2d: iter=   104 ; resid.=  5.21711797198763E-09
(PID.TID 0000.0001)  cg2d: iter=   105 ; resid.=  3.81464179686075E-09
(PID.TID 0000.0001)  cg2d: iter=   106 ; resid.=  2.98330940663385E-09
(PID.TID 0000.0001)  cg2d: iter=   107 ; resid.=  2.47868173969078E-09
(PID.TID 0000.0001)  cg2d: iter=   108 ; resid.=  2.12091924752164E-09
(PID.TID 0000.0001)  cg2d: iter=   109 ; resid.=  1.68626533002393E-09
(PID.TID 0000.0001)  cg2d: iter=   110 ; resid.=  1.41141041151692E-09
(PID.TID 0000.0001)  cg2d: iter=   111 ; resid.=  1.16293412936829E-09
(PID.TID 0000.0001)  cg2d: iter=   112 ; resid.=  8.87704443334634E-10
(PID.TID 0000.0001)  cg2d: iter=   113 ; resid.=  6.60413953864172E-10
(PID.TID 0000.0001)  cg2d: iter=   114 ; resid.=  5.56775953654108E-10
(PID.TID 0000.0001)  cg2d: iter=   115 ; resid.=  4.73860848299750E-10
(PID.TID 0000.0001)  cg2d: iter=   116 ; resid.=  4.01529292603028E-10
(PID.TID 0000.0001)  cg2d: iter=   117 ; resid.=  3.27882847285285E-10
(PID.TID 0000.0001)  cg2d: iter=   118 ; resid.=  2.91314077899009E-10
(PID.TID 0000.0001)  cg2d: iter=   119 ; resid.=  2.32967189368189E-10
(PID.TID 0000.0001)  cg2d: iter=   120 ; resid.=  1.87637529994537E-10
(PID.TID 0000.0001)  cg2d: iter=   121 ; resid.=  1.56070767693693E-10
(PID.TID 0000.0001)  cg2d: iter=   122 ; resid.=  1.22752167377738E-10
(PID.TID 0000.0001)  cg2d: iter=   123 ; resid.=  8.39323512559496E-11
(PID.TID 0000.0001)  cg2d: iter=   124 ; resid.=  6.08984739663631E-11
(PID.TID 0000.0001)  cg2d: iter=   125 ; resid.=  4.42720516790696E-11
(PID.TID 0000.0001)  cg2d: iter=   126 ; resid.=  3.46017842947018E-11
(PID.TID 0000.0001)  cg2d: iter=   127 ; resid.=  2.50393776720239E-11
(PID.TID 0000.0001)  cg2d: iter=   128 ; resid.=  1.82115841474990E-11
(PID.TID 0000.0001)  cg2d: iter=   129 ; resid.=  1.28849502364026E-11
(PID.TID 0000.0001)  cg2d: iter=   130 ; resid.=  9.22611929617247E-12
(PID.TID 0000.0001)  cg2d: iter=   131 ; resid.=  7.18357251831691E-12
(PID.TID 0000.0001)  cg2d: iter=   132 ; resid.=  5.37527619088584E-12
(PID.TID 0000.0001)  cg2d: iter=   133 ; resid.=  4.22228806625007E-12
(PID.TID 0000.0001)  cg2d: iter=   134 ; resid.=  3.39774392758572E-12
(PID.TID 0000.0001)  cg2d: iter=   135 ; resid.=  2.66681211634067E-12
(PID.TID 0000.0001)  cg2d: iter=   136 ; resid.=  2.04628269827534E-12
(PID.TID 0000.0001)  cg2d: iter=   137 ; resid.=  1.54553050886276E-12
(PID.TID 0000.0001)  cg2d: iter=   138 ; resid.=  1.09069212566976E-12
(PID.TID 0000.0001)  cg2d: iter=   139 ; resid.=  8.22580798921918E-13
(PID.TID 0000.0001)  cg2d: iter=   140 ; resid.=  6.15500854330858E-13
(PID.TID 0000.0001)  cg2d: iter=   141 ; resid.=  4.64512525660350E-13
(PID.TID 0000.0001)  cg2d: iter=   142 ; resid.=  3.49643626427472E-13
(PID.TID 0000.0001)  cg2d: iter=   143 ; resid.=  2.94647252544625E-13
(PID.TID 0000.0001)  cg2d: iter=   144 ; resid.=  2.09204158633730E-13
(PID.TID 0000.0001)  cg2d: iter=   145 ; resid.=  1.40059395229662E-13
(PID.TID 0000.0001)  cg2d: iter=   146 ; resid.=  9.27437953151195E-14
DEBUG_STATS_RL:    cg2d_x (SOLVE_FOR_PRESSURE)  min= -5.76173762712000E+01
DEBUG_STATS_RL:    cg2d_x (SOLVE_FOR_PRESSURE)  max=  6.13573056653760E+01
DEBUG_STATS_RL:    cg2d_x (SOLVE_FOR_PRESSURE) mean= -1.90045718063992E+00
DEBUG_STATS_RL:    cg2d_x (SOLVE_FOR_PRESSURE) S.D.=  1.87869961015248E+01
(PID.TID 0000.0001)      cg2d_init_res =   7.46960274867008E+00
(PID.TID 0000.0001)      cg2d_iters(min,last) =      -1     146
(PID.TID 0000.0001)      cg2d_last_res =   9.27437953151195E-14
(PID.TID 0000.0001) // =======================================================
(PID.TID 0000.0001) // Begin MONITOR dynamic field statistics
(PID.TID 0000.0001) // =======================================================
(PID.TID 0000.0001) %MON time_tsnumber                =                     1
(PID.TID 0000.0001) %MON time_secondsf                =   8.6400000000000E+04
(PID.TID 0000.0001) %MON dynstat_eta_max              =   6.2545673461137E+00
(PID.TID 0000.0001) %MON dynstat_eta_min              =  -5.8733309144960E+00
(PID.TID 0000.0001) %MON dynstat_eta_mean             =  -6.4811745051241E-05
(PID.TID 0000.0001) %MON dynstat_eta_sd               =   2.2443250331727E+00
(PID.TID 0000.0001) %MON dynstat_eta_del2             =   7.0430937176851E-03
(PID.TID 0000.0001) %MON dynstat_uvel_max             =   1.7652706799262E-01
(PID.TID 0000.0001) %MON dynstat_uvel_min             =  -6.4135345901274E-02
(PID.TID 0000.0001) %MON dynstat_uvel_mean            =   1.8116569492673E-02
(PID.TID 0000.0001) %MON dynstat_uvel_sd              =   8.2666261309799E-03
(PID.TID 0000.0001) %MON dynstat_uvel_del2            =   6.5013980891199E-05
(PID.TID 0000.0001) %MON dynstat_vvel_max             =   1.6060205539954E-01
(PID.TID 0000.0001) %MON dynstat_vvel_min             =  -3.3827575223877E-02
(PID.TID 0000.0001) %MON dynstat_vvel_mean            =   1.6669381032690E-02
(PID.TID 0000.0001) %MON dynstat_vvel_sd              =   8.1708692388223E-03
(PID.TID 0000.0001) %MON dynstat_vvel_del2            =   6.2667723236771E-05
(PID.TID 0000.0001) %MON dynstat_wvel_max             =   2.3324227327261E-04
(PID.TID 0000.0001) %MON dynstat_wvel_min             =  -3.3444069100467E-04
(PID.TID 0000.0001) %MON dynstat_wvel_mean            =   4.7984042671810E-23
(PID.TID 0000.0001) %MON dynstat_wvel_sd              =   3.0660602728535E-05
(PID.TID 0000.0001) %MON dynstat_wvel_del2            =   2.9938737179699E-07
(PID.TID 0000.0001) %MON dynstat_theta_max            =   2.9777689967513E+01
(PID.TID 0000.0001) %MON dynstat_theta_min            =  -1.8787065256685E+00
(PID.TID 0000.0001) %MON dynstat_theta_mean           =   3.6492093924864E+00
(PID.TID 0000.0001) %MON dynstat_theta_sd             =   4.4173675338392E+00
(PID.TID 0000.0001) %MON dynstat_theta_del2           =   5.6240211562419E-03
(PID.TID 0000.0001) %MON dynstat_salt_max             =   3.7496381015509E+01
(PID.TID 0000.0001) %MON dynstat_salt_min             =   2.9783830847555E+01
(PID.TID 0000.0001) %MON dynstat_salt_mean            =   3.4747995887841E+01
(PID.TID 0000.0001) %MON dynstat_salt_sd              =   2.9614210650419E-01
(PID.TID 0000.0001) %MON dynstat_salt_del2            =   1.0151923208225E-03
(PID.TID 0000.0001) %MON dynstat_sst_max              =   2.9777689967513E+01
(PID.TID 0000.0001) %MON dynstat_sst_min              =  -1.8787065256685E+00
(PID.TID 0000.0001) %MON dynstat_sst_mean             =   1.8517961423847E+01
(PID.TID 0000.0001) %MON dynstat_sst_sd               =   9.1769753761299E+00
(PID.TID 0000.0001) %MON dynstat_sst_del2             =   2.7150495780104E-02
(PID.TID 0000.0001) %MON dynstat_sss_max              =   3.7496381015509E+01
(PID.TID 0000.0001) %MON dynstat_sss_min              =   2.9783830847555E+01
(PID.TID 0000.0001) %MON dynstat_sss_mean             =   3.4879639080052E+01
(PID.TID 0000.0001) %MON dynstat_sss_sd               =   9.6347376880248E-01
(PID.TID 0000.0001) %MON dynstat_sss_del2             =   8.0323330797621E-03
(PID.TID 0000.0001) %MON forcing_qnet_max             =   4.2589080810547E+02
(PID.TID 0000.0001) %MON forcing_qnet_min             =  -1.8702698516846E+02
(PID.TID 0000.0001) %MON forcing_qnet_mean            =  -1.6700205338390E+01
(PID.TID 0000.0001) %MON forcing_qnet_sd              =   1.1285666794876E+02
(PID.TID 0000.0001) %MON forcing_qnet_del2            =   9.9079877721394E-01
(PID.TID 0000.0001) %MON forcing_qsw_max              =   0.0000000000000E+00
(PID.TID 0000.0001) %MON forcing_qsw_min              =   0.0000000000000E+00
(PID.TID 0000.0001) %MON forcing_qsw_mean             =   0.0000000000000E+00
(PID.TID 0000.0001) %MON forcing_qsw_sd               =   0.0000000000000E+00
(PID.TID 0000.0001) %MON forcing_qsw_del2             =   0.0000000000000E+00
(PID.TID 0000.0001) %MON forcing_empmr_max            =   8.3243762105667E-05
(PID.TID 0000.0001) %MON forcing_empmr_min            =  -7.4169506092403E-05
(PID.TID 0000.0001) %MON forcing_empmr_mean           =   7.7639069592805E-07
(PID.TID 0000.0001) %MON forcing_empmr_sd             =   2.7794934142646E-05
(PID.TID 0000.0001) %MON forcing_empmr_del2           =   3.6436962197033E-07
(PID.TID 0000.0001) %MON forcing_fu_max               =   2.7488999068737E-01
(PID.TID 0000.0001) %MON forcing_fu_min               =  -1.6014087945223E-01
(PID.TID 0000.0001) %MON forcing_fu_mean              =   1.6117127468124E-02
(PID.TID 0000.0001) %MON forcing_fu_sd                =   9.0153154829689E-02
(PID.TID 0000.0001) %MON forcing_fu_del2              =   6.5365667764057E-04
(PID.TID 0000.0001) %MON forcing_fv_max               =   2.0835298299789E-01
(PID.TID 0000.0001) %MON forcing_fv_min               =  -1.8690676242113E-01
(PID.TID 0000.0001) %MON forcing_fv_mean              =  -6.3653356424171E-03
(PID.TID 0000.0001) %MON forcing_fv_sd                =   4.5157892194461E-02
(PID.TID 0000.0001) %MON forcing_fv_del2              =   4.4595114894327E-04
(PID.TID 0000.0001) %MON trAdv_CFL_u_max              =   2.8039321159780E-02
(PID.TID 0000.0001) %MON trAdv_CFL_v_max              =   6.5356787086148E-03
(PID.TID 0000.0001) %MON trAdv_CFL_w_max              =   0.0000000000000E+00
(PID.TID 0000.0001) %MON advcfl_uvel_max              =   4.9194273386909E-02
(PID.TID 0000.0001) %MON advcfl_vvel_max              =   3.1202403616833E-02
(PID.TID 0000.0001) %MON advcfl_wvel_max              =   2.5005495880535E-01
(PID.TID 0000.0001) %MON advcfl_W_hf_max              =   1.5493254584810E-01
(PID.TID 0000.0001) %MON pe_b_mean                    =   6.4454420449894E-03
(PID.TID 0000.0001) %MON ke_max                       =   1.4859524615554E-02
(PID.TID 0000.0001) %MON ke_mean                      =   3.3487752269957E-04
(PID.TID 0000.0001) %MON ke_vol                       =   1.3226782436723E+18
(PID.TID 0000.0001) %MON vort_r_min                   =  -6.2222330025062E-07
(PID.TID 0000.0001) %MON vort_r_max                   =   6.8162234562792E-07
(PID.TID 0000.0001) %MON vort_a_mean                  =  -2.5274808246582E-05
(PID.TID 0000.0001) %MON vort_a_sd                    =   7.3608225184496E-05
(PID.TID 0000.0001) %MON vort_p_mean                  =  -3.1845656869356E-05
(PID.TID 0000.0001) %MON vort_p_sd                    =   1.3163201160846E-04
(PID.TID 0000.0001) %MON surfExpan_theta_mean         =   7.1534503194614E-05
(PID.TID 0000.0001) %MON surfExpan_salt_mean          =   2.1597821655822E-07
(PID.TID 0000.0001) // =======================================================
(PID.TID 0000.0001) // End MONITOR dynamic field statistics
(PID.TID 0000.0001) // =======================================================
 EXTERNAL_FIELDS_LOAD,         1 : iP,iLd,i0,i1=   12    1   12    1 ; Wght=  0.4666666667  0.5333333333
 EXTERNAL_FIELDS_LOAD: (fu0,1),fu,fv= -4.5368E-02 -3.5633E-02 -4.0176E-02 -6.3320E-02
 EXTERNAL_FIELDS_LOAD: SST,SSS,Q,E-P=  1.1350E-01  3.4387E+01  2.6514E+02  1.0896E-05
DEBUG_STATS_RL:          Uvel (THERMODYNAMICS)  min= -6.41353459012743E-02
DEBUG_STATS_RL:          Uvel (THERMODYNAMICS)  max=  1.76527067992617E-01
DEBUG_STATS_RL:          Uvel (THERMODYNAMICS) mean=  1.93085304504865E-02
DEBUG_STATS_RL:          Uvel (THERMODYNAMICS) S.D.=  9.99362702593456E-03
DEBUG_STATS_RL:          Vvel (THERMODYNAMICS)  min= -3.38275752238773E-02
DEBUG_STATS_RL:          Vvel (THERMODYNAMICS)  max=  1.60602055399537E-01
DEBUG_STATS_RL:          Vvel (THERMODYNAMICS) mean=  1.63474624832502E-02
DEBUG_STATS_RL:          Vvel (THERMODYNAMICS) S.D.=  9.63916750692669E-03
DEBUG_STATS_RL:          Wvel (THERMODYNAMICS)  min= -3.34440691004668E-04
DEBUG_STATS_RL:          Wvel (THERMODYNAMICS)  max=  2.33242273272611E-04
DEBUG_STATS_RL:          Wvel (THERMODYNAMICS) mean= -2.73999170338131E-06
DEBUG_STATS_RL:          Wvel (THERMODYNAMICS) S.D.=  3.16636921152619E-05
DEBUG_STATS_RL:         Theta (THERMODYNAMICS)  min= -1.96346743074185E+00
DEBUG_STATS_RL:         Theta (THERMODYNAMICS)  max=  2.96502652922521E+01
DEBUG_STATS_RL:         Theta (THERMODYNAMICS) mean=  3.22325997340123E+00
DEBUG_STATS_RL:         Theta (THERMODYNAMICS) S.D.=  5.84108865129811E+00
DEBUG_STATS_RL:          Salt (THERMODYNAMICS)  min=  3.00000000000000E-02
DEBUG_STATS_RL:          Salt (THERMODYNAMICS)  max=  3.74885838326154E+01
DEBUG_STATS_RL:          Salt (THERMODYNAMICS) mean=  1.88749810043417E+01
DEBUG_STATS_RL:          Salt (THERMODYNAMICS) S.D.=  1.73004494775213E+01
DEBUG_STATS_RL:         GtNm1 (THERMODYNAMICS)  min= -9.90255340700242E-06
DEBUG_STATS_RL:         GtNm1 (THERMODYNAMICS)  max=  5.44245997841332E-06
DEBUG_STATS_RL:         GtNm1 (THERMODYNAMICS) mean= -2.61733242981675E-08
DEBUG_STATS_RL:         GtNm1 (THERMODYNAMICS) S.D.=  5.29336816729098E-07
DEBUG_STATS_RL:         GsNm1 (THERMODYNAMICS)  min= -4.25006768771263E-07
DEBUG_STATS_RL:         GsNm1 (THERMODYNAMICS)  max=  1.45918679463047E-06
DEBUG_STATS_RL:         GsNm1 (THERMODYNAMICS) mean= -2.27808021397109E-09
DEBUG_STATS_RL:         GsNm1 (THERMODYNAMICS) S.D.=  5.54228097409526E-08
DEBUG_STATS_RL:                EtaN (DYNAMICS)  min= -5.87333091449596E+00
DEBUG_STATS_RL:                EtaN (DYNAMICS)  max=  6.25456734611367E+00
DEBUG_STATS_RL:                EtaN (DYNAMICS) mean= -3.01259386234953E-01
DEBUG_STATS_RL:                EtaN (DYNAMICS) S.D.=  2.38137156173410E+00
DEBUG_STATS_RL:                Uvel (DYNAMICS)  min= -6.41353459012743E-02
DEBUG_STATS_RL:                Uvel (DYNAMICS)  max=  1.76527067992617E-01
DEBUG_STATS_RL:                Uvel (DYNAMICS) mean=  1.93085304504865E-02
DEBUG_STATS_RL:                Uvel (DYNAMICS) S.D.=  9.99362702593456E-03
DEBUG_STATS_RL:                Vvel (DYNAMICS)  min= -3.38275752238773E-02
DEBUG_STATS_RL:                Vvel (DYNAMICS)  max=  1.60602055399537E-01
DEBUG_STATS_RL:                Vvel (DYNAMICS) mean=  1.63474624832502E-02
DEBUG_STATS_RL:                Vvel (DYNAMICS) S.D.=  9.63916750692669E-03
DEBUG_STATS_RL:                Wvel (DYNAMICS)  min= -3.34440691004668E-04
DEBUG_STATS_RL:                Wvel (DYNAMICS)  max=  2.33242273272611E-04
DEBUG_STATS_RL:                Wvel (DYNAMICS) mean= -2.73999170338131E-06
DEBUG_STATS_RL:                Wvel (DYNAMICS) S.D.=  3.16636921152619E-05
DEBUG_STATS_RL:               Theta (DYNAMICS)  min= -1.96346743074185E+00
DEBUG_STATS_RL:               Theta (DYNAMICS)  max=  2.96502652922521E+01
DEBUG_STATS_RL:               Theta (DYNAMICS) mean=  3.22325997340123E+00
DEBUG_STATS_RL:               Theta (DYNAMICS) S.D.=  5.84108865129811E+00
DEBUG_STATS_RL:                Salt (DYNAMICS)  min=  3.00000000000000E-02
DEBUG_STATS_RL:                Salt (DYNAMICS)  max=  3.74885838326154E+01
DEBUG_STATS_RL:                Salt (DYNAMICS) mean=  1.88749810043417E+01
DEBUG_STATS_RL:                Salt (DYNAMICS) S.D.=  1.73004494775213E+01
DEBUG_STATS_RL:                  Gu (DYNAMICS)  min= -5.62865778245080E-02
DEBUG_STATS_RL:                  Gu (DYNAMICS)  max=  1.68579848900136E-01
DEBUG_STATS_RL:                  Gu (DYNAMICS) mean=  1.90947785443245E-02
DEBUG_STATS_RL:                  Gu (DYNAMICS) S.D.=  1.12629086291093E-02
DEBUG_STATS_RL:                  Gv (DYNAMICS)  min= -2.90615378443023E-02
DEBUG_STATS_RL:                  Gv (DYNAMICS)  max=  1.59925593538605E-01
DEBUG_STATS_RL:                  Gv (DYNAMICS) mean=  1.68670971519842E-02
DEBUG_STATS_RL:                  Gv (DYNAMICS) S.D.=  1.08522945079752E-02
DEBUG_STATS_RL:               GuNm1 (DYNAMICS)  min= -1.03318092879637E-05
DEBUG_STATS_RL:               GuNm1 (DYNAMICS)  max=  1.03929020192248E-05
DEBUG_STATS_RL:               GuNm1 (DYNAMICS) mean= -7.00836444170123E-08
DEBUG_STATS_RL:               GuNm1 (DYNAMICS) S.D.=  1.42117535992317E-06
DEBUG_STATS_RL:               GvNm1 (DYNAMICS)  min= -1.24985992382298E-05
DEBUG_STATS_RL:               GvNm1 (DYNAMICS)  max=  1.75215119165241E-05
DEBUG_STATS_RL:               GvNm1 (DYNAMICS) mean=  7.45103568189180E-07
DEBUG_STATS_RL:               GvNm1 (DYNAMICS) S.D.=  2.90495171193028E-06
DEBUG_STATS_RL:               GtNm1 (DYNAMICS)  min= -9.90255340700242E-06
DEBUG_STATS_RL:               GtNm1 (DYNAMICS)  max=  5.44245997841332E-06
DEBUG_STATS_RL:               GtNm1 (DYNAMICS) mean= -2.61733242981675E-08
DEBUG_STATS_RL:               GtNm1 (DYNAMICS) S.D.=  5.29336816729098E-07
DEBUG_STATS_RL:               GsNm1 (DYNAMICS)  min= -4.25006768771263E-07
DEBUG_STATS_RL:               GsNm1 (DYNAMICS)  max=  1.45918679463047E-06
DEBUG_STATS_RL:               GsNm1 (DYNAMICS) mean= -2.27808021397109E-09
DEBUG_STATS_RL:               GsNm1 (DYNAMICS) S.D.=  5.54228097409526E-08
DEBUG_STATS_RL:    cg2d_b (SOLVE_FOR_PRESSURE)  min= -4.41594202270369E+04
DEBUG_STATS_RL:    cg2d_b (SOLVE_FOR_PRESSURE)  max=  2.47139454726388E+04
DEBUG_STATS_RL:    cg2d_b (SOLVE_FOR_PRESSURE) mean=  1.25016343075757E-01
DEBUG_STATS_RL:    cg2d_b (SOLVE_FOR_PRESSURE) S.D.=  6.72692308282401E+03
 cg2d: Sum(rhs),rhsMax =   6.55381870383853E-03  2.90050895407891E+00
(PID.TID 0000.0001)  cg2d: iter=     1 ; resid.=  5.30867458302872E+00
(PID.TID 0000.0001)  cg2d: iter=     2 ; resid.=  3.50569890913739E+00
(PID.TID 0000.0001)  cg2d: iter=     3 ; resid.=  2.53127760859585E+00
(PID.TID 0000.0001)  cg2d: iter=     4 ; resid.=  2.01738252110267E+00
(PID.TID 0000.0001)  cg2d: iter=     5 ; resid.=  1.61405866900355E+00
(PID.TID 0000.0001)  cg2d: iter=     6 ; resid.=  1.29285041773195E+00
(PID.TID 0000.0001)  cg2d: iter=     7 ; resid.=  1.08750290512343E+00
(PID.TID 0000.0001)  cg2d: iter=     8 ; resid.=  9.21072260862921E-01
(PID.TID 0000.0001)  cg2d: iter=     9 ; resid.=  7.93104583846685E-01
(PID.TID 0000.0001)  cg2d: iter=    10 ; resid.=  6.21312779407330E-01
(PID.TID 0000.0001)  cg2d: iter=    11 ; resid.=  5.45624037361103E-01
(PID.TID 0000.0001)  cg2d: iter=    12 ; resid.=  4.93744906745822E-01
(PID.TID 0000.0001)  cg2d: iter=    13 ; resid.=  4.25118388219724E-01
(PID.TID 0000.0001)  cg2d: iter=    14 ; resid.=  3.49032565208395E-01
(PID.TID 0000.0001)  cg2d: iter=    15 ; resid.=  2.99897601507040E-01
(PID.TID 0000.0001)  cg2d: iter=    16 ; resid.=  2.70675733487622E-01
(PID.TID 0000.0001)  cg2d: iter=    17 ; resid.=  2.45105616325583E-01
(PID.TID 0000.0001)  cg2d: iter=    18 ; resid.=  1.98026508682150E-01
(PID.TID 0000.0001)  cg2d: iter=    19 ; resid.=  1.66509616356653E-01
(PID.TID 0000.0001)  cg2d: iter=    20 ; resid.=  1.35760241250643E-01
(PID.TID 0000.0001)  cg2d: iter=    21 ; resid.=  1.07121856463141E-01
(PID.TID 0000.0001)  cg2d: iter=    22 ; resid.=  8.92813942370388E-02
(PID.TID 0000.0001)  cg2d: iter=    23 ; resid.=  7.50544225346054E-02
(PID.TID 0000.0001)  cg2d: iter=    24 ; resid.=  7.00605354884050E-02
(PID.TID 0000.0001)  cg2d: iter=    25 ; resid.=  5.66533805318819E-02
(PID.TID 0000.0001)  cg2d: iter=    26 ; resid.=  4.53141523246636E-02
(PID.TID 0000.0001)  cg2d: iter=    27 ; resid.=  3.84008405429327E-02
(PID.TID 0000.0001)  cg2d: iter=    28 ; resid.=  3.10146689073332E-02
(PID.TID 0000.0001)  cg2d: iter=    29 ; resid.=  2.49410449934594E-02
(PID.TID 0000.0001)  cg2d: iter=    30 ; resid.=  2.31962380109455E-02
(PID.TID 0000.0001)  cg2d: iter=    31 ; resid.=  2.09840546897788E-02
(PID.TID 0000.0001)  cg2d: iter=    32 ; resid.=  1.76223732484653E-02
(PID.TID 0000.0001)  cg2d: iter=    33 ; resid.=  1.31759592315799E-02
(PID.TID 0000.0001)  cg2d: iter=    34 ; resid.=  1.09258893499587E-02
(PID.TID 0000.0001)  cg2d: iter=    35 ; resid.=  9.20958156342009E-03
(PID.TID 0000.0001)  cg2d: iter=    36 ; resid.=  7.58742752587167E-03
(PID.TID 0000.0001)  cg2d: iter=    37 ; resid.=  6.25212479286236E-03
(PID.TID 0000.0001)  cg2d: iter=    38 ; resid.=  4.99590723258394E-03
(PID.TID 0000.0001)  cg2d: iter=    39 ; resid.=  4.11692594755198E-03
(PID.TID 0000.0001)  cg2d: iter=    40 ; resid.=  3.19522897146383E-03
(PID.TID 0000.0001)  cg2d: iter=    41 ; resid.=  2.49835371608272E-03
(PID.TID 0000.0001)  cg2d: iter=    42 ; resid.=  2.09084534225938E-03
(PID.TID 0000.0001)  cg2d: iter=    43 ; resid.=  1.85150339048176E-03
(PID.TID 0000.0001)  cg2d: iter=    44 ; resid.=  1.59845984328595E-03
(PID.TID 0000.0001)  cg2d: iter=    45 ; resid.=  1.35611635068754E-03
(PID.TID 0000.0001)  cg2d: iter=    46 ; resid.=  1.17793579396519E-03
(PID.TID 0000.0001)  cg2d: iter=    47 ; resid.=  1.05067640324967E-03
(PID.TID 0000.0001)  cg2d: iter=    48 ; resid.=  8.76976503360014E-04
(PID.TID 0000.0001)  cg2d: iter=    49 ; resid.=  7.25537870415421E-04
(PID.TID 0000.0001)  cg2d: iter=    50 ; resid.=  5.82178587416199E-04
(PID.TID 0000.0001)  cg2d: iter=    51 ; resid.=  4.66646200653831E-04
(PID.TID 0000.0001)  cg2d: iter=    52 ; resid.=  4.10584967702741E-04
(PID.TID 0000.0001)  cg2d: iter=    53 ; resid.=  3.25451127349670E-04
(PID.TID 0000.0001)  cg2d: iter=    54 ; resid.=  2.63795288561362E-04
(PID.TID 0000.0001)  cg2d: iter=    55 ; resid.=  2.33345956734558E-04
(PID.TID 0000.0001)  cg2d: iter=    56 ; resid.=  2.04443370156501E-04
(PID.TID 0000.0001)  cg2d: iter=    57 ; resid.=  1.55873320114753E-04
(PID.TID 0000.0001)  cg2d: iter=    58 ; resid.=  1.16845324276310E-04
(PID.TID 0000.0001)  cg2d: iter=    59 ; resid.=  8.73659096474101E-05
(PID.TID 0000.0001)  cg2d: iter=    60 ; resid.=  6.83213313622916E-05
(PID.TID 0000.0001)  cg2d: iter=    61 ; resid.=  5.89571430118660E-05
(PID.TID 0000.0001)  cg2d: iter=    62 ; resid.=  4.96216900338017E-05
(PID.TID 0000.0001)  cg2d: iter=    63 ; resid.=  3.59860952745775E-05
(PID.TID 0000.0001)  cg2d: iter=    64 ; resid.=  2.71289384606505E-05
(PID.TID 0000.0001)  cg2d: iter=    65 ; resid.=  2.03171832214325E-05
(PID.TID 0000.0001)  cg2d: iter=    66 ; resid.=  1.64250358703222E-05
(PID.TID 0000.0001)  cg2d: iter=    67 ; resid.=  1.44111657152804E-05
(PID.TID 0000.0001)  cg2d: iter=    68 ; resid.=  1.22199166982490E-05
(PID.TID 0000.0001)  cg2d: iter=    69 ; resid.=  1.11600872371345E-05
(PID.TID 0000.0001)  cg2d: iter=    70 ; resid.=  1.03255555363197E-05
(PID.TID 0000.0001)  cg2d: iter=    71 ; resid.=  8.57956251402667E-06
(PID.TID 0000.0001)  cg2d: iter=    72 ; resid.=  7.52076604620594E-06
(PID.TID 0000.0001)  cg2d: iter=    73 ; resid.=  6.50806262605296E-06
(PID.TID 0000.0001)  cg2d: iter=    74 ; resid.=  5.25984079531809E-06
(PID.TID 0000.0001)  cg2d: iter=    75 ; resid.=  4.10837974553250E-06
(PID.TID 0000.0001)  cg2d: iter=    76 ; resid.=  3.12573050621402E-06
(PID.TID 0000.0001)  cg2d: iter=    77 ; resid.=  2.68393741316137E-06
(PID.TID 0000.0001)  cg2d: iter=    78 ; resid.=  2.19350847692196E-06
(PID.TID 0000.0001)  cg2d: iter=    79 ; resid.=  1.61908085887927E-06
(PID.TID 0000.0001)  cg2d: iter=    80 ; resid.=  1.18473623933026E-06
(PID.TID 0000.0001)  cg2d: iter=    81 ; resid.=  9.27970417519123E-07
(PID.TID 0000.0001)  cg2d: iter=    82 ; resid.=  7.58073996787078E-07
(PID.TID 0000.0001)  cg2d: iter=    83 ; resid.=  6.58408112233067E-07
(PID.TID 0000.0001)  cg2d: iter=    84 ; resid.=  5.47078350466061E-07
(PID.TID 0000.0001)  cg2d: iter=    85 ; resid.=  4.36082382933796E-07
(PID.TID 0000.0001)  cg2d: iter=    86 ; resid.=  3.47554705285167E-07
(PID.TID 0000.0001)  cg2d: iter=    87 ; resid.=  2.49591712057902E-07
(PID.TID 0000.0001)  cg2d: iter=    88 ; resid.=  1.88105682324615E-07
(PID.TID 0000.0001)  cg2d: iter=    89 ; resid.=  1.60784205187622E-07
(PID.TID 0000.0001)  cg2d: iter=    90 ; resid.=  1.38026402920449E-07
(PID.TID 0000.0001)  cg2d: iter=    91 ; resid.=  1.09458944569555E-07
(PID.TID 0000.0001)  cg2d: iter=    92 ; resid.=  8.70129750483233E-08
(PID.TID 0000.0001)  cg2d: iter=    93 ; resid.=  6.87650249858792E-08
(PID.TID 0000.0001)  cg2d: iter=    94 ; resid.=  5.89807306444213E-08
(PID.TID 0000.0001)  cg2d: iter=    95 ; resid.=  4.99869714388327E-08
(PID.TID 0000.0001)  cg2d: iter=    96 ; resid.=  3.95654762019946E-08
(PID.TID 0000.0001)  cg2d: iter=    97 ; resid.=  2.93370580650682E-08
(PID.TID 0000.0001)  cg2d: iter=    98 ; resid.=  2.21364870881736E-08
(PID.TID 0000.0001)  cg2d: iter=    99 ; resid.=  1.64859136245779E-08
(PID.TID 0000.0001)  cg2d: iter=   100 ; resid.=  1.39800252144424E-08
(PID.TID 0000.0001)  cg2d: iter=   101 ; resid.=  1.08353213648902E-08
(PID.TID 0000.0001)  cg2d: iter=   102 ; resid.=  8.39125730928663E-09
(PID.TID 0000.0001)  cg2d: iter=   103 ; resid.=  6.47228828702984E-09
(PID.TID 0000.0001)  cg2d: iter=   104 ; resid.=  5.10204330767549E-09
(PID.TID 0000.0001)  cg2d: iter=   105 ; resid.=  4.12511475144137E-09
(PID.TID 0000.0001)  cg2d: iter=   106 ; resid.=  3.36390713573512E-09
(PID.TID 0000.0001)  cg2d: iter=   107 ; resid.=  2.78994932500522E-09
(PID.TID 0000.0001)  cg2d: iter=   108 ; resid.=  2.48107118377486E-09
(PID.TID 0000.0001)  cg2d: iter=   109 ; resid.=  2.16621260086448E-09
(PID.TID 0000.0001)  cg2d: iter=   110 ; resid.=  1.81424489401363E-09
(PID.TID 0000.0001)  cg2d: iter=   111 ; resid.=  1.54002164136451E-09
(PID.TID 0000.0001)  cg2d: iter=   112 ; resid.=  1.19212748071774E-09
(PID.TID 0000.0001)  cg2d: iter=   113 ; resid.=  8.84876578947033E-10
(PID.TID 0000.0001)  cg2d: iter=   114 ; resid.=  6.32337808328970E-10
(PID.TID 0000.0001)  cg2d: iter=   115 ; resid.=  4.66367946606808E-10
(PID.TID 0000.0001)  cg2d: iter=   116 ; resid.=  3.65492333789950E-10
(PID.TID 0000.0001)  cg2d: iter=   117 ; resid.=  2.67269425498819E-10
(PID.TID 0000.0001)  cg2d: iter=   118 ; resid.=  2.04285591582609E-10
(PID.TID 0000.0001)  cg2d: iter=   119 ; resid.=  1.57162620209680E-10
(PID.TID 0000.0001)  cg2d: iter=   120 ; resid.=  1.18288555054030E-10
(PID.TID 0000.0001)  cg2d: iter=   121 ; resid.=  9.27561949460930E-11
(PID.TID 0000.0001)  cg2d: iter=   122 ; resid.=  7.50487844192669E-11
(PID.TID 0000.0001)  cg2d: iter=   123 ; resid.=  5.40579744480896E-11
(PID.TID 0000.0001)  cg2d: iter=   124 ; resid.=  4.28301158443355E-11
(PID.TID 0000.0001)  cg2d: iter=   125 ; resid.=  3.41473713290760E-11
(PID.TID 0000.0001)  cg2d: iter=   126 ; resid.=  2.54427003614294E-11
(PID.TID 0000.0001)  cg2d: iter=   127 ; resid.=  1.72451365727148E-11
(PID.TID 0000.0001)  cg2d: iter=   128 ; resid.=  1.23336229526014E-11
(PID.TID 0000.0001)  cg2d: iter=   129 ; resid.=  9.05060048315589E-12
(PID.TID 0000.0001)  cg2d: iter=   130 ; resid.=  6.52937747226898E-12
(PID.TID 0000.0001)  cg2d: iter=   131 ; resid.=  4.80090294960700E-12
(PID.TID 0000.0001)  cg2d: iter=   132 ; resid.=  3.21142064602231E-12
(PID.TID 0000.0001)  cg2d: iter=   133 ; resid.=  2.19961196443968E-12
(PID.TID 0000.0001)  cg2d: iter=   134 ; resid.=  1.55687937204986E-12
(PID.TID 0000.0001)  cg2d: iter=   135 ; resid.=  1.18936845415485E-12
(PID.TID 0000.0001)  cg2d: iter=   136 ; resid.=  9.00965953611228E-13
(PID.TID 0000.0001)  cg2d: iter=   137 ; resid.=  7.15371999881973E-13
(PID.TID 0000.0001)  cg2d: iter=   138 ; resid.=  5.87195514204125E-13
(PID.TID 0000.0001)  cg2d: iter=   139 ; resid.=  4.68494634963033E-13
(PID.TID 0000.0001)  cg2d: iter=   140 ; resid.=  3.39447970289100E-13
(PID.TID 0000.0001)  cg2d: iter=   141 ; resid.=  2.57636571290875E-13
(PID.TID 0000.0001)  cg2d: iter=   142 ; resid.=  1.82526172739076E-13
(PID.TID 0000.0001)  cg2d: iter=   143 ; resid.=  1.51224932255698E-13
(PID.TID 0000.0001)  cg2d: iter=   144 ; resid.=  1.26300356898420E-13
(PID.TID 0000.0001)  cg2d: iter=   145 ; resid.=  9.28881340565033E-14
DEBUG_STATS_RL:    cg2d_x (SOLVE_FOR_PRESSURE)  min= -6.15986974353002E+01
DEBUG_STATS_RL:    cg2d_x (SOLVE_FOR_PRESSURE)  max=  6.14500783154851E+01
DEBUG_STATS_RL:    cg2d_x (SOLVE_FOR_PRESSURE) mean= -3.33902931014264E+00
DEBUG_STATS_RL:    cg2d_x (SOLVE_FOR_PRESSURE) S.D.=  2.66144915166169E+01
(PID.TID 0000.0001)      cg2d_init_res =   1.05697276295345E+01
(PID.TID 0000.0001)      cg2d_iters(min,last) =      -1     145
(PID.TID 0000.0001)      cg2d_last_res =   9.28881340565033E-14
(PID.TID 0000.0001) // =======================================================
(PID.TID 0000.0001) // Begin MONITOR dynamic field statistics
(PID.TID 0000.0001) // =======================================================
(PID.TID 0000.0001) %MON time_tsnumber                =                     2
(PID.TID 0000.0001) %MON time_secondsf                =   1.7280000000000E+05
(PID.TID 0000.0001) %MON dynstat_eta_max              =   6.2640242931177E+00
(PID.TID 0000.0001) %MON dynstat_eta_min              =  -6.2791740504890E+00
(PID.TID 0000.0001) %MON dynstat_eta_mean             =  -1.3043905248869E-04
(PID.TID 0000.0001) %MON dynstat_eta_sd               =   2.5471162160748E+00
(PID.TID 0000.0001) %MON dynstat_eta_del2             =   4.8524205441694E-03
(PID.TID 0000.0001) %MON dynstat_uvel_max             =   2.7965604792051E-01
(PID.TID 0000.0001) %MON dynstat_uvel_min             =  -6.1130948014240E-02
(PID.TID 0000.0001) %MON dynstat_uvel_mean            =   1.0190280633643E-02
(PID.TID 0000.0001) %MON dynstat_uvel_sd              =   1.2032324508483E-02
(PID.TID 0000.0001) %MON dynstat_uvel_del2            =   6.9366703747080E-05
(PID.TID 0000.0001) %MON dynstat_vvel_max             =   2.4793650718877E-01
(PID.TID 0000.0001) %MON dynstat_vvel_min             =  -7.5951601597811E-02
(PID.TID 0000.0001) %MON dynstat_vvel_mean            =   4.8152579799643E-03
(PID.TID 0000.0001) %MON dynstat_vvel_sd              =   1.0422903907218E-02
(PID.TID 0000.0001) %MON dynstat_vvel_del2            =   7.1160308543323E-05
(PID.TID 0000.0001) %MON dynstat_wvel_max             =   3.2419987454695E-04
(PID.TID 0000.0001) %MON dynstat_wvel_min             =  -3.4509167317873E-04
(PID.TID 0000.0001) %MON dynstat_wvel_mean            =   5.7305608131572E-22
(PID.TID 0000.0001) %MON dynstat_wvel_sd              =   2.2459853492116E-05
(PID.TID 0000.0001) %MON dynstat_wvel_del2            =   2.8892268226874E-07
(PID.TID 0000.0001) %MON dynstat_theta_max            =   2.9650265292252E+01
(PID.TID 0000.0001) %MON dynstat_theta_min            =  -1.9634674307419E+00
(PID.TID 0000.0001) %MON dynstat_theta_mean           =   3.6470739920526E+00
(PID.TID 0000.0001) %MON dynstat_theta_sd             =   4.4130738582425E+00
(PID.TID 0000.0001) %MON dynstat_theta_del2           =   5.6086909627621E-03
(PID.TID 0000.0001) %MON dynstat_salt_max             =   3.7488583832615E+01
(PID.TID 0000.0001) %MON dynstat_salt_min             =   2.9781453075435E+01
(PID.TID 0000.0001) %MON dynstat_salt_mean            =   3.4747995634544E+01
(PID.TID 0000.0001) %MON dynstat_salt_sd              =   2.9579046711668E-01
(PID.TID 0000.0001) %MON dynstat_salt_del2            =   1.0188126645727E-03
(PID.TID 0000.0001) %MON dynstat_sst_max              =   2.9650265292252E+01
(PID.TID 0000.0001) %MON dynstat_sst_min              =  -1.8862871939508E+00
(PID.TID 0000.0001) %MON dynstat_sst_mean             =   1.8506252650730E+01
(PID.TID 0000.0001) %MON dynstat_sst_sd               =   9.1354407921926E+00
(PID.TID 0000.0001) %MON dynstat_sst_del2             =   2.6928981117864E-02
(PID.TID 0000.0001) %MON dynstat_sss_max              =   3.7488583832615E+01
(PID.TID 0000.0001) %MON dynstat_sss_min              =   2.9781453075435E+01
(PID.TID 0000.0001) %MON dynstat_sss_mean             =   3.4879922803776E+01
(PID.TID 0000.0001) %MON dynstat_sss_sd               =   9.6079089332607E-01
(PID.TID 0000.0001) %MON dynstat_sss_del2             =   7.9867203155254E-03
(PID.TID 0000.0001) %MON forcing_qnet_max             =   4.2693899536133E+02
(PID.TID 0000.0001) %MON forcing_qnet_min             =  -1.8655982259115E+02
(PID.TID 0000.0001) %MON forcing_qnet_mean            =  -1.6687693382567E+01
(PID.TID 0000.0001) %MON forcing_qnet_sd              =   1.1263946608433E+02
(PID.TID 0000.0001) %MON forcing_qnet_del2            =   9.9183674388333E-01
(PID.TID 0000.0001) %MON forcing_qsw_max              =   0.0000000000000E+00
(PID.TID 0000.0001) %MON forcing_qsw_min              =   0.0000000000000E+00
(PID.TID 0000.0001) %MON forcing_qsw_mean             =   0.0000000000000E+00
(PID.TID 0000.0001) %MON forcing_qsw_sd               =   0.0000000000000E+00
(PID.TID 0000.0001) %MON forcing_qsw_del2             =   0.0000000000000E+00
(PID.TID 0000.0001) %MON forcing_empmr_max            =   8.2987928351486E-05
(PID.TID 0000.0001) %MON forcing_empmr_min            =  -7.3906322484163E-05
(PID.TID 0000.0001) %MON forcing_empmr_mean           =   7.8616045367356E-07
(PID.TID 0000.0001) %MON forcing_empmr_sd             =   2.7832317986922E-05
(PID.TID 0000.0001) %MON forcing_empmr_del2           =   3.6378785899555E-07
(PID.TID 0000.0001) %MON forcing_fu_max               =   2.7403144240379E-01
(PID.TID 0000.0001) %MON forcing_fu_min               =  -1.5949268937111E-01
(PID.TID 0000.0001) %MON forcing_fu_mean              =   1.6109434647086E-02
(PID.TID 0000.0001) %MON forcing_fu_sd                =   9.0138031840955E-02
(PID.TID 0000.0001) %MON forcing_fu_del2              =   6.5488191036968E-04
(PID.TID 0000.0001) %MON forcing_fv_max               =   2.0882657567660E-01
(PID.TID 0000.0001) %MON forcing_fv_min               =  -1.8632210493088E-01
(PID.TID 0000.0001) %MON forcing_fv_mean              =  -6.2915731155564E-03
(PID.TID 0000.0001) %MON forcing_fv_sd                =   4.5261152700224E-02
(PID.TID 0000.0001) %MON forcing_fv_del2              =   4.4588571962377E-04
(PID.TID 0000.0001) %MON trAdv_CFL_u_max              =   4.9204265095677E-02
(PID.TID 0000.0001) %MON trAdv_CFL_v_max              =   3.1381779470256E-02
(PID.TID 0000.0001) %MON trAdv_CFL_w_max              =   1.3632324686796E-01
(PID.TID 0000.0001) %MON advcfl_uvel_max              =   6.3942059060649E-02
(PID.TID 0000.0001) %MON advcfl_vvel_max              =   4.8170086923271E-02
(PID.TID 0000.0001) %MON advcfl_wvel_max              =   1.2286113872092E-01
(PID.TID 0000.0001) %MON advcfl_W_hf_max              =   1.4918852558969E-01
(PID.TID 0000.0001) %MON pe_b_mean                    =   8.3019234175696E-03
(PID.TID 0000.0001) %MON ke_max                       =   3.5428101028598E-02
(PID.TID 0000.0001) %MON ke_mean                      =   1.7213262501580E-04
(PID.TID 0000.0001) %MON ke_vol                       =   1.3226782436723E+18
(PID.TID 0000.0001) %MON vort_r_min                   =  -6.9603292852224E-07
(PID.TID 0000.0001) %MON vort_r_max                   =   8.3858817119418E-07
(PID.TID 0000.0001) %MON vort_a_mean                  =  -2.5274807887808E-05
(PID.TID 0000.0001) %MON vort_a_sd                    =   7.3606362141792E-05
(PID.TID 0000.0001) %MON vort_p_mean                  =  -3.1845656417310E-05
(PID.TID 0000.0001) %MON vort_p_sd                    =   1.3162708326732E-04
(PID.TID 0000.0001) %MON surfExpan_theta_mean         =   2.1570629390426E-05
(PID.TID 0000.0001) %MON surfExpan_salt_mean          =   7.5587648527099E-07
(PID.TID 0000.0001) // =======================================================
(PID.TID 0000.0001) // End MONITOR dynamic field statistics
(PID.TID 0000.0001) // =======================================================
 EXTERNAL_FIELDS_LOAD,         2 : iP,iLd,i0,i1=   12    1   12    1 ; Wght=  0.4333333333  0.5666666667
 EXTERNAL_FIELDS_LOAD: (fu0,1),fu,fv= -4.5368E-02 -3.5633E-02 -3.9851E-02 -6.2886E-02
 EXTERNAL_FIELDS_LOAD: SST,SSS,Q,E-P=  1.7385E-01  3.4410E+01  2.6519E+02  1.0949E-05
DEBUG_STATS_RL:          Uvel (THERMODYNAMICS)  min= -6.11309480142400E-02
DEBUG_STATS_RL:          Uvel (THERMODYNAMICS)  max=  2.79656047920512E-01
DEBUG_STATS_RL:          Uvel (THERMODYNAMICS) mean=  1.26028647621026E-02
DEBUG_STATS_RL:          Uvel (THERMODYNAMICS) S.D.=  1.48668066094498E-02
DEBUG_STATS_RL:          Vvel (THERMODYNAMICS)  min= -7.59516015978109E-02
DEBUG_STATS_RL:          Vvel (THERMODYNAMICS)  max=  2.47936507188766E-01
DEBUG_STATS_RL:          Vvel (THERMODYNAMICS) mean=  4.22960553325280E-03
DEBUG_STATS_RL:          Vvel (THERMODYNAMICS) S.D.=  1.30948369094153E-02
DEBUG_STATS_RL:          Wvel (THERMODYNAMICS)  min= -3.45091673178731E-04
DEBUG_STATS_RL:          Wvel (THERMODYNAMICS)  max=  3.24199874546946E-04
DEBUG_STATS_RL:          Wvel (THERMODYNAMICS) mean= -6.85426274736299E-07
DEBUG_STATS_RL:          Wvel (THERMODYNAMICS) S.D.=  2.13790176232190E-05
DEBUG_STATS_RL:         Theta (THERMODYNAMICS)  min= -1.93347642285542E+00
DEBUG_STATS_RL:         Theta (THERMODYNAMICS)  max=  2.96717939463070E+01
DEBUG_STATS_RL:         Theta (THERMODYNAMICS) mean=  3.22468134258340E+00
DEBUG_STATS_RL:         Theta (THERMODYNAMICS) S.D.=  5.84133668297699E+00
DEBUG_STATS_RL:          Salt (THERMODYNAMICS)  min=  3.00000000000000E-02
DEBUG_STATS_RL:          Salt (THERMODYNAMICS)  max=  3.74806391913711E+01
DEBUG_STATS_RL:          Salt (THERMODYNAMICS) mean=  1.88750275428138E+01
DEBUG_STATS_RL:          Salt (THERMODYNAMICS) S.D.=  1.73004953733410E+01
DEBUG_STATS_RL:         GtNm1 (THERMODYNAMICS)  min= -9.21542322810830E-06
DEBUG_STATS_RL:         GtNm1 (THERMODYNAMICS)  max=  5.08289977221892E-06
DEBUG_STATS_RL:         GtNm1 (THERMODYNAMICS) mean=  9.62893271960765E-09
DEBUG_STATS_RL:         GtNm1 (THERMODYNAMICS) S.D.=  2.77250095058391E-07
DEBUG_STATS_RL:         GsNm1 (THERMODYNAMICS)  min= -5.78109550522416E-07
DEBUG_STATS_RL:         GsNm1 (THERMODYNAMICS)  max=  3.53136821623406E-07
DEBUG_STATS_RL:         GsNm1 (THERMODYNAMICS) mean= -2.99198010693112E-10
DEBUG_STATS_RL:         GsNm1 (THERMODYNAMICS) S.D.=  1.99133351494278E-08
DEBUG_STATS_RL:                EtaN (DYNAMICS)  min= -6.27917405048905E+00
DEBUG_STATS_RL:                EtaN (DYNAMICS)  max=  6.26402429311775E+00
DEBUG_STATS_RL:                EtaN (DYNAMICS) mean= -3.40369960259185E-01
DEBUG_STATS_RL:                EtaN (DYNAMICS) S.D.=  2.71299607712710E+00
DEBUG_STATS_RL:                Uvel (DYNAMICS)  min= -6.11309480142400E-02
DEBUG_STATS_RL:                Uvel (DYNAMICS)  max=  2.79656047920512E-01
DEBUG_STATS_RL:                Uvel (DYNAMICS) mean=  1.26028647621026E-02
DEBUG_STATS_RL:                Uvel (DYNAMICS) S.D.=  1.48668066094498E-02
DEBUG_STATS_RL:                Vvel (DYNAMICS)  min= -7.59516015978109E-02
DEBUG_STATS_RL:                Vvel (DYNAMICS)  max=  2.47936507188766E-01
DEBUG_STATS_RL:                Vvel (DYNAMICS) mean=  4.22960553325280E-03
DEBUG_STATS_RL:                Vvel (DYNAMICS) S.D.=  1.30948369094153E-02
DEBUG_STATS_RL:                Wvel (DYNAMICS)  min= -3.45091673178731E-04
DEBUG_STATS_RL:                Wvel (DYNAMICS)  max=  3.24199874546946E-04
DEBUG_STATS_RL:                Wvel (DYNAMICS) mean= -6.85426274736299E-07
DEBUG_STATS_RL:                Wvel (DYNAMICS) S.D.=  2.13790176232190E-05
DEBUG_STATS_RL:               Theta (DYNAMICS)  min= -1.93347642285542E+00
DEBUG_STATS_RL:               Theta (DYNAMICS)  max=  2.96717939463070E+01
DEBUG_STATS_RL:               Theta (DYNAMICS) mean=  3.22468134258340E+00
DEBUG_STATS_RL:               Theta (DYNAMICS) S.D.=  5.84133668297699E+00
DEBUG_STATS_RL:                Salt (DYNAMICS)  min=  3.00000000000000E-02
DEBUG_STATS_RL:                Salt (DYNAMICS)  max=  3.74806391913711E+01
DEBUG_STATS_RL:                Salt (DYNAMICS) mean=  1.88750275428138E+01
DEBUG_STATS_RL:                Salt (DYNAMICS) S.D.=  1.73004953733410E+01
DEBUG_STATS_RL:                  Gu (DYNAMICS)  min= -6.06921134549358E-02
DEBUG_STATS_RL:                  Gu (DYNAMICS)  max=  2.68016516037116E-01
DEBUG_STATS_RL:                  Gu (DYNAMICS) mean=  1.25643207690198E-02
DEBUG_STATS_RL:                  Gu (DYNAMICS) S.D.=  1.70027631746920E-02
DEBUG_STATS_RL:                  Gv (DYNAMICS)  min= -6.40896027094183E-02
DEBUG_STATS_RL:                  Gv (DYNAMICS)  max=  2.49075136786647E-01
DEBUG_STATS_RL:                  Gv (DYNAMICS) mean=  4.76829714684336E-03
DEBUG_STATS_RL:                  Gv (DYNAMICS) S.D.=  1.39830939627743E-02
DEBUG_STATS_RL:               GuNm1 (DYNAMICS)  min= -1.00015768362737E-05
DEBUG_STATS_RL:               GuNm1 (DYNAMICS)  max=  9.54929397627326E-06
DEBUG_STATS_RL:               GuNm1 (DYNAMICS) mean= -8.68123810038640E-08
DEBUG_STATS_RL:               GuNm1 (DYNAMICS) S.D.=  1.39737575152702E-06
DEBUG_STATS_RL:               GvNm1 (DYNAMICS)  min= -1.21146437918715E-05
DEBUG_STATS_RL:               GvNm1 (DYNAMICS)  max=  1.74502003029270E-05
DEBUG_STATS_RL:               GvNm1 (DYNAMICS) mean=  7.41458212877060E-07
DEBUG_STATS_RL:               GvNm1 (DYNAMICS) S.D.=  2.88782778424935E-06
DEBUG_STATS_RL:               GtNm1 (DYNAMICS)  min= -9.21542322810830E-06
DEBUG_STATS_RL:               GtNm1 (DYNAMICS)  max=  5.08289977221892E-06
DEBUG_STATS_RL:               GtNm1 (DYNAMICS) mean=  9.62893271960765E-09
DEBUG_STATS_RL:               GtNm1 (DYNAMICS) S.D.=  2.77250095058391E-07
DEBUG_STATS_RL:               GsNm1 (DYNAMICS)  min= -5.78109550522416E-07
DEBUG_STATS_RL:               GsNm1 (DYNAMICS)  max=  3.53136821623406E-07
DEBUG_STATS_RL:               GsNm1 (DYNAMICS) mean= -2.99198010693112E-10
DEBUG_STATS_RL:               GsNm1 (DYNAMICS) S.D.=  1.99133351494278E-08
DEBUG_STATS_RL:    cg2d_b (SOLVE_FOR_PRESSURE)  min= -3.56424332903075E+04
DEBUG_STATS_RL:    cg2d_b (SOLVE_FOR_PRESSURE)  max=  1.98903470733332E+04
DEBUG_STATS_RL:    cg2d_b (SOLVE_FOR_PRESSURE) mean=  1.88697000446153E-01
DEBUG_STATS_RL:    cg2d_b (SOLVE_FOR_PRESSURE) S.D.=  5.72730661238053E+03
 cg2d: Sum(rhs),rhsMax =   1.22559970156486E-02  2.34109044847471E+00
(PID.TID 0000.0001)  cg2d: iter=     1 ; resid.=  3.97379481624050E+00
(PID.TID 0000.0001)  cg2d: iter=     2 ; resid.=  3.83956511739920E+00
(PID.TID 0000.0001)  cg2d: iter=     3 ; resid.=  3.11757511837687E+00
(PID.TID 0000.0001)  cg2d: iter=     4 ; resid.=  2.57934671740825E+00
(PID.TID 0000.0001)  cg2d: iter=     5 ; resid.=  2.06623160001136E+00
(PID.TID 0000.0001)  cg2d: iter=     6 ; resid.=  1.64752849273464E+00
(PID.TID 0000.0001)  cg2d: iter=     7 ; resid.=  1.29137453085563E+00
(PID.TID 0000.0001)  cg2d: iter=     8 ; resid.=  1.02443247246458E+00
(PID.TID 0000.0001)  cg2d: iter=     9 ; resid.=  8.28024033161860E-01
(PID.TID 0000.0001)  cg2d: iter=    10 ; resid.=  7.01752352999608E-01
(PID.TID 0000.0001)  cg2d: iter=    11 ; resid.=  6.26679242594456E-01
(PID.TID 0000.0001)  cg2d: iter=    12 ; resid.=  5.37776723873716E-01
(PID.TID 0000.0001)  cg2d: iter=    13 ; resid.=  4.66352247827352E-01
(PID.TID 0000.0001)  cg2d: iter=    14 ; resid.=  4.28094520646244E-01
(PID.TID 0000.0001)  cg2d: iter=    15 ; resid.=  3.83717163962903E-01
(PID.TID 0000.0001)  cg2d: iter=    16 ; resid.=  3.40000579189792E-01
(PID.TID 0000.0001)  cg2d: iter=    17 ; resid.=  2.81300496572462E-01
(PID.TID 0000.0001)  cg2d: iter=    18 ; resid.=  2.42770984097578E-01
(PID.TID 0000.0001)  cg2d: iter=    19 ; resid.=  2.06740129364940E-01
(PID.TID 0000.0001)  cg2d: iter=    20 ; resid.=  1.77231456629614E-01
(PID.TID 0000.0001)  cg2d: iter=    21 ; resid.=  1.52049090103865E-01
(PID.TID 0000.0001)  cg2d: iter=    22 ; resid.=  1.30095353628358E-01
(PID.TID 0000.0001)  cg2d: iter=    23 ; resid.=  9.78216674487211E-02
(PID.TID 0000.0001)  cg2d: iter=    24 ; resid.=  7.47131872412964E-02
(PID.TID 0000.0001)  cg2d: iter=    25 ; resid.=  5.33200958079794E-02
(PID.TID 0000.0001)  cg2d: iter=    26 ; resid.=  4.46611610651631E-02
(PID.TID 0000.0001)  cg2d: iter=    27 ; resid.=  3.65995779866199E-02
(PID.TID 0000.0001)  cg2d: iter=    28 ; resid.=  3.21930874516488E-02
(PID.TID 0000.0001)  cg2d: iter=    29 ; resid.=  2.92573079334145E-02
(PID.TID 0000.0001)  cg2d: iter=    30 ; resid.=  2.73200790565189E-02
(PID.TID 0000.0001)  cg2d: iter=    31 ; resid.=  1.97025250043600E-02
(PID.TID 0000.0001)  cg2d: iter=    32 ; resid.=  1.53045625126231E-02
(PID.TID 0000.0001)  cg2d: iter=    33 ; resid.=  1.20146117501838E-02
(PID.TID 0000.0001)  cg2d: iter=    34 ; resid.=  1.07185784297162E-02
(PID.TID 0000.0001)  cg2d: iter=    35 ; resid.=  8.19288774374246E-03
(PID.TID 0000.0001)  cg2d: iter=    36 ; resid.=  6.46816276282068E-03
(PID.TID 0000.0001)  cg2d: iter=    37 ; resid.=  5.21102878379396E-03
(PID.TID 0000.0001)  cg2d: iter=    38 ; resid.=  4.34751806265635E-03
(PID.TID 0000.0001)  cg2d: iter=    39 ; resid.=  3.51719565883951E-03
(PID.TID 0000.0001)  cg2d: iter=    40 ; resid.=  3.00390324119112E-03
(PID.TID 0000.0001)  cg2d: iter=    41 ; resid.=  2.42401938062798E-03
(PID.TID 0000.0001)  cg2d: iter=    42 ; resid.=  2.04226555985719E-03
(PID.TID 0000.0001)  cg2d: iter=    43 ; resid.=  1.58139402962040E-03
(PID.TID 0000.0001)  cg2d: iter=    44 ; resid.=  1.24935163233636E-03
(PID.TID 0000.0001)  cg2d: iter=    45 ; resid.=  1.04649258402751E-03
(PID.TID 0000.0001)  cg2d: iter=    46 ; resid.=  9.04206743683842E-04
(PID.TID 0000.0001)  cg2d: iter=    47 ; resid.=  7.49493451489365E-04
(PID.TID 0000.0001)  cg2d: iter=    48 ; resid.=  6.31631341582064E-04
(PID.TID 0000.0001)  cg2d: iter=    49 ; resid.=  5.24428703430146E-04
(PID.TID 0000.0001)  cg2d: iter=    50 ; resid.=  4.27741648139114E-04
(PID.TID 0000.0001)  cg2d: iter=    51 ; resid.=  3.57675457601057E-04
(PID.TID 0000.0001)  cg2d: iter=    52 ; resid.=  3.06184155053379E-04
(PID.TID 0000.0001)  cg2d: iter=    53 ; resid.=  2.75997160911377E-04
(PID.TID 0000.0001)  cg2d: iter=    54 ; resid.=  2.49888399612290E-04
(PID.TID 0000.0001)  cg2d: iter=    55 ; resid.=  2.18865494690795E-04
(PID.TID 0000.0001)  cg2d: iter=    56 ; resid.=  1.57695584887806E-04
(PID.TID 0000.0001)  cg2d: iter=    57 ; resid.=  1.16628678182006E-04
(PID.TID 0000.0001)  cg2d: iter=    58 ; resid.=  9.20318997768107E-05
(PID.TID 0000.0001)  cg2d: iter=    59 ; resid.=  7.86219235949261E-05
(PID.TID 0000.0001)  cg2d: iter=    60 ; resid.=  6.99107313448286E-05
(PID.TID 0000.0001)  cg2d: iter=    61 ; resid.=  6.05488815071965E-05
(PID.TID 0000.0001)  cg2d: iter=    62 ; resid.=  4.38853416276780E-05
(PID.TID 0000.0001)  cg2d: iter=    63 ; resid.=  3.23561866267415E-05
(PID.TID 0000.0001)  cg2d: iter=    64 ; resid.=  2.66825929651255E-05
(PID.TID 0000.0001)  cg2d: iter=    65 ; resid.=  2.25161541131187E-05
(PID.TID 0000.0001)  cg2d: iter=    66 ; resid.=  2.01823353498532E-05
(PID.TID 0000.0001)  cg2d: iter=    67 ; resid.=  1.65240038039486E-05
(PID.TID 0000.0001)  cg2d: iter=    68 ; resid.=  1.32016669809409E-05
(PID.TID 0000.0001)  cg2d: iter=    69 ; resid.=  1.05775427307244E-05
(PID.TID 0000.0001)  cg2d: iter=    70 ; resid.=  7.96510366235533E-06
(PID.TID 0000.0001)  cg2d: iter=    71 ; resid.=  6.26016767501879E-06
(PID.TID 0000.0001)  cg2d: iter=    72 ; resid.=  5.30812744283673E-06
(PID.TID 0000.0001)  cg2d: iter=    73 ; resid.=  4.33961088245428E-06
(PID.TID 0000.0001)  cg2d: iter=    74 ; resid.=  3.46627535876486E-06
(PID.TID 0000.0001)  cg2d: iter=    75 ; resid.=  2.91942571525240E-06
(PID.TID 0000.0001)  cg2d: iter=    76 ; resid.=  2.43401157493200E-06
(PID.TID 0000.0001)  cg2d: iter=    77 ; resid.=  2.09766564363173E-06
(PID.TID 0000.0001)  cg2d: iter=    78 ; resid.=  1.78917599863289E-06
(PID.TID 0000.0001)  cg2d: iter=    79 ; resid.=  1.52839933868177E-06
(PID.TID 0000.0001)  cg2d: iter=    80 ; resid.=  1.25862870742630E-06
(PID.TID 0000.0001)  cg2d: iter=    81 ; resid.=  1.02567540625057E-06
(PID.TID 0000.0001)  cg2d: iter=    82 ; resid.=  7.77055439420845E-07
(PID.TID 0000.0001)  cg2d: iter=    83 ; resid.=  6.51959845127210E-07
(PID.TID 0000.0001)  cg2d: iter=    84 ; resid.=  5.18191614551974E-07
(PID.TID 0000.0001)  cg2d: iter=    85 ; resid.=  4.38363240585919E-07
(PID.TID 0000.0001)  cg2d: iter=    86 ; resid.=  3.64195139719848E-07
(PID.TID 0000.0001)  cg2d: iter=    87 ; resid.=  3.22703961978808E-07
(PID.TID 0000.0001)  cg2d: iter=    88 ; resid.=  3.00218413277654E-07
(PID.TID 0000.0001)  cg2d: iter=    89 ; resid.=  2.57896355208624E-07
(PID.TID 0000.0001)  cg2d: iter=    90 ; resid.=  1.98257282283097E-07
(PID.TID 0000.0001)  cg2d: iter=    91 ; resid.=  1.51773449022980E-07
(PID.TID 0000.0001)  cg2d: iter=    92 ; resid.=  1.10647233581746E-07
(PID.TID 0000.0001)  cg2d: iter=    93 ; resid.=  8.13255697133621E-08
(PID.TID 0000.0001)  cg2d: iter=    94 ; resid.=  6.06201143240719E-08
(PID.TID 0000.0001)  cg2d: iter=    95 ; resid.=  4.38385344848406E-08
(PID.TID 0000.0001)  cg2d: iter=    96 ; resid.=  3.13989258175696E-08
(PID.TID 0000.0001)  cg2d: iter=    97 ; resid.=  2.44006618857273E-08
(PID.TID 0000.0001)  cg2d: iter=    98 ; resid.=  1.93752944883701E-08
(PID.TID 0000.0001)  cg2d: iter=    99 ; resid.=  1.57202974865604E-08
(PID.TID 0000.0001)  cg2d: iter=   100 ; resid.=  1.26681000848670E-08
(PID.TID 0000.0001)  cg2d: iter=   101 ; resid.=  9.29967291905547E-09
(PID.TID 0000.0001)  cg2d: iter=   102 ; resid.=  7.36317274943116E-09
(PID.TID 0000.0001)  cg2d: iter=   103 ; resid.=  5.96095230352056E-09
(PID.TID 0000.0001)  cg2d: iter=   104 ; resid.=  4.79833430162868E-09
(PID.TID 0000.0001)  cg2d: iter=   105 ; resid.=  3.85506076689172E-09
(PID.TID 0000.0001)  cg2d: iter=   106 ; resid.=  3.36372702546865E-09
(PID.TID 0000.0001)  cg2d: iter=   107 ; resid.=  2.71318091469346E-09
(PID.TID 0000.0001)  cg2d: iter=   108 ; resid.=  2.28197949824894E-09
(PID.TID 0000.0001)  cg2d: iter=   109 ; resid.=  1.86251560499023E-09
(PID.TID 0000.0001)  cg2d: iter=   110 ; resid.=  1.50488018259292E-09
(PID.TID 0000.0001)  cg2d: iter=   111 ; resid.=  1.22986800817981E-09
(PID.TID 0000.0001)  cg2d: iter=   112 ; resid.=  9.73689197642965E-10
(PID.TID 0000.0001)  cg2d: iter=   113 ; resid.=  7.56178225914363E-10
(PID.TID 0000.0001)  cg2d: iter=   114 ; resid.=  6.56493424244385E-10
(PID.TID 0000.0001)  cg2d: iter=   115 ; resid.=  5.23112049919297E-10
(PID.TID 0000.0001)  cg2d: iter=   116 ; resid.=  4.19058533382052E-10
(PID.TID 0000.0001)  cg2d: iter=   117 ; resid.=  3.53176760327028E-10
(PID.TID 0000.0001)  cg2d: iter=   118 ; resid.=  2.94847373817344E-10
(PID.TID 0000.0001)  cg2d: iter=   119 ; resid.=  2.23005696517606E-10
(PID.TID 0000.0001)  cg2d: iter=   120 ; resid.=  1.75114268760071E-10
(PID.TID 0000.0001)  cg2d: iter=   121 ; resid.=  1.35981760573755E-10
(PID.TID 0000.0001)  cg2d: iter=   122 ; resid.=  1.00336308588441E-10
(PID.TID 0000.0001)  cg2d: iter=   123 ; resid.=  6.97742435465279E-11
(PID.TID 0000.0001)  cg2d: iter=   124 ; resid.=  5.13741782439072E-11
(PID.TID 0000.0001)  cg2d: iter=   125 ; resid.=  3.69566767397279E-11
(PID.TID 0000.0001)  cg2d: iter=   126 ; resid.=  2.86320828122872E-11
(PID.TID 0000.0001)  cg2d: iter=   127 ; resid.=  1.99993696847075E-11
(PID.TID 0000.0001)  cg2d: iter=   128 ; resid.=  1.43536521277092E-11
(PID.TID 0000.0001)  cg2d: iter=   129 ; resid.=  9.90850177973214E-12
(PID.TID 0000.0001)  cg2d: iter=   130 ; resid.=  7.14118674056355E-12
(PID.TID 0000.0001)  cg2d: iter=   131 ; resid.=  5.44028102666425E-12
(PID.TID 0000.0001)  cg2d: iter=   132 ; resid.=  3.91539085617177E-12
(PID.TID 0000.0001)  cg2d: iter=   133 ; resid.=  3.12143475753121E-12
(PID.TID 0000.0001)  cg2d: iter=   134 ; resid.=  2.38883898132306E-12
(PID.TID 0000.0001)  cg2d: iter=   135 ; resid.=  1.77820729611966E-12
(PID.TID 0000.0001)  cg2d: iter=   136 ; resid.=  1.34120041106754E-12
(PID.TID 0000.0001)  cg2d: iter=   137 ; resid.=  9.90466407292485E-13
(PID.TID 0000.0001)  cg2d: iter=   138 ; resid.=  7.46249436727616E-13
(PID.TID 0000.0001)  cg2d: iter=   139 ; resid.=  5.98615313915943E-13
(PID.TID 0000.0001)  cg2d: iter=   140 ; resid.=  4.59763211893256E-13
(PID.TID 0000.0001)  cg2d: iter=   141 ; resid.=  3.56494648438657E-13
(PID.TID 0000.0001)  cg2d: iter=   142 ; resid.=  2.76202958075511E-13
(PID.TID 0000.0001)  cg2d: iter=   143 ; resid.=  2.35160039346608E-13
(PID.TID 0000.0001)  cg2d: iter=   144 ; resid.=  1.53800407366343E-13
(PID.TID 0000.0001)  cg2d: iter=   145 ; resid.=  1.01714428592217E-13
(PID.TID 0000.0001)  cg2d: iter=   146 ; resid.=  7.12774193997727E-14
DEBUG_STATS_RL:    cg2d_x (SOLVE_FOR_PRESSURE)  min= -4.42037899793609E+01
DEBUG_STATS_RL:    cg2d_x (SOLVE_FOR_PRESSURE)  max=  4.49552444437877E+01
DEBUG_STATS_RL:    cg2d_x (SOLVE_FOR_PRESSURE) mean= -2.28471218379358E+00
DEBUG_STATS_RL:    cg2d_x (SOLVE_FOR_PRESSURE) S.D.=  2.10698977362836E+01
(PID.TID 0000.0001)      cg2d_init_res =   3.45530501490783E+00
(PID.TID 0000.0001)      cg2d_iters(min,last) =      -1     146
(PID.TID 0000.0001)      cg2d_last_res =   7.12774193997727E-14
(PID.TID 0000.0001) // =======================================================
(PID.TID 0000.0001) // Begin MONITOR dynamic field statistics
(PID.TID 0000.0001) // =======================================================
(PID.TID 0000.0001) %MON time_tsnumber                =                     3
(PID.TID 0000.0001) %MON time_secondsf                =   2.5920000000000E+05
(PID.TID 0000.0001) %MON dynstat_eta_max              =   4.5825937251568E+00
(PID.TID 0000.0001) %MON dynstat_eta_min              =  -4.5059928623202E+00
(PID.TID 0000.0001) %MON dynstat_eta_mean             =  -1.9688192231028E-04
(PID.TID 0000.0001) %MON dynstat_eta_sd               =   1.9885297671221E+00
(PID.TID 0000.0001) %MON dynstat_eta_del2             =   4.2632687404237E-03
(PID.TID 0000.0001) %MON dynstat_uvel_max             =   3.1019294723374E-01
(PID.TID 0000.0001) %MON dynstat_uvel_min             =  -9.2184295994580E-02
(PID.TID 0000.0001) %MON dynstat_uvel_mean            =   6.2600506888669E-03
(PID.TID 0000.0001) %MON dynstat_uvel_sd              =   1.5042837106764E-02
(PID.TID 0000.0001) %MON dynstat_uvel_del2            =   7.5796836212531E-05
(PID.TID 0000.0001) %MON dynstat_vvel_max             =   2.7057871833244E-01
(PID.TID 0000.0001) %MON dynstat_vvel_min             =  -1.0868246224903E-01
(PID.TID 0000.0001) %MON dynstat_vvel_mean            =  -2.8648508063124E-03
(PID.TID 0000.0001) %MON dynstat_vvel_sd              =   1.2303508450726E-02
(PID.TID 0000.0001) %MON dynstat_vvel_del2            =   8.3487306985471E-05
(PID.TID 0000.0001) %MON dynstat_wvel_max             =   3.9049576395023E-04
(PID.TID 0000.0001) %MON dynstat_wvel_min             =  -3.3160722180663E-04
(PID.TID 0000.0001) %MON dynstat_wvel_mean            =   5.6544102291848E-22
(PID.TID 0000.0001) %MON dynstat_wvel_sd              =   2.4848305461071E-05
(PID.TID 0000.0001) %MON dynstat_wvel_del2            =   3.2133175074870E-07
(PID.TID 0000.0001) %MON dynstat_theta_max            =   2.9671793946307E+01
(PID.TID 0000.0001) %MON dynstat_theta_min            =  -1.9334764228554E+00
(PID.TID 0000.0001) %MON dynstat_theta_mean           =   3.6473543853495E+00
(PID.TID 0000.0001) %MON dynstat_theta_sd             =   4.4122151033139E+00
(PID.TID 0000.0001) %MON dynstat_theta_del2           =   5.5610734657015E-03
(PID.TID 0000.0001) %MON dynstat_salt_max             =   3.7480639191371E+01
(PID.TID 0000.0001) %MON dynstat_salt_min             =   2.9778322183246E+01
(PID.TID 0000.0001) %MON dynstat_salt_mean            =   3.4747972165742E+01
(PID.TID 0000.0001) %MON dynstat_salt_sd              =   2.9585835696543E-01
(PID.TID 0000.0001) %MON dynstat_salt_del2            =   1.0167415677875E-03
(PID.TID 0000.0001) %MON dynstat_sst_max              =   2.9671793946307E+01
(PID.TID 0000.0001) %MON dynstat_sst_min              =  -1.8919505331532E+00
(PID.TID 0000.0001) %MON dynstat_sst_mean             =   1.8525410104154E+01
(PID.TID 0000.0001) %MON dynstat_sst_sd               =   9.1276548492382E+00
(PID.TID 0000.0001) %MON dynstat_sst_del2             =   2.6758618504937E-02
(PID.TID 0000.0001) %MON dynstat_sss_max              =   3.7480639191371E+01
(PID.TID 0000.0001) %MON dynstat_sss_min              =   2.9778322183246E+01
(PID.TID 0000.0001) %MON dynstat_sss_mean             =   3.4880604453331E+01
(PID.TID 0000.0001) %MON dynstat_sss_sd               =   9.6233292430161E-01
(PID.TID 0000.0001) %MON dynstat_sss_del2             =   7.9815736742374E-03
(PID.TID 0000.0001) %MON forcing_qnet_max             =   4.2798718261719E+02
(PID.TID 0000.0001) %MON forcing_qnet_min             =  -1.8609266001383E+02
(PID.TID 0000.0001) %MON forcing_qnet_mean            =  -1.6675181426744E+01
(PID.TID 0000.0001) %MON forcing_qnet_sd              =   1.1242481361476E+02
(PID.TID 0000.0001) %MON forcing_qnet_del2            =   9.9305199082959E-01
(PID.TID 0000.0001) %MON forcing_qsw_max              =   0.0000000000000E+00
(PID.TID 0000.0001) %MON forcing_qsw_min              =   0.0000000000000E+00
(PID.TID 0000.0001) %MON forcing_qsw_mean             =   0.0000000000000E+00
(PID.TID 0000.0001) %MON forcing_qsw_sd               =   0.0000000000000E+00
(PID.TID 0000.0001) %MON forcing_qsw_del2             =   0.0000000000000E+00
(PID.TID 0000.0001) %MON forcing_empmr_max            =   8.2732094597304E-05
(PID.TID 0000.0001) %MON forcing_empmr_min            =  -7.3643138875923E-05
(PID.TID 0000.0001) %MON forcing_empmr_mean           =   7.9593021141906E-07
(PID.TID 0000.0001) %MON forcing_empmr_sd             =   2.7874041013016E-05
(PID.TID 0000.0001) %MON forcing_empmr_del2           =   3.6331922792719E-07
(PID.TID 0000.0001) %MON forcing_fu_max               =   2.7317289412022E-01
(PID.TID 0000.0001) %MON forcing_fu_min               =  -1.6030610948801E-01
(PID.TID 0000.0001) %MON forcing_fu_mean              =   1.6101741826049E-02
(PID.TID 0000.0001) %MON forcing_fu_sd                =   9.0133772222350E-02
(PID.TID 0000.0001) %MON forcing_fu_del2              =   6.5664222090357E-04
(PID.TID 0000.0001) %MON forcing_fv_max               =   2.0930016835531E-01
(PID.TID 0000.0001) %MON forcing_fv_min               =  -1.8573744744062E-01
(PID.TID 0000.0001) %MON forcing_fv_mean              =  -6.2178105886955E-03
(PID.TID 0000.0001) %MON forcing_fv_sd                =   4.5379778517573E-02
(PID.TID 0000.0001) %MON forcing_fv_del2              =   4.4636987924417E-04
(PID.TID 0000.0001) %MON trAdv_CFL_u_max              =   6.3955046150166E-02
(PID.TID 0000.0001) %MON trAdv_CFL_v_max              =   4.8447006309272E-02
(PID.TID 0000.0001) %MON trAdv_CFL_w_max              =   1.0443196791278E-01
(PID.TID 0000.0001) %MON advcfl_uvel_max              =   6.1195207456908E-02
(PID.TID 0000.0001) %MON advcfl_vvel_max              =   5.2569105411078E-02
(PID.TID 0000.0001) %MON advcfl_wvel_max              =   1.3822151766640E-01
(PID.TID 0000.0001) %MON advcfl_W_hf_max              =   1.4020005182310E-01
(PID.TID 0000.0001) %MON pe_b_mean                    =   5.0599403537620E-03
(PID.TID 0000.0001) %MON ke_max                       =   4.7253362345456E-02
(PID.TID 0000.0001) %MON ke_mean                      =   1.9225350760442E-04
(PID.TID 0000.0001) %MON ke_vol                       =   1.3226782436723E+18
(PID.TID 0000.0001) %MON vort_r_min                   =  -7.9265038022321E-07
(PID.TID 0000.0001) %MON vort_r_max                   =   1.0892513354867E-06
(PID.TID 0000.0001) %MON vort_a_mean                  =  -2.5274808432441E-05
(PID.TID 0000.0001) %MON vort_a_sd                    =   7.3605428350889E-05
(PID.TID 0000.0001) %MON vort_p_mean                  =  -3.1845657103535E-05
(PID.TID 0000.0001) %MON vort_p_sd                    =   1.3162447274832E-04
(PID.TID 0000.0001) %MON surfExpan_theta_mean         =  -1.8316386328645E-05
(PID.TID 0000.0001) %MON surfExpan_salt_mean          =  -2.8996212646480E-07
(PID.TID 0000.0001) // =======================================================
(PID.TID 0000.0001) // End MONITOR dynamic field statistics
(PID.TID 0000.0001) // =======================================================
 EXTERNAL_FIELDS_LOAD,         3 : iP,iLd,i0,i1=   12    1   12    1 ; Wght=  0.4000000000  0.6000000000
 EXTERNAL_FIELDS_LOAD: (fu0,1),fu,fv= -4.5368E-02 -3.5633E-02 -3.9527E-02 -6.2453E-02
 EXTERNAL_FIELDS_LOAD: SST,SSS,Q,E-P=  2.3421E-01  3.4434E+01  2.6523E+02  1.1002E-05
DEBUG_STATS_RL:          Uvel (THERMODYNAMICS)  min= -9.21842959945797E-02
DEBUG_STATS_RL:          Uvel (THERMODYNAMICS)  max=  3.10192947233740E-01
DEBUG_STATS_RL:          Uvel (THERMODYNAMICS) mean=  9.50538739909940E-03
DEBUG_STATS_RL:          Uvel (THERMODYNAMICS) S.D.=  1.86270035273264E-02
DEBUG_STATS_RL:          Vvel (THERMODYNAMICS)  min= -1.08682462249029E-01
DEBUG_STATS_RL:          Vvel (THERMODYNAMICS)  max=  2.70578718332437E-01
DEBUG_STATS_RL:          Vvel (THERMODYNAMICS) mean= -3.59330607009134E-03
DEBUG_STATS_RL:          Vvel (THERMODYNAMICS) S.D.=  1.56293250792583E-02
DEBUG_STATS_RL:          Wvel (THERMODYNAMICS)  min= -3.31607221806633E-04
DEBUG_STATS_RL:          Wvel (THERMODYNAMICS)  max=  3.90495763950229E-04
DEBUG_STATS_RL:          Wvel (THERMODYNAMICS) mean=  4.44289803505849E-07
DEBUG_STATS_RL:          Wvel (THERMODYNAMICS) S.D.=  2.37665768038382E-05
DEBUG_STATS_RL:         Theta (THERMODYNAMICS)  min= -1.92657899675826E+00
DEBUG_STATS_RL:         Theta (THERMODYNAMICS)  max=  2.97839860323417E+01
DEBUG_STATS_RL:         Theta (THERMODYNAMICS) mean=  3.22695438949063E+00
DEBUG_STATS_RL:         Theta (THERMODYNAMICS) S.D.=  5.84487294956217E+00
DEBUG_STATS_RL:          Salt (THERMODYNAMICS)  min=  3.00000000000000E-02
DEBUG_STATS_RL:          Salt (THERMODYNAMICS)  max=  3.74745509381907E+01
DEBUG_STATS_RL:          Salt (THERMODYNAMICS) mean=  1.88751359282049E+01
DEBUG_STATS_RL:          Salt (THERMODYNAMICS) S.D.=  1.73006000079379E+01
DEBUG_STATS_RL:         GtNm1 (THERMODYNAMICS)  min= -8.60621486325333E-06
DEBUG_STATS_RL:         GtNm1 (THERMODYNAMICS)  max=  5.93638748971125E-06
DEBUG_STATS_RL:         GtNm1 (THERMODYNAMICS) mean=  3.46164936517577E-08
DEBUG_STATS_RL:         GtNm1 (THERMODYNAMICS) S.D.=  3.08182250285823E-07
DEBUG_STATS_RL:         GsNm1 (THERMODYNAMICS)  min= -8.88614232061265E-07
DEBUG_STATS_RL:         GsNm1 (THERMODYNAMICS)  max=  6.42798004880300E-07
DEBUG_STATS_RL:         GsNm1 (THERMODYNAMICS) mean=  1.29662222225780E-09
DEBUG_STATS_RL:         GsNm1 (THERMODYNAMICS) S.D.=  2.66966535429214E-08
DEBUG_STATS_RL:                EtaN (DYNAMICS)  min= -4.50599286232024E+00
DEBUG_STATS_RL:                EtaN (DYNAMICS)  max=  4.58259372515678E+00
DEBUG_STATS_RL:                EtaN (DYNAMICS) mean= -2.32896247073762E-01
DEBUG_STATS_RL:                EtaN (DYNAMICS) S.D.=  2.14779793438161E+00
DEBUG_STATS_RL:                Uvel (DYNAMICS)  min= -9.21842959945797E-02
DEBUG_STATS_RL:                Uvel (DYNAMICS)  max=  3.10192947233740E-01
DEBUG_STATS_RL:                Uvel (DYNAMICS) mean=  9.50538739909940E-03
DEBUG_STATS_RL:                Uvel (DYNAMICS) S.D.=  1.86270035273264E-02
DEBUG_STATS_RL:                Vvel (DYNAMICS)  min= -1.08682462249029E-01
DEBUG_STATS_RL:                Vvel (DYNAMICS)  max=  2.70578718332437E-01
DEBUG_STATS_RL:                Vvel (DYNAMICS) mean= -3.59330607009134E-03
DEBUG_STATS_RL:                Vvel (DYNAMICS) S.D.=  1.56293250792583E-02
DEBUG_STATS_RL:                Wvel (DYNAMICS)  min= -3.31607221806633E-04
DEBUG_STATS_RL:                Wvel (DYNAMICS)  max=  3.90495763950229E-04
DEBUG_STATS_RL:                Wvel (DYNAMICS) mean=  4.44289803505849E-07
DEBUG_STATS_RL:                Wvel (DYNAMICS) S.D.=  2.37665768038382E-05
DEBUG_STATS_RL:               Theta (DYNAMICS)  min= -1.92657899675826E+00
DEBUG_STATS_RL:               Theta (DYNAMICS)  max=  2.97839860323417E+01
DEBUG_STATS_RL:               Theta (DYNAMICS) mean=  3.22695438949063E+00
DEBUG_STATS_RL:               Theta (DYNAMICS) S.D.=  5.84487294956217E+00
DEBUG_STATS_RL:                Salt (DYNAMICS)  min=  3.00000000000000E-02
DEBUG_STATS_RL:                Salt (DYNAMICS)  max=  3.74745509381907E+01
DEBUG_STATS_RL:                Salt (DYNAMICS) mean=  1.88751359282049E+01
DEBUG_STATS_RL:                Salt (DYNAMICS) S.D.=  1.73006000079379E+01
DEBUG_STATS_RL:                  Gu (DYNAMICS)  min= -8.32014690837884E-02
DEBUG_STATS_RL:                  Gu (DYNAMICS)  max=  2.98114018080503E-01
DEBUG_STATS_RL:                  Gu (DYNAMICS) mean=  9.23825447012383E-03
DEBUG_STATS_RL:                  Gu (DYNAMICS) S.D.=  2.08812947660410E-02
DEBUG_STATS_RL:                  Gv (DYNAMICS)  min= -8.82106116411216E-02
DEBUG_STATS_RL:                  Gv (DYNAMICS)  max=  2.72470235410858E-01
DEBUG_STATS_RL:                  Gv (DYNAMICS) mean= -2.92502176214378E-03
DEBUG_STATS_RL:                  Gv (DYNAMICS) S.D.=  1.63494802148432E-02
DEBUG_STATS_RL:               GuNm1 (DYNAMICS)  min= -9.39335276972767E-06
DEBUG_STATS_RL:               GuNm1 (DYNAMICS)  max=  8.93688075121429E-06
DEBUG_STATS_RL:               GuNm1 (DYNAMICS) mean= -6.92264413650294E-08
DEBUG_STATS_RL:               GuNm1 (DYNAMICS) S.D.=  1.36945204308310E-06
DEBUG_STATS_RL:               GvNm1 (DYNAMICS)  min= -1.18051021216685E-05
DEBUG_STATS_RL:               GvNm1 (DYNAMICS)  max=  1.72761207196016E-05
DEBUG_STATS_RL:               GvNm1 (DYNAMICS) mean=  7.66847030871604E-07
DEBUG_STATS_RL:               GvNm1 (DYNAMICS) S.D.=  2.86212996841378E-06
DEBUG_STATS_RL:               GtNm1 (DYNAMICS)  min= -8.60621486325333E-06
DEBUG_STATS_RL:               GtNm1 (DYNAMICS)  max=  5.93638748971125E-06
DEBUG_STATS_RL:               GtNm1 (DYNAMICS) mean=  3.46164936517577E-08
DEBUG_STATS_RL:               GtNm1 (DYNAMICS) S.D.=  3.08182250285823E-07
DEBUG_STATS_RL:               GsNm1 (DYNAMICS)  min= -8.88614232061265E-07
DEBUG_STATS_RL:               GsNm1 (DYNAMICS)  max=  6.42798004880300E-07
DEBUG_STATS_RL:               GsNm1 (DYNAMICS) mean=  1.29662222225780E-09
DEBUG_STATS_RL:               GsNm1 (DYNAMICS) S.D.=  2.66966535429214E-08
DEBUG_STATS_RL:    cg2d_b (SOLVE_FOR_PRESSURE)  min= -3.28395920139523E+04
DEBUG_STATS_RL:    cg2d_b (SOLVE_FOR_PRESSURE)  max=  1.84904835491463E+04
DEBUG_STATS_RL:    cg2d_b (SOLVE_FOR_PRESSURE) mean=  2.53159315034765E-01
DEBUG_STATS_RL:    cg2d_b (SOLVE_FOR_PRESSURE) S.D.=  5.12093687854346E+03
 cg2d: Sum(rhs),rhsMax =   1.78462574705074E-02  2.15699232904441E+00
(PID.TID 0000.0001)  cg2d: iter=     1 ; resid.=  3.19674416911325E+00
(PID.TID 0000.0001)  cg2d: iter=     2 ; resid.=  4.35289331178669E+00
(PID.TID 0000.0001)  cg2d: iter=     3 ; resid.=  3.44947116595584E+00
(PID.TID 0000.0001)  cg2d: iter=     4 ; resid.=  2.74825165817588E+00
(PID.TID 0000.0001)  cg2d: iter=     5 ; resid.=  2.19210044023186E+00
(PID.TID 0000.0001)  cg2d: iter=     6 ; resid.=  1.67774169453424E+00
(PID.TID 0000.0001)  cg2d: iter=     7 ; resid.=  1.25432075284062E+00
(PID.TID 0000.0001)  cg2d: iter=     8 ; resid.=  1.15650901690156E+00
(PID.TID 0000.0001)  cg2d: iter=     9 ; resid.=  1.14181832070714E+00
(PID.TID 0000.0001)  cg2d: iter=    10 ; resid.=  9.56639886008578E-01
(PID.TID 0000.0001)  cg2d: iter=    11 ; resid.=  8.29370487500110E-01
(PID.TID 0000.0001)  cg2d: iter=    12 ; resid.=  6.95853476716866E-01
(PID.TID 0000.0001)  cg2d: iter=    13 ; resid.=  6.37618358406579E-01
(PID.TID 0000.0001)  cg2d: iter=    14 ; resid.=  5.83156855733784E-01
(PID.TID 0000.0001)  cg2d: iter=    15 ; resid.=  5.13678544234840E-01
(PID.TID 0000.0001)  cg2d: iter=    16 ; resid.=  4.23934235528064E-01
(PID.TID 0000.0001)  cg2d: iter=    17 ; resid.=  3.67233680456015E-01
(PID.TID 0000.0001)  cg2d: iter=    18 ; resid.=  3.06437168731638E-01
(PID.TID 0000.0001)  cg2d: iter=    19 ; resid.=  2.40080103360018E-01
(PID.TID 0000.0001)  cg2d: iter=    20 ; resid.=  1.85117611757087E-01
(PID.TID 0000.0001)  cg2d: iter=    21 ; resid.=  1.61239689085023E-01
(PID.TID 0000.0001)  cg2d: iter=    22 ; resid.=  1.37998021202256E-01
(PID.TID 0000.0001)  cg2d: iter=    23 ; resid.=  1.08526255238298E-01
(PID.TID 0000.0001)  cg2d: iter=    24 ; resid.=  8.92408518445147E-02
(PID.TID 0000.0001)  cg2d: iter=    25 ; resid.=  6.91132514688253E-02
(PID.TID 0000.0001)  cg2d: iter=    26 ; resid.=  6.30553329947337E-02
(PID.TID 0000.0001)  cg2d: iter=    27 ; resid.=  5.65689060913545E-02
(PID.TID 0000.0001)  cg2d: iter=    28 ; resid.=  4.57054254733742E-02
(PID.TID 0000.0001)  cg2d: iter=    29 ; resid.=  3.42840853637381E-02
(PID.TID 0000.0001)  cg2d: iter=    30 ; resid.=  2.80967130082530E-02
(PID.TID 0000.0001)  cg2d: iter=    31 ; resid.=  2.18649236769529E-02
(PID.TID 0000.0001)  cg2d: iter=    32 ; resid.=  1.78743570812263E-02
(PID.TID 0000.0001)  cg2d: iter=    33 ; resid.=  1.45571623262647E-02
(PID.TID 0000.0001)  cg2d: iter=    34 ; resid.=  1.22929549245695E-02
(PID.TID 0000.0001)  cg2d: iter=    35 ; resid.=  9.79495093348333E-03
(PID.TID 0000.0001)  cg2d: iter=    36 ; resid.=  7.71881812460282E-03
(PID.TID 0000.0001)  cg2d: iter=    37 ; resid.=  6.19268280999612E-03
(PID.TID 0000.0001)  cg2d: iter=    38 ; resid.=  4.59932240010166E-03
(PID.TID 0000.0001)  cg2d: iter=    39 ; resid.=  3.76348018107270E-03
(PID.TID 0000.0001)  cg2d: iter=    40 ; resid.=  3.19129883840691E-03
(PID.TID 0000.0001)  cg2d: iter=    41 ; resid.=  2.67292119385992E-03
(PID.TID 0000.0001)  cg2d: iter=    42 ; resid.=  2.14310382591993E-03
(PID.TID 0000.0001)  cg2d: iter=    43 ; resid.=  1.45954265476294E-03
(PID.TID 0000.0001)  cg2d: iter=    44 ; resid.=  1.05419479556926E-03
(PID.TID 0000.0001)  cg2d: iter=    45 ; resid.=  8.93866696521727E-04
(PID.TID 0000.0001)  cg2d: iter=    46 ; resid.=  7.70960413310992E-04
(PID.TID 0000.0001)  cg2d: iter=    47 ; resid.=  5.74692391768289E-04
(PID.TID 0000.0001)  cg2d: iter=    48 ; resid.=  4.43202940384611E-04
(PID.TID 0000.0001)  cg2d: iter=    49 ; resid.=  3.43987753685929E-04
(PID.TID 0000.0001)  cg2d: iter=    50 ; resid.=  3.00055093530682E-04
(PID.TID 0000.0001)  cg2d: iter=    51 ; resid.=  2.54038287959781E-04
(PID.TID 0000.0001)  cg2d: iter=    52 ; resid.=  2.25442063107327E-04
(PID.TID 0000.0001)  cg2d: iter=    53 ; resid.=  1.97055690127303E-04
(PID.TID 0000.0001)  cg2d: iter=    54 ; resid.=  1.62395707854647E-04
(PID.TID 0000.0001)  cg2d: iter=    55 ; resid.=  1.33743527707308E-04
(PID.TID 0000.0001)  cg2d: iter=    56 ; resid.=  1.10242780559656E-04
(PID.TID 0000.0001)  cg2d: iter=    57 ; resid.=  1.00042033125143E-04
(PID.TID 0000.0001)  cg2d: iter=    58 ; resid.=  8.42271493314226E-05
(PID.TID 0000.0001)  cg2d: iter=    59 ; resid.=  7.01787447174698E-05
(PID.TID 0000.0001)  cg2d: iter=    60 ; resid.=  6.05795995203455E-05
(PID.TID 0000.0001)  cg2d: iter=    61 ; resid.=  4.81324007108367E-05
(PID.TID 0000.0001)  cg2d: iter=    62 ; resid.=  3.76669309924718E-05
(PID.TID 0000.0001)  cg2d: iter=    63 ; resid.=  2.80829814577614E-05
(PID.TID 0000.0001)  cg2d: iter=    64 ; resid.=  2.36905262851809E-05
(PID.TID 0000.0001)  cg2d: iter=    65 ; resid.=  2.25340929453248E-05
(PID.TID 0000.0001)  cg2d: iter=    66 ; resid.=  1.95031470665895E-05
(PID.TID 0000.0001)  cg2d: iter=    67 ; resid.=  1.67257295090925E-05
(PID.TID 0000.0001)  cg2d: iter=    68 ; resid.=  1.27131178476194E-05
(PID.TID 0000.0001)  cg2d: iter=    69 ; resid.=  9.44250595561688E-06
(PID.TID 0000.0001)  cg2d: iter=    70 ; resid.=  7.30206883042163E-06
(PID.TID 0000.0001)  cg2d: iter=    71 ; resid.=  5.61826233740006E-06
(PID.TID 0000.0001)  cg2d: iter=    72 ; resid.=  4.49202508721809E-06
(PID.TID 0000.0001)  cg2d: iter=    73 ; resid.=  3.93152506586011E-06
(PID.TID 0000.0001)  cg2d: iter=    74 ; resid.=  3.05611938400464E-06
(PID.TID 0000.0001)  cg2d: iter=    75 ; resid.=  2.37024799309216E-06
(PID.TID 0000.0001)  cg2d: iter=    76 ; resid.=  1.84014943042527E-06
(PID.TID 0000.0001)  cg2d: iter=    77 ; resid.=  1.65286777050984E-06
(PID.TID 0000.0001)  cg2d: iter=    78 ; resid.=  1.28503198014435E-06
(PID.TID 0000.0001)  cg2d: iter=    79 ; resid.=  1.07149377260406E-06
(PID.TID 0000.0001)  cg2d: iter=    80 ; resid.=  7.95048195968693E-07
(PID.TID 0000.0001)  cg2d: iter=    81 ; resid.=  6.09915697041752E-07
(PID.TID 0000.0001)  cg2d: iter=    82 ; resid.=  4.55513707259821E-07
(PID.TID 0000.0001)  cg2d: iter=    83 ; resid.=  3.49975296348199E-07
(PID.TID 0000.0001)  cg2d: iter=    84 ; resid.=  2.96057938012654E-07
(PID.TID 0000.0001)  cg2d: iter=    85 ; resid.=  2.45649635964108E-07
(PID.TID 0000.0001)  cg2d: iter=    86 ; resid.=  2.09691301435588E-07
(PID.TID 0000.0001)  cg2d: iter=    87 ; resid.=  1.75106588547746E-07
(PID.TID 0000.0001)  cg2d: iter=    88 ; resid.=  1.61502299040640E-07
(PID.TID 0000.0001)  cg2d: iter=    89 ; resid.=  1.47418113821216E-07
(PID.TID 0000.0001)  cg2d: iter=    90 ; resid.=  1.20013123864228E-07
(PID.TID 0000.0001)  cg2d: iter=    91 ; resid.=  1.06700818485452E-07
(PID.TID 0000.0001)  cg2d: iter=    92 ; resid.=  9.03048432262033E-08
(PID.TID 0000.0001)  cg2d: iter=    93 ; resid.=  7.38627414873393E-08
(PID.TID 0000.0001)  cg2d: iter=    94 ; resid.=  5.27877624133360E-08
(PID.TID 0000.0001)  cg2d: iter=    95 ; resid.=  3.95990084752410E-08
(PID.TID 0000.0001)  cg2d: iter=    96 ; resid.=  3.11614255166370E-08
(PID.TID 0000.0001)  cg2d: iter=    97 ; resid.=  2.39656124451813E-08
(PID.TID 0000.0001)  cg2d: iter=    98 ; resid.=  1.89940179127463E-08
(PID.TID 0000.0001)  cg2d: iter=    99 ; resid.=  1.51714672483551E-08
(PID.TID 0000.0001)  cg2d: iter=   100 ; resid.=  1.15748591574613E-08
(PID.TID 0000.0001)  cg2d: iter=   101 ; resid.=  7.97594557135902E-09
(PID.TID 0000.0001)  cg2d: iter=   102 ; resid.=  5.83455025991761E-09
(PID.TID 0000.0001)  cg2d: iter=   103 ; resid.=  4.40583337081135E-09
(PID.TID 0000.0001)  cg2d: iter=   104 ; resid.=  3.54104048662078E-09
(PID.TID 0000.0001)  cg2d: iter=   105 ; resid.=  2.88429481546338E-09
(PID.TID 0000.0001)  cg2d: iter=   106 ; resid.=  2.40683593201473E-09
(PID.TID 0000.0001)  cg2d: iter=   107 ; resid.=  1.79418008039820E-09
(PID.TID 0000.0001)  cg2d: iter=   108 ; resid.=  1.34244026505098E-09
(PID.TID 0000.0001)  cg2d: iter=   109 ; resid.=  1.04701517583030E-09
(PID.TID 0000.0001)  cg2d: iter=   110 ; resid.=  8.06653417898084E-10
(PID.TID 0000.0001)  cg2d: iter=   111 ; resid.=  6.38674615545286E-10
(PID.TID 0000.0001)  cg2d: iter=   112 ; resid.=  4.62051274429398E-10
(PID.TID 0000.0001)  cg2d: iter=   113 ; resid.=  3.50762382223690E-10
(PID.TID 0000.0001)  cg2d: iter=   114 ; resid.=  3.23117657238109E-10
(PID.TID 0000.0001)  cg2d: iter=   115 ; resid.=  2.53658284513287E-10
(PID.TID 0000.0001)  cg2d: iter=   116 ; resid.=  2.06707122090590E-10
(PID.TID 0000.0001)  cg2d: iter=   117 ; resid.=  1.82572667831952E-10
(PID.TID 0000.0001)  cg2d: iter=   118 ; resid.=  1.59379795804310E-10
(PID.TID 0000.0001)  cg2d: iter=   119 ; resid.=  1.39979017636508E-10
(PID.TID 0000.0001)  cg2d: iter=   120 ; resid.=  1.20755897927009E-10
(PID.TID 0000.0001)  cg2d: iter=   121 ; resid.=  9.48395814397890E-11
(PID.TID 0000.0001)  cg2d: iter=   122 ; resid.=  7.22599470934175E-11
(PID.TID 0000.0001)  cg2d: iter=   123 ; resid.=  5.28550397518107E-11
(PID.TID 0000.0001)  cg2d: iter=   124 ; resid.=  4.11688577258530E-11
(PID.TID 0000.0001)  cg2d: iter=   125 ; resid.=  3.18753732186755E-11
(PID.TID 0000.0001)  cg2d: iter=   126 ; resid.=  2.35008757702192E-11
(PID.TID 0000.0001)  cg2d: iter=   127 ; resid.=  1.62085531421186E-11
(PID.TID 0000.0001)  cg2d: iter=   128 ; resid.=  1.21342904407151E-11
(PID.TID 0000.0001)  cg2d: iter=   129 ; resid.=  9.50652426968341E-12
(PID.TID 0000.0001)  cg2d: iter=   130 ; resid.=  7.99730906320583E-12
(PID.TID 0000.0001)  cg2d: iter=   131 ; resid.=  6.78293848016979E-12
(PID.TID 0000.0001)  cg2d: iter=   132 ; resid.=  5.18166461400894E-12
(PID.TID 0000.0001)  cg2d: iter=   133 ; resid.=  3.90764558434888E-12
(PID.TID 0000.0001)  cg2d: iter=   134 ; resid.=  2.80047027114834E-12
(PID.TID 0000.0001)  cg2d: iter=   135 ; resid.=  2.02339143227989E-12
(PID.TID 0000.0001)  cg2d: iter=   136 ; resid.=  1.44096168712087E-12
(PID.TID 0000.0001)  cg2d: iter=   137 ; resid.=  1.07962131584001E-12
(PID.TID 0000.0001)  cg2d: iter=   138 ; resid.=  8.40411804873606E-13
(PID.TID 0000.0001)  cg2d: iter=   139 ; resid.=  7.27314281053670E-13
(PID.TID 0000.0001)  cg2d: iter=   140 ; resid.=  4.98600610142742E-13
(PID.TID 0000.0001)  cg2d: iter=   141 ; resid.=  3.28925739924711E-13
(PID.TID 0000.0001)  cg2d: iter=   142 ; resid.=  2.08252602551400E-13
(PID.TID 0000.0001)  cg2d: iter=   143 ; resid.=  1.52438431320391E-13
(PID.TID 0000.0001)  cg2d: iter=   144 ; resid.=  1.10271949373818E-13
(PID.TID 0000.0001)  cg2d: iter=   145 ; resid.=  8.13801873395180E-14
DEBUG_STATS_RL:    cg2d_x (SOLVE_FOR_PRESSURE)  min= -2.94082580797669E+01
DEBUG_STATS_RL:    cg2d_x (SOLVE_FOR_PRESSURE)  max=  3.49731440641606E+01
DEBUG_STATS_RL:    cg2d_x (SOLVE_FOR_PRESSURE) mean= -8.55138470900701E-01
DEBUG_STATS_RL:    cg2d_x (SOLVE_FOR_PRESSURE) S.D.=  1.41277348695672E+01
(PID.TID 0000.0001)      cg2d_init_res =   2.84571776795560E+00
(PID.TID 0000.0001)      cg2d_iters(min,last) =      -1     145
(PID.TID 0000.0001)      cg2d_last_res =   8.13801873395180E-14
(PID.TID 0000.0001) // =======================================================
(PID.TID 0000.0001) // Begin MONITOR dynamic field statistics
(PID.TID 0000.0001) // =======================================================
(PID.TID 0000.0001) %MON time_tsnumber                =                     4
(PID.TID 0000.0001) %MON time_secondsf                =   3.4560000000000E+05
(PID.TID 0000.0001) %MON dynstat_eta_max              =   3.5650503633191E+00
(PID.TID 0000.0001) %MON dynstat_eta_min              =  -2.9977836982433E+00
(PID.TID 0000.0001) %MON dynstat_eta_mean             =  -2.6414035451974E-04
(PID.TID 0000.0001) %MON dynstat_eta_sd               =   1.3050404191134E+00
(PID.TID 0000.0001) %MON dynstat_eta_del2             =   3.5460691890087E-03
(PID.TID 0000.0001) %MON dynstat_uvel_max             =   2.9641092776008E-01
(PID.TID 0000.0001) %MON dynstat_uvel_min             =  -1.0095080899630E-01
(PID.TID 0000.0001) %MON dynstat_uvel_mean            =   5.3343500200019E-03
(PID.TID 0000.0001) %MON dynstat_uvel_sd              =   1.6647840160835E-02
(PID.TID 0000.0001) %MON dynstat_uvel_del2            =   8.2181045641314E-05
(PID.TID 0000.0001) %MON dynstat_vvel_max             =   2.5730839487610E-01
(PID.TID 0000.0001) %MON dynstat_vvel_min             =  -1.1988388375715E-01
(PID.TID 0000.0001) %MON dynstat_vvel_mean            =  -6.1807050912520E-03
(PID.TID 0000.0001) %MON dynstat_vvel_sd              =   1.3522677754360E-02
(PID.TID 0000.0001) %MON dynstat_vvel_del2            =   9.6851000625657E-05
(PID.TID 0000.0001) %MON dynstat_wvel_max             =   4.1501100290198E-04
(PID.TID 0000.0001) %MON dynstat_wvel_min             =  -3.0452381474296E-04
(PID.TID 0000.0001) %MON dynstat_wvel_mean            =  -5.2131038329106E-22
(PID.TID 0000.0001) %MON dynstat_wvel_sd              =   2.7720601266951E-05
(PID.TID 0000.0001) %MON dynstat_wvel_del2            =   3.4840885476998E-07
(PID.TID 0000.0001) %MON dynstat_theta_max            =   2.9783986032342E+01
(PID.TID 0000.0001) %MON dynstat_theta_min            =  -1.9265789967583E+00
(PID.TID 0000.0001) %MON dynstat_theta_mean           =   3.6483974878750E+00
(PID.TID 0000.0001) %MON dynstat_theta_sd             =   4.4139208556024E+00
(PID.TID 0000.0001) %MON dynstat_theta_del2           =   5.5003190259579E-03
(PID.TID 0000.0001) %MON dynstat_salt_max             =   3.7474550938191E+01
(PID.TID 0000.0001) %MON dynstat_salt_min             =   2.9786823019562E+01
(PID.TID 0000.0001) %MON dynstat_salt_mean            =   3.4747993724035E+01
(PID.TID 0000.0001) %MON dynstat_salt_sd              =   2.9599808301222E-01
(PID.TID 0000.0001) %MON dynstat_salt_del2            =   1.0151538678585E-03
(PID.TID 0000.0001) %MON dynstat_sst_max              =   2.9783986032342E+01
(PID.TID 0000.0001) %MON dynstat_sst_min              =  -1.8985782245105E+00
(PID.TID 0000.0001) %MON dynstat_sst_mean             =   1.8549934733342E+01
(PID.TID 0000.0001) %MON dynstat_sst_sd               =   9.1306162695972E+00
(PID.TID 0000.0001) %MON dynstat_sst_del2             =   2.6625789434775E-02
(PID.TID 0000.0001) %MON dynstat_sss_max              =   3.7474550938191E+01
(PID.TID 0000.0001) %MON dynstat_sss_min              =   2.9786823019562E+01
(PID.TID 0000.0001) %MON dynstat_sss_mean             =   3.4881274435311E+01
(PID.TID 0000.0001) %MON dynstat_sss_sd               =   9.6403808811740E-01
(PID.TID 0000.0001) %MON dynstat_sss_del2             =   7.9974346278718E-03
(PID.TID 0000.0001) %MON forcing_qnet_max             =   4.2903536987305E+02
(PID.TID 0000.0001) %MON forcing_qnet_min             =  -1.8562549743652E+02
(PID.TID 0000.0001) %MON forcing_qnet_mean            =  -1.6662669470921E+01
(PID.TID 0000.0001) %MON forcing_qnet_sd              =   1.1221272517031E+02
(PID.TID 0000.0001) %MON forcing_qnet_del2            =   9.9444386812388E-01
(PID.TID 0000.0001) %MON forcing_qsw_max              =   0.0000000000000E+00
(PID.TID 0000.0001) %MON forcing_qsw_min              =   0.0000000000000E+00
(PID.TID 0000.0001) %MON forcing_qsw_mean             =   0.0000000000000E+00
(PID.TID 0000.0001) %MON forcing_qsw_sd               =   0.0000000000000E+00
(PID.TID 0000.0001) %MON forcing_qsw_del2             =   0.0000000000000E+00
(PID.TID 0000.0001) %MON forcing_empmr_max            =   8.2476260843123E-05
(PID.TID 0000.0001) %MON forcing_empmr_min            =  -7.3379955267683E-05
(PID.TID 0000.0001) %MON forcing_empmr_mean           =   8.0569996916457E-07
(PID.TID 0000.0001) %MON forcing_empmr_sd             =   2.7920083767862E-05
(PID.TID 0000.0001) %MON forcing_empmr_del2           =   3.6296416696684E-07
(PID.TID 0000.0001) %MON forcing_fu_max               =   2.7231434583664E-01
(PID.TID 0000.0001) %MON forcing_fu_min               =  -1.6111952960491E-01
(PID.TID 0000.0001) %MON forcing_fu_mean              =   1.6094049005012E-02
(PID.TID 0000.0001) %MON forcing_fu_sd                =   9.0140377513934E-02
(PID.TID 0000.0001) %MON forcing_fu_del2              =   6.5893332094781E-04
(PID.TID 0000.0001) %MON forcing_fv_max               =   2.1056245863438E-01
(PID.TID 0000.0001) %MON forcing_fv_min               =  -1.8515278995037E-01
(PID.TID 0000.0001) %MON forcing_fv_mean              =  -6.1440480618347E-03
(PID.TID 0000.0001) %MON forcing_fv_sd                =   4.5513649503191E-02
(PID.TID 0000.0001) %MON forcing_fv_del2              =   4.4740184358134E-04
(PID.TID 0000.0001) %MON trAdv_CFL_u_max              =   6.1207636641218E-02
(PID.TID 0000.0001) %MON trAdv_CFL_v_max              =   5.2871313800618E-02
(PID.TID 0000.0001) %MON trAdv_CFL_w_max              =   1.3166996938228E-01
(PID.TID 0000.0001) %MON advcfl_uvel_max              =   6.6312746802039E-02
(PID.TID 0000.0001) %MON advcfl_vvel_max              =   4.9990894393911E-02
(PID.TID 0000.0001) %MON advcfl_wvel_max              =   1.1659345109919E-01
(PID.TID 0000.0001) %MON advcfl_W_hf_max              =   1.3205004436275E-01
(PID.TID 0000.0001) %MON pe_b_mean                    =   2.1793608414364E-03
(PID.TID 0000.0001) %MON ke_max                       =   4.8505700579465E-02
(PID.TID 0000.0001) %MON ke_mean                      =   2.3808666157279E-04
(PID.TID 0000.0001) %MON ke_vol                       =   1.3226782436723E+18
(PID.TID 0000.0001) %MON vort_r_min                   =  -7.8228050014895E-07
(PID.TID 0000.0001) %MON vort_r_max                   =   1.1028316088841E-06
(PID.TID 0000.0001) %MON vort_a_mean                  =  -2.5274808595014E-05
(PID.TID 0000.0001) %MON vort_a_sd                    =   7.3605231324915E-05
(PID.TID 0000.0001) %MON vort_p_mean                  =  -3.1845657308373E-05
(PID.TID 0000.0001) %MON vort_p_sd                    =   1.3162335239131E-04
(PID.TID 0000.0001) %MON surfExpan_theta_mean         =  -3.4834845786782E-05
(PID.TID 0000.0001) %MON surfExpan_salt_mean          =  -9.2078605363251E-07
(PID.TID 0000.0001) // =======================================================
(PID.TID 0000.0001) // End MONITOR dynamic field statistics
(PID.TID 0000.0001) // =======================================================
 EXTERNAL_FIELDS_LOAD,         4 : iP,iLd,i0,i1=   12    1   12    1 ; Wght=  0.3666666667  0.6333333333
 EXTERNAL_FIELDS_LOAD: (fu0,1),fu,fv= -4.5368E-02 -3.5633E-02 -3.9202E-02 -6.2020E-02
 EXTERNAL_FIELDS_LOAD: SST,SSS,Q,E-P=  2.9456E-01  3.4457E+01  2.6528E+02  1.1055E-05
DEBUG_STATS_RL:          Uvel (THERMODYNAMICS)  min= -1.00950808996301E-01
DEBUG_STATS_RL:          Uvel (THERMODYNAMICS)  max=  2.96410927760082E-01
DEBUG_STATS_RL:          Uvel (THERMODYNAMICS) mean=  8.89544607004749E-03
DEBUG_STATS_RL:          Uvel (THERMODYNAMICS) S.D.=  2.08263809459185E-02
DEBUG_STATS_RL:          Vvel (THERMODYNAMICS)  min= -1.19883883757152E-01
DEBUG_STATS_RL:          Vvel (THERMODYNAMICS)  max=  2.57308394876095E-01
DEBUG_STATS_RL:          Vvel (THERMODYNAMICS) mean= -7.08037338708216E-03
DEBUG_STATS_RL:          Vvel (THERMODYNAMICS) S.D.=  1.72367481386074E-02
DEBUG_STATS_RL:          Wvel (THERMODYNAMICS)  min= -3.04523814742958E-04
DEBUG_STATS_RL:          Wvel (THERMODYNAMICS)  max=  4.15011002901979E-04
DEBUG_STATS_RL:          Wvel (THERMODYNAMICS) mean=  7.11501260633746E-07
DEBUG_STATS_RL:          Wvel (THERMODYNAMICS) S.D.=  2.64778161239999E-05
DEBUG_STATS_RL:         Theta (THERMODYNAMICS)  min= -1.92106267915735E+00
DEBUG_STATS_RL:         Theta (THERMODYNAMICS)  max=  2.98741219424361E+01
DEBUG_STATS_RL:         Theta (THERMODYNAMICS) mean=  3.22918759379408E+00
DEBUG_STATS_RL:         Theta (THERMODYNAMICS) S.D.=  5.84895621599855E+00
DEBUG_STATS_RL:          Salt (THERMODYNAMICS)  min=  3.00000000000000E-02
DEBUG_STATS_RL:          Salt (THERMODYNAMICS)  max=  3.74698076566743E+01
DEBUG_STATS_RL:          Salt (THERMODYNAMICS) mean=  1.88752273037327E+01
DEBUG_STATS_RL:          Salt (THERMODYNAMICS) S.D.=  1.73006882734698E+01
DEBUG_STATS_RL:         GtNm1 (THERMODYNAMICS)  min= -8.37978345679949E-06
DEBUG_STATS_RL:         GtNm1 (THERMODYNAMICS)  max=  6.11561757516969E-06
DEBUG_STATS_RL:         GtNm1 (THERMODYNAMICS) mean=  4.36505985337632E-08
DEBUG_STATS_RL:         GtNm1 (THERMODYNAMICS) S.D.=  3.40264134054423E-07
DEBUG_STATS_RL:         GsNm1 (THERMODYNAMICS)  min= -7.74439614487009E-07
DEBUG_STATS_RL:         GsNm1 (THERMODYNAMICS)  max=  4.77269312289821E-07
DEBUG_STATS_RL:         GsNm1 (THERMODYNAMICS) mean=  1.69498444119457E-09
DEBUG_STATS_RL:         GsNm1 (THERMODYNAMICS) S.D.=  2.97861614581597E-08
DEBUG_STATS_RL:                EtaN (DYNAMICS)  min= -2.99778369824331E+00
DEBUG_STATS_RL:                EtaN (DYNAMICS)  max=  3.56505036331915E+00
DEBUG_STATS_RL:                EtaN (DYNAMICS) mean= -8.71700785831550E-02
DEBUG_STATS_RL:                EtaN (DYNAMICS) S.D.=  1.44013607233101E+00
DEBUG_STATS_RL:                Uvel (DYNAMICS)  min= -1.00950808996301E-01
DEBUG_STATS_RL:                Uvel (DYNAMICS)  max=  2.96410927760082E-01
DEBUG_STATS_RL:                Uvel (DYNAMICS) mean=  8.89544607004749E-03
DEBUG_STATS_RL:                Uvel (DYNAMICS) S.D.=  2.08263809459185E-02
DEBUG_STATS_RL:                Vvel (DYNAMICS)  min= -1.19883883757152E-01
DEBUG_STATS_RL:                Vvel (DYNAMICS)  max=  2.57308394876095E-01
DEBUG_STATS_RL:                Vvel (DYNAMICS) mean= -7.08037338708216E-03
DEBUG_STATS_RL:                Vvel (DYNAMICS) S.D.=  1.72367481386074E-02
DEBUG_STATS_RL:                Wvel (DYNAMICS)  min= -3.04523814742958E-04
DEBUG_STATS_RL:                Wvel (DYNAMICS)  max=  4.15011002901979E-04
DEBUG_STATS_RL:                Wvel (DYNAMICS) mean=  7.11501260633746E-07
DEBUG_STATS_RL:                Wvel (DYNAMICS) S.D.=  2.64778161239999E-05
DEBUG_STATS_RL:               Theta (DYNAMICS)  min= -1.92106267915735E+00
DEBUG_STATS_RL:               Theta (DYNAMICS)  max=  2.98741219424361E+01
DEBUG_STATS_RL:               Theta (DYNAMICS) mean=  3.22918759379408E+00
DEBUG_STATS_RL:               Theta (DYNAMICS) S.D.=  5.84895621599855E+00
DEBUG_STATS_RL:                Salt (DYNAMICS)  min=  3.00000000000000E-02
DEBUG_STATS_RL:                Salt (DYNAMICS)  max=  3.74698076566743E+01
DEBUG_STATS_RL:                Salt (DYNAMICS) mean=  1.88752273037327E+01
DEBUG_STATS_RL:                Salt (DYNAMICS) S.D.=  1.73006882734698E+01
DEBUG_STATS_RL:                  Gu (DYNAMICS)  min= -9.75902406165253E-02
DEBUG_STATS_RL:                  Gu (DYNAMICS)  max=  2.85360862837786E-01
DEBUG_STATS_RL:                  Gu (DYNAMICS) mean=  7.97563801865795E-03
DEBUG_STATS_RL:                  Gu (DYNAMICS) S.D.=  2.29122552243116E-02
DEBUG_STATS_RL:                  Gv (DYNAMICS)  min= -9.39736114073295E-02
DEBUG_STATS_RL:                  Gv (DYNAMICS)  max=  2.59475930401562E-01
DEBUG_STATS_RL:                  Gv (DYNAMICS) mean= -6.41227231734065E-03
DEBUG_STATS_RL:                  Gv (DYNAMICS) S.D.=  1.77896898820746E-02
DEBUG_STATS_RL:               GuNm1 (DYNAMICS)  min= -8.69983666605792E-06
DEBUG_STATS_RL:               GuNm1 (DYNAMICS)  max=  8.12856415484729E-06
DEBUG_STATS_RL:               GuNm1 (DYNAMICS) mean= -5.92511639679210E-08
DEBUG_STATS_RL:               GuNm1 (DYNAMICS) S.D.=  1.33683628094369E-06
DEBUG_STATS_RL:               GvNm1 (DYNAMICS)  min= -1.15000196699681E-05
DEBUG_STATS_RL:               GvNm1 (DYNAMICS)  max=  1.70583294105375E-05
DEBUG_STATS_RL:               GvNm1 (DYNAMICS) mean=  7.80150456288142E-07
DEBUG_STATS_RL:               GvNm1 (DYNAMICS) S.D.=  2.82825986239603E-06
DEBUG_STATS_RL:               GtNm1 (DYNAMICS)  min= -8.37978345679949E-06
DEBUG_STATS_RL:               GtNm1 (DYNAMICS)  max=  6.11561757516969E-06
DEBUG_STATS_RL:               GtNm1 (DYNAMICS) mean=  4.36505985337632E-08
DEBUG_STATS_RL:               GtNm1 (DYNAMICS) S.D.=  3.40264134054423E-07
DEBUG_STATS_RL:               GsNm1 (DYNAMICS)  min= -7.74439614487009E-07
DEBUG_STATS_RL:               GsNm1 (DYNAMICS)  max=  4.77269312289821E-07
DEBUG_STATS_RL:               GsNm1 (DYNAMICS) mean=  1.69498444119457E-09
DEBUG_STATS_RL:               GsNm1 (DYNAMICS) S.D.=  2.97861614581597E-08
DEBUG_STATS_RL:    cg2d_b (SOLVE_FOR_PRESSURE)  min= -2.91354196900501E+04
DEBUG_STATS_RL:    cg2d_b (SOLVE_FOR_PRESSURE)  max=  1.86891726655873E+04
DEBUG_STATS_RL:    cg2d_b (SOLVE_FOR_PRESSURE) mean=  3.18403286840637E-01
DEBUG_STATS_RL:    cg2d_b (SOLVE_FOR_PRESSURE) S.D.=  4.91577707703972E+03
 cg2d: Sum(rhs),rhsMax =   2.52992274309477E-02  1.91369237316429E+00
(PID.TID 0000.0001)  cg2d: iter=     1 ; resid.=  2.75964899491884E+00
(PID.TID 0000.0001)  cg2d: iter=     2 ; resid.=  3.72573081531419E+00
(PID.TID 0000.0001)  cg2d: iter=     3 ; resid.=  2.98627906998401E+00
(PID.TID 0000.0001)  cg2d: iter=     4 ; resid.=  2.37790312364576E+00
(PID.TID 0000.0001)  cg2d: iter=     5 ; resid.=  2.16639793728225E+00
(PID.TID 0000.0001)  cg2d: iter=     6 ; resid.=  1.61430495420967E+00
(PID.TID 0000.0001)  cg2d: iter=     7 ; resid.=  1.19473213281189E+00
(PID.TID 0000.0001)  cg2d: iter=     8 ; resid.=  1.05283326539452E+00
(PID.TID 0000.0001)  cg2d: iter=     9 ; resid.=  1.05407224572340E+00
(PID.TID 0000.0001)  cg2d: iter=    10 ; resid.=  8.93330605416762E-01
(PID.TID 0000.0001)  cg2d: iter=    11 ; resid.=  7.57434536247854E-01
(PID.TID 0000.0001)  cg2d: iter=    12 ; resid.=  6.39528999312237E-01
(PID.TID 0000.0001)  cg2d: iter=    13 ; resid.=  5.90632722441710E-01
(PID.TID 0000.0001)  cg2d: iter=    14 ; resid.=  5.38858245441456E-01
(PID.TID 0000.0001)  cg2d: iter=    15 ; resid.=  4.67324485513627E-01
(PID.TID 0000.0001)  cg2d: iter=    16 ; resid.=  4.05623089682986E-01
(PID.TID 0000.0001)  cg2d: iter=    17 ; resid.=  3.52099359875289E-01
(PID.TID 0000.0001)  cg2d: iter=    18 ; resid.=  2.76309507498836E-01
(PID.TID 0000.0001)  cg2d: iter=    19 ; resid.=  2.06451787396519E-01
(PID.TID 0000.0001)  cg2d: iter=    20 ; resid.=  1.65977127229010E-01
(PID.TID 0000.0001)  cg2d: iter=    21 ; resid.=  1.48343443571518E-01
(PID.TID 0000.0001)  cg2d: iter=    22 ; resid.=  1.32121864284720E-01
(PID.TID 0000.0001)  cg2d: iter=    23 ; resid.=  1.06054506941600E-01
(PID.TID 0000.0001)  cg2d: iter=    24 ; resid.=  8.81371759991322E-02
(PID.TID 0000.0001)  cg2d: iter=    25 ; resid.=  7.25629474176489E-02
(PID.TID 0000.0001)  cg2d: iter=    26 ; resid.=  6.06533368475975E-02
(PID.TID 0000.0001)  cg2d: iter=    27 ; resid.=  5.17925571962450E-02
(PID.TID 0000.0001)  cg2d: iter=    28 ; resid.=  4.07926375091768E-02
(PID.TID 0000.0001)  cg2d: iter=    29 ; resid.=  3.31026324917332E-02
(PID.TID 0000.0001)  cg2d: iter=    30 ; resid.=  2.72278158210999E-02
(PID.TID 0000.0001)  cg2d: iter=    31 ; resid.=  2.20208881448315E-02
(PID.TID 0000.0001)  cg2d: iter=    32 ; resid.=  1.69478281391067E-02
(PID.TID 0000.0001)  cg2d: iter=    33 ; resid.=  1.43475776449195E-02
(PID.TID 0000.0001)  cg2d: iter=    34 ; resid.=  1.19396815488806E-02
(PID.TID 0000.0001)  cg2d: iter=    35 ; resid.=  1.01942654210107E-02
(PID.TID 0000.0001)  cg2d: iter=    36 ; resid.=  8.59094357625611E-03
(PID.TID 0000.0001)  cg2d: iter=    37 ; resid.=  6.53479697134631E-03
(PID.TID 0000.0001)  cg2d: iter=    38 ; resid.=  4.53121234298315E-03
(PID.TID 0000.0001)  cg2d: iter=    39 ; resid.=  3.60670623564272E-03
(PID.TID 0000.0001)  cg2d: iter=    40 ; resid.=  3.04366896769161E-03
(PID.TID 0000.0001)  cg2d: iter=    41 ; resid.=  2.56154818627831E-03
(PID.TID 0000.0001)  cg2d: iter=    42 ; resid.=  2.27384462283880E-03
(PID.TID 0000.0001)  cg2d: iter=    43 ; resid.=  1.58815719974123E-03
(PID.TID 0000.0001)  cg2d: iter=    44 ; resid.=  1.18278853987270E-03
(PID.TID 0000.0001)  cg2d: iter=    45 ; resid.=  1.01646915613552E-03
(PID.TID 0000.0001)  cg2d: iter=    46 ; resid.=  7.93649472670928E-04
(PID.TID 0000.0001)  cg2d: iter=    47 ; resid.=  5.94320689177849E-04
(PID.TID 0000.0001)  cg2d: iter=    48 ; resid.=  4.97453153907987E-04
(PID.TID 0000.0001)  cg2d: iter=    49 ; resid.=  4.38745434476328E-04
(PID.TID 0000.0001)  cg2d: iter=    50 ; resid.=  4.13387633168437E-04
(PID.TID 0000.0001)  cg2d: iter=    51 ; resid.=  3.66071521226045E-04
(PID.TID 0000.0001)  cg2d: iter=    52 ; resid.=  3.02785190205832E-04
(PID.TID 0000.0001)  cg2d: iter=    53 ; resid.=  2.61846605729929E-04
(PID.TID 0000.0001)  cg2d: iter=    54 ; resid.=  2.12216801743395E-04
(PID.TID 0000.0001)  cg2d: iter=    55 ; resid.=  1.69770120160799E-04
(PID.TID 0000.0001)  cg2d: iter=    56 ; resid.=  1.38883886695467E-04
(PID.TID 0000.0001)  cg2d: iter=    57 ; resid.=  1.16127248625445E-04
(PID.TID 0000.0001)  cg2d: iter=    58 ; resid.=  9.18832281257872E-05
(PID.TID 0000.0001)  cg2d: iter=    59 ; resid.=  6.89224940222373E-05
(PID.TID 0000.0001)  cg2d: iter=    60 ; resid.=  5.36590429378410E-05
(PID.TID 0000.0001)  cg2d: iter=    61 ; resid.=  4.06841101550086E-05
(PID.TID 0000.0001)  cg2d: iter=    62 ; resid.=  3.30629682021717E-05
(PID.TID 0000.0001)  cg2d: iter=    63 ; resid.=  2.69293126566017E-05
(PID.TID 0000.0001)  cg2d: iter=    64 ; resid.=  2.25343990554748E-05
(PID.TID 0000.0001)  cg2d: iter=    65 ; resid.=  1.87121654903908E-05
(PID.TID 0000.0001)  cg2d: iter=    66 ; resid.=  1.47840765196291E-05
(PID.TID 0000.0001)  cg2d: iter=    67 ; resid.=  1.22940276492076E-05
(PID.TID 0000.0001)  cg2d: iter=    68 ; resid.=  1.05171730635331E-05
(PID.TID 0000.0001)  cg2d: iter=    69 ; resid.=  8.14691276672575E-06
(PID.TID 0000.0001)  cg2d: iter=    70 ; resid.=  6.55384986292857E-06
(PID.TID 0000.0001)  cg2d: iter=    71 ; resid.=  4.86029497950782E-06
(PID.TID 0000.0001)  cg2d: iter=    72 ; resid.=  3.57302671311693E-06
(PID.TID 0000.0001)  cg2d: iter=    73 ; resid.=  3.00187489115152E-06
(PID.TID 0000.0001)  cg2d: iter=    74 ; resid.=  2.35801966989207E-06
(PID.TID 0000.0001)  cg2d: iter=    75 ; resid.=  1.80898980987552E-06
(PID.TID 0000.0001)  cg2d: iter=    76 ; resid.=  1.48790599066000E-06
(PID.TID 0000.0001)  cg2d: iter=    77 ; resid.=  1.26472783753530E-06
(PID.TID 0000.0001)  cg2d: iter=    78 ; resid.=  1.00639324957315E-06
(PID.TID 0000.0001)  cg2d: iter=    79 ; resid.=  7.90466420907823E-07
(PID.TID 0000.0001)  cg2d: iter=    80 ; resid.=  6.08811390877335E-07
(PID.TID 0000.0001)  cg2d: iter=    81 ; resid.=  4.54066454856111E-07
(PID.TID 0000.0001)  cg2d: iter=    82 ; resid.=  3.37867948684597E-07
(PID.TID 0000.0001)  cg2d: iter=    83 ; resid.=  2.64621538552695E-07
(PID.TID 0000.0001)  cg2d: iter=    84 ; resid.=  2.17425963211682E-07
(PID.TID 0000.0001)  cg2d: iter=    85 ; resid.=  1.75621526444420E-07
(PID.TID 0000.0001)  cg2d: iter=    86 ; resid.=  1.40807181643351E-07
(PID.TID 0000.0001)  cg2d: iter=    87 ; resid.=  1.08922507943294E-07
(PID.TID 0000.0001)  cg2d: iter=    88 ; resid.=  9.69570458604103E-08
(PID.TID 0000.0001)  cg2d: iter=    89 ; resid.=  9.30289682747524E-08
(PID.TID 0000.0001)  cg2d: iter=    90 ; resid.=  7.93888647696695E-08
(PID.TID 0000.0001)  cg2d: iter=    91 ; resid.=  7.16297239446749E-08
(PID.TID 0000.0001)  cg2d: iter=    92 ; resid.=  6.32956804500290E-08
(PID.TID 0000.0001)  cg2d: iter=    93 ; resid.=  5.22584929434167E-08
(PID.TID 0000.0001)  cg2d: iter=    94 ; resid.=  3.71547598044137E-08
(PID.TID 0000.0001)  cg2d: iter=    95 ; resid.=  2.89814926675783E-08
(PID.TID 0000.0001)  cg2d: iter=    96 ; resid.=  2.52688915595116E-08
(PID.TID 0000.0001)  cg2d: iter=    97 ; resid.=  2.02474611981768E-08
(PID.TID 0000.0001)  cg2d: iter=    98 ; resid.=  1.64856355877772E-08
(PID.TID 0000.0001)  cg2d: iter=    99 ; resid.=  1.35713671005455E-08
(PID.TID 0000.0001)  cg2d: iter=   100 ; resid.=  1.10879830585322E-08
(PID.TID 0000.0001)  cg2d: iter=   101 ; resid.=  8.27295008646087E-09
(PID.TID 0000.0001)  cg2d: iter=   102 ; resid.=  6.83367228735788E-09
(PID.TID 0000.0001)  cg2d: iter=   103 ; resid.=  5.65234019024317E-09
(PID.TID 0000.0001)  cg2d: iter=   104 ; resid.=  5.08637209371798E-09
(PID.TID 0000.0001)  cg2d: iter=   105 ; resid.=  4.43707270110453E-09
(PID.TID 0000.0001)  cg2d: iter=   106 ; resid.=  3.89034938946869E-09
(PID.TID 0000.0001)  cg2d: iter=   107 ; resid.=  3.17416591377426E-09
(PID.TID 0000.0001)  cg2d: iter=   108 ; resid.=  2.39628732735706E-09
(PID.TID 0000.0001)  cg2d: iter=   109 ; resid.=  2.02966380211940E-09
(PID.TID 0000.0001)  cg2d: iter=   110 ; resid.=  1.57895925435172E-09
(PID.TID 0000.0001)  cg2d: iter=   111 ; resid.=  1.36351690964881E-09
(PID.TID 0000.0001)  cg2d: iter=   112 ; resid.=  1.04273171175340E-09
(PID.TID 0000.0001)  cg2d: iter=   113 ; resid.=  8.99045907928945E-10
(PID.TID 0000.0001)  cg2d: iter=   114 ; resid.=  7.63514994523054E-10
(PID.TID 0000.0001)  cg2d: iter=   115 ; resid.=  5.81832112333063E-10
(PID.TID 0000.0001)  cg2d: iter=   116 ; resid.=  4.04112862273212E-10
(PID.TID 0000.0001)  cg2d: iter=   117 ; resid.=  3.09934966384364E-10
(PID.TID 0000.0001)  cg2d: iter=   118 ; resid.=  2.35044624393891E-10
(PID.TID 0000.0001)  cg2d: iter=   119 ; resid.=  1.89785780893324E-10
(PID.TID 0000.0001)  cg2d: iter=   120 ; resid.=  1.44826131772667E-10
(PID.TID 0000.0001)  cg2d: iter=   121 ; resid.=  1.00821660987339E-10
(PID.TID 0000.0001)  cg2d: iter=   122 ; resid.=  7.41086762195945E-11
(PID.TID 0000.0001)  cg2d: iter=   123 ; resid.=  4.81741155923904E-11
(PID.TID 0000.0001)  cg2d: iter=   124 ; resid.=  3.35602473314109E-11
(PID.TID 0000.0001)  cg2d: iter=   125 ; resid.=  2.39713406388337E-11
(PID.TID 0000.0001)  cg2d: iter=   126 ; resid.=  1.75170217040874E-11
(PID.TID 0000.0001)  cg2d: iter=   127 ; resid.=  1.21581722428029E-11
(PID.TID 0000.0001)  cg2d: iter=   128 ; resid.=  9.43399106368244E-12
(PID.TID 0000.0001)  cg2d: iter=   129 ; resid.=  7.84112166301339E-12
(PID.TID 0000.0001)  cg2d: iter=   130 ; resid.=  6.00140911143573E-12
(PID.TID 0000.0001)  cg2d: iter=   131 ; resid.=  5.05891673241964E-12
(PID.TID 0000.0001)  cg2d: iter=   132 ; resid.=  3.96795264267856E-12
(PID.TID 0000.0001)  cg2d: iter=   133 ; resid.=  3.05929086642314E-12
(PID.TID 0000.0001)  cg2d: iter=   134 ; resid.=  2.35294526725010E-12
(PID.TID 0000.0001)  cg2d: iter=   135 ; resid.=  1.75762924494923E-12
(PID.TID 0000.0001)  cg2d: iter=   136 ; resid.=  1.27574893185264E-12
(PID.TID 0000.0001)  cg2d: iter=   137 ; resid.=  9.43080044882828E-13
(PID.TID 0000.0001)  cg2d: iter=   138 ; resid.=  7.02121351643093E-13
(PID.TID 0000.0001)  cg2d: iter=   139 ; resid.=  5.30193264482664E-13
(PID.TID 0000.0001)  cg2d: iter=   140 ; resid.=  3.63442372764148E-13
(PID.TID 0000.0001)  cg2d: iter=   141 ; resid.=  2.55667819916768E-13
(PID.TID 0000.0001)  cg2d: iter=   142 ; resid.=  1.81312629356495E-13
(PID.TID 0000.0001)  cg2d: iter=   143 ; resid.=  1.42383068669388E-13
(PID.TID 0000.0001)  cg2d: iter=   144 ; resid.=  1.05309144455865E-13
(PID.TID 0000.0001)  cg2d: iter=   145 ; resid.=  6.98300032740086E-14
DEBUG_STATS_RL:    cg2d_x (SOLVE_FOR_PRESSURE)  min= -2.67399603381383E+01
DEBUG_STATS_RL:    cg2d_x (SOLVE_FOR_PRESSURE)  max=  3.17407562691088E+01
DEBUG_STATS_RL:    cg2d_x (SOLVE_FOR_PRESSURE) mean=  2.12859089217455E-01
DEBUG_STATS_RL:    cg2d_x (SOLVE_FOR_PRESSURE) S.D.=  1.10377730684137E+01
(PID.TID 0000.0001)      cg2d_init_res =   2.53923593625475E+00
(PID.TID 0000.0001)      cg2d_iters(min,last) =      -1     145
(PID.TID 0000.0001)      cg2d_last_res =   6.98300032740086E-14
(PID.TID 0000.0001) // =======================================================
(PID.TID 0000.0001) // Begin MONITOR dynamic field statistics
(PID.TID 0000.0001) // =======================================================
(PID.TID 0000.0001) %MON time_tsnumber                =                     5
(PID.TID 0000.0001) %MON time_secondsf                =   4.3200000000000E+05
(PID.TID 0000.0001) %MON dynstat_eta_max              =   3.2355510977681E+00
(PID.TID 0000.0001) %MON dynstat_eta_min              =  -2.7257859671905E+00
(PID.TID 0000.0001) %MON dynstat_eta_mean             =  -3.3221434911405E-04
(PID.TID 0000.0001) %MON dynstat_eta_sd               =   1.0710004070932E+00
(PID.TID 0000.0001) %MON dynstat_eta_del2             =   3.4084061880927E-03
(PID.TID 0000.0001) %MON dynstat_uvel_max             =   2.6396191379549E-01
(PID.TID 0000.0001) %MON dynstat_uvel_min             =  -1.4437457849811E-01
(PID.TID 0000.0001) %MON dynstat_uvel_mean            =   5.9296202077317E-03
(PID.TID 0000.0001) %MON dynstat_uvel_sd              =   1.6799174139978E-02
(PID.TID 0000.0001) %MON dynstat_uvel_del2            =   8.7848352479629E-05
(PID.TID 0000.0001) %MON dynstat_vvel_max             =   2.3074430962585E-01
(PID.TID 0000.0001) %MON dynstat_vvel_min             =  -1.1878749122468E-01
(PID.TID 0000.0001) %MON dynstat_vvel_mean            =  -6.2625551616594E-03
(PID.TID 0000.0001) %MON dynstat_vvel_sd              =   1.3912127836198E-02
(PID.TID 0000.0001) %MON dynstat_vvel_del2            =   1.0767814839964E-04
(PID.TID 0000.0001) %MON dynstat_wvel_max             =   4.0712456609288E-04
(PID.TID 0000.0001) %MON dynstat_wvel_min             =  -2.6667590774530E-04
(PID.TID 0000.0001) %MON dynstat_wvel_mean            =  -6.4177510227401E-22
(PID.TID 0000.0001) %MON dynstat_wvel_sd              =   2.8778422737677E-05
(PID.TID 0000.0001) %MON dynstat_wvel_del2            =   3.6041470907356E-07
(PID.TID 0000.0001) %MON dynstat_theta_max            =   2.9874121942436E+01
(PID.TID 0000.0001) %MON dynstat_theta_min            =  -1.9210626791574E+00
(PID.TID 0000.0001) %MON dynstat_theta_mean           =   3.6494968121603E+00
(PID.TID 0000.0001) %MON dynstat_theta_sd             =   4.4163153790943E+00
(PID.TID 0000.0001) %MON dynstat_theta_del2           =   5.4350695652550E-03
(PID.TID 0000.0001) %MON dynstat_salt_max             =   3.7469807656674E+01
(PID.TID 0000.0001) %MON dynstat_salt_min             =   2.9801844238032E+01
(PID.TID 0000.0001) %MON dynstat_salt_mean            =   3.4748023896591E+01
(PID.TID 0000.0001) %MON dynstat_salt_sd              =   2.9612964569537E-01
(PID.TID 0000.0001) %MON dynstat_salt_del2            =   1.0141840223783E-03
(PID.TID 0000.0001) %MON dynstat_sst_max              =   2.9874121942436E+01
(PID.TID 0000.0001) %MON dynstat_sst_min              =  -1.9052977134675E+00
(PID.TID 0000.0001) %MON dynstat_sst_mean             =   1.8571695953948E+01
(PID.TID 0000.0001) %MON dynstat_sst_sd               =   9.1348642975871E+00
(PID.TID 0000.0001) %MON dynstat_sst_del2             =   2.6490241134984E-02
(PID.TID 0000.0001) %MON dynstat_sss_max              =   3.7469807656674E+01
(PID.TID 0000.0001) %MON dynstat_sss_min              =   2.9801844238032E+01
(PID.TID 0000.0001) %MON dynstat_sss_mean             =   3.4881780575785E+01
(PID.TID 0000.0001) %MON dynstat_sss_sd               =   9.6529980029337E-01
(PID.TID 0000.0001) %MON dynstat_sss_del2             =   8.0060691320564E-03
(PID.TID 0000.0001) %MON forcing_qnet_max             =   4.3008355712891E+02
(PID.TID 0000.0001) %MON forcing_qnet_min             =  -1.8515833485921E+02
(PID.TID 0000.0001) %MON forcing_qnet_mean            =  -1.6650157515098E+01
(PID.TID 0000.0001) %MON forcing_qnet_sd              =   1.1200321531664E+02
(PID.TID 0000.0001) %MON forcing_qnet_del2            =   9.9601163526981E-01
(PID.TID 0000.0001) %MON forcing_qsw_max              =   0.0000000000000E+00
(PID.TID 0000.0001) %MON forcing_qsw_min              =   0.0000000000000E+00
(PID.TID 0000.0001) %MON forcing_qsw_mean             =   0.0000000000000E+00
(PID.TID 0000.0001) %MON forcing_qsw_sd               =   0.0000000000000E+00
(PID.TID 0000.0001) %MON forcing_qsw_del2             =   0.0000000000000E+00
(PID.TID 0000.0001) %MON forcing_empmr_max            =   8.2220427088942E-05
(PID.TID 0000.0001) %MON forcing_empmr_min            =  -7.3116771659443E-05
(PID.TID 0000.0001) %MON forcing_empmr_mean           =   8.1546972691007E-07
(PID.TID 0000.0001) %MON forcing_empmr_sd             =   2.7970424919056E-05
(PID.TID 0000.0001) %MON forcing_empmr_del2           =   3.6272300962791E-07
(PID.TID 0000.0001) %MON forcing_fu_max               =   2.7145579755306E-01
(PID.TID 0000.0001) %MON forcing_fu_min               =  -1.6193294972181E-01
(PID.TID 0000.0001) %MON forcing_fu_mean              =   1.6086356183975E-02
(PID.TID 0000.0001) %MON forcing_fu_sd                =   9.0157845327697E-02
(PID.TID 0000.0001) %MON forcing_fu_del2              =   6.6174969745051E-04
(PID.TID 0000.0001) %MON forcing_fv_max               =   2.1244236379862E-01
(PID.TID 0000.0001) %MON forcing_fv_min               =  -1.8456813246012E-01
(PID.TID 0000.0001) %MON forcing_fv_mean              =  -6.0702855349739E-03
(PID.TID 0000.0001) %MON forcing_fv_sd                =   4.5662631572644E-02
(PID.TID 0000.0001) %MON forcing_fv_del2              =   4.4897783530480E-04
(PID.TID 0000.0001) %MON trAdv_CFL_u_max              =   6.6326215395191E-02
(PID.TID 0000.0001) %MON trAdv_CFL_v_max              =   5.0278281207294E-02
(PID.TID 0000.0001) %MON trAdv_CFL_w_max              =   1.2996241317465E-01
(PID.TID 0000.0001) %MON advcfl_uvel_max              =   7.0200372799423E-02
(PID.TID 0000.0001) %MON advcfl_vvel_max              =   4.4829918666496E-02
(PID.TID 0000.0001) %MON advcfl_wvel_max              =   1.0917096648276E-01
(PID.TID 0000.0001) %MON advcfl_W_hf_max              =   1.2353556733575E-01
(PID.TID 0000.0001) %MON pe_b_mean                    =   1.4677784726469E-03
(PID.TID 0000.0001) %MON ke_max                       =   3.5584128308239E-02
(PID.TID 0000.0001) %MON ke_mean                      =   2.4868646157049E-04
(PID.TID 0000.0001) %MON ke_vol                       =   1.3226782436723E+18
(PID.TID 0000.0001) %MON vort_r_min                   =  -7.2789301075823E-07
(PID.TID 0000.0001) %MON vort_r_max                   =   9.5070758454398E-07
(PID.TID 0000.0001) %MON vort_a_mean                  =  -2.5274808407888E-05
(PID.TID 0000.0001) %MON vort_a_sd                    =   7.3605424226646E-05
(PID.TID 0000.0001) %MON vort_p_mean                  =  -3.1845657072598E-05
(PID.TID 0000.0001) %MON vort_p_sd                    =   1.3162307919640E-04
(PID.TID 0000.0001) %MON surfExpan_theta_mean         =  -2.9469775327086E-05
(PID.TID 0000.0001) %MON surfExpan_salt_mean          =  -8.3702493694886E-07
(PID.TID 0000.0001) // =======================================================
(PID.TID 0000.0001) // End MONITOR dynamic field statistics
(PID.TID 0000.0001) // =======================================================
 EXTERNAL_FIELDS_LOAD,         5 : iP,iLd,i0,i1=   12    1   12    1 ; Wght=  0.3333333333  0.6666666667
 EXTERNAL_FIELDS_LOAD: (fu0,1),fu,fv= -4.5368E-02 -3.5633E-02 -3.8878E-02 -6.1587E-02
 EXTERNAL_FIELDS_LOAD: SST,SSS,Q,E-P=  3.5491E-01  3.4481E+01  2.6532E+02  1.1107E-05
DEBUG_STATS_RL:          Uvel (THERMODYNAMICS)  min= -1.44374578498109E-01
DEBUG_STATS_RL:          Uvel (THERMODYNAMICS)  max=  2.63961913795492E-01
DEBUG_STATS_RL:          Uvel (THERMODYNAMICS) mean=  9.45896388409445E-03
DEBUG_STATS_RL:          Uvel (THERMODYNAMICS) S.D.=  2.17177463153471E-02
DEBUG_STATS_RL:          Vvel (THERMODYNAMICS)  min= -1.18787491224676E-01
DEBUG_STATS_RL:          Vvel (THERMODYNAMICS)  max=  2.30744309625855E-01
DEBUG_STATS_RL:          Vvel (THERMODYNAMICS) mean= -7.37737411979383E-03
DEBUG_STATS_RL:          Vvel (THERMODYNAMICS) S.D.=  1.80315568473994E-02
DEBUG_STATS_RL:          Wvel (THERMODYNAMICS)  min= -2.66675907745301E-04
DEBUG_STATS_RL:          Wvel (THERMODYNAMICS)  max=  4.07124566092876E-04
DEBUG_STATS_RL:          Wvel (THERMODYNAMICS) mean=  3.80796747680664E-07
DEBUG_STATS_RL:          Wvel (THERMODYNAMICS) S.D.=  2.72322652981070E-05
DEBUG_STATS_RL:         Theta (THERMODYNAMICS)  min= -1.90963436411586E+00
DEBUG_STATS_RL:         Theta (THERMODYNAMICS)  max=  2.99311134013787E+01
DEBUG_STATS_RL:         Theta (THERMODYNAMICS) mean=  3.23086229630859E+00
DEBUG_STATS_RL:         Theta (THERMODYNAMICS) S.D.=  5.85171064966717E+00
DEBUG_STATS_RL:          Salt (THERMODYNAMICS)  min=  3.00000000000000E-02
DEBUG_STATS_RL:          Salt (THERMODYNAMICS)  max=  3.74663551585504E+01
DEBUG_STATS_RL:          Salt (THERMODYNAMICS) mean=  1.88752736554602E+01
DEBUG_STATS_RL:          Salt (THERMODYNAMICS) S.D.=  1.73007333757343E+01
DEBUG_STATS_RL:         GtNm1 (THERMODYNAMICS)  min= -7.98707055683127E-06
DEBUG_STATS_RL:         GtNm1 (THERMODYNAMICS)  max=  5.26191714567978E-06
DEBUG_STATS_RL:         GtNm1 (THERMODYNAMICS) mean=  3.94851844228632E-08
DEBUG_STATS_RL:         GtNm1 (THERMODYNAMICS) S.D.=  3.28275541977258E-07
DEBUG_STATS_RL:         GsNm1 (THERMODYNAMICS)  min= -1.13964208598099E-06
DEBUG_STATS_RL:         GsNm1 (THERMODYNAMICS)  max=  6.42388094865605E-07
DEBUG_STATS_RL:         GsNm1 (THERMODYNAMICS) mean=  1.23079770753273E-09
DEBUG_STATS_RL:         GsNm1 (THERMODYNAMICS) S.D.=  2.79075081322594E-08
DEBUG_STATS_RL:                EtaN (DYNAMICS)  min= -2.72578596719050E+00
DEBUG_STATS_RL:                EtaN (DYNAMICS)  max=  3.23555109776806E+00
DEBUG_STATS_RL:                EtaN (DYNAMICS) mean=  2.16981742321556E-02
DEBUG_STATS_RL:                EtaN (DYNAMICS) S.D.=  1.12515525671903E+00
DEBUG_STATS_RL:                Uvel (DYNAMICS)  min= -1.44374578498109E-01
DEBUG_STATS_RL:                Uvel (DYNAMICS)  max=  2.63961913795492E-01
DEBUG_STATS_RL:                Uvel (DYNAMICS) mean=  9.45896388409445E-03
DEBUG_STATS_RL:                Uvel (DYNAMICS) S.D.=  2.17177463153471E-02
DEBUG_STATS_RL:                Vvel (DYNAMICS)  min= -1.18787491224676E-01
DEBUG_STATS_RL:                Vvel (DYNAMICS)  max=  2.30744309625855E-01
DEBUG_STATS_RL:                Vvel (DYNAMICS) mean= -7.37737411979383E-03
DEBUG_STATS_RL:                Vvel (DYNAMICS) S.D.=  1.80315568473994E-02
DEBUG_STATS_RL:                Wvel (DYNAMICS)  min= -2.66675907745301E-04
DEBUG_STATS_RL:                Wvel (DYNAMICS)  max=  4.07124566092876E-04
DEBUG_STATS_RL:                Wvel (DYNAMICS) mean=  3.80796747680664E-07
DEBUG_STATS_RL:                Wvel (DYNAMICS) S.D.=  2.72322652981070E-05
DEBUG_STATS_RL:               Theta (DYNAMICS)  min= -1.90963436411586E+00
DEBUG_STATS_RL:               Theta (DYNAMICS)  max=  2.99311134013787E+01
DEBUG_STATS_RL:               Theta (DYNAMICS) mean=  3.23086229630859E+00
DEBUG_STATS_RL:               Theta (DYNAMICS) S.D.=  5.85171064966717E+00
DEBUG_STATS_RL:                Salt (DYNAMICS)  min=  3.00000000000000E-02
DEBUG_STATS_RL:                Salt (DYNAMICS)  max=  3.74663551585504E+01
DEBUG_STATS_RL:                Salt (DYNAMICS) mean=  1.88752736554602E+01
DEBUG_STATS_RL:                Salt (DYNAMICS) S.D.=  1.73007333757343E+01
DEBUG_STATS_RL:                  Gu (DYNAMICS)  min= -1.49427959190412E-01
DEBUG_STATS_RL:                  Gu (DYNAMICS)  max=  2.54326810913694E-01
DEBUG_STATS_RL:                  Gu (DYNAMICS) mean=  7.72114404889870E-03
DEBUG_STATS_RL:                  Gu (DYNAMICS) S.D.=  2.35128648921774E-02
DEBUG_STATS_RL:                  Gv (DYNAMICS)  min= -8.91133031761876E-02
DEBUG_STATS_RL:                  Gv (DYNAMICS)  max=  2.32756548435034E-01
DEBUG_STATS_RL:                  Gv (DYNAMICS) mean= -6.76596095538824E-03
DEBUG_STATS_RL:                  Gv (DYNAMICS) S.D.=  1.83599760122311E-02
DEBUG_STATS_RL:               GuNm1 (DYNAMICS)  min= -8.52593124000784E-06
DEBUG_STATS_RL:               GuNm1 (DYNAMICS)  max=  7.63172340428282E-06
DEBUG_STATS_RL:               GuNm1 (DYNAMICS) mean= -5.23369651275088E-08
DEBUG_STATS_RL:               GuNm1 (DYNAMICS) S.D.=  1.30231597796587E-06
DEBUG_STATS_RL:               GvNm1 (DYNAMICS)  min= -1.11412205146014E-05
DEBUG_STATS_RL:               GvNm1 (DYNAMICS)  max=  1.68004615606006E-05
DEBUG_STATS_RL:               GvNm1 (DYNAMICS) mean=  7.86583958335197E-07
DEBUG_STATS_RL:               GvNm1 (DYNAMICS) S.D.=  2.79057708412576E-06
DEBUG_STATS_RL:               GtNm1 (DYNAMICS)  min= -7.98707055683127E-06
DEBUG_STATS_RL:               GtNm1 (DYNAMICS)  max=  5.26191714567978E-06
DEBUG_STATS_RL:               GtNm1 (DYNAMICS) mean=  3.94851844228632E-08
DEBUG_STATS_RL:               GtNm1 (DYNAMICS) S.D.=  3.28275541977258E-07
DEBUG_STATS_RL:               GsNm1 (DYNAMICS)  min= -1.13964208598099E-06
DEBUG_STATS_RL:               GsNm1 (DYNAMICS)  max=  6.42388094865605E-07
DEBUG_STATS_RL:               GsNm1 (DYNAMICS) mean=  1.23079770753273E-09
DEBUG_STATS_RL:               GsNm1 (DYNAMICS) S.D.=  2.79075081322594E-08
DEBUG_STATS_RL:    cg2d_b (SOLVE_FOR_PRESSURE)  min= -2.92187775907034E+04
DEBUG_STATS_RL:    cg2d_b (SOLVE_FOR_PRESSURE)  max=  1.83561864535018E+04
DEBUG_STATS_RL:    cg2d_b (SOLVE_FOR_PRESSURE) mean=  3.84428915865627E-01
DEBUG_STATS_RL:    cg2d_b (SOLVE_FOR_PRESSURE) S.D.=  4.83742177608980E+03
 cg2d: Sum(rhs),rhsMax =   3.04582536851858E-02  1.91916754326378E+00
(PID.TID 0000.0001)  cg2d: iter=     1 ; resid.=  1.84463169098499E+00
(PID.TID 0000.0001)  cg2d: iter=     2 ; resid.=  2.09242762841559E+00
(PID.TID 0000.0001)  cg2d: iter=     3 ; resid.=  1.92166294884699E+00
(PID.TID 0000.0001)  cg2d: iter=     4 ; resid.=  1.52952953733066E+00
(PID.TID 0000.0001)  cg2d: iter=     5 ; resid.=  1.48883856209030E+00
(PID.TID 0000.0001)  cg2d: iter=     6 ; resid.=  1.20788521837206E+00
(PID.TID 0000.0001)  cg2d: iter=     7 ; resid.=  8.71412923347661E-01
(PID.TID 0000.0001)  cg2d: iter=     8 ; resid.=  6.47215801912010E-01
(PID.TID 0000.0001)  cg2d: iter=     9 ; resid.=  5.82618788477881E-01
(PID.TID 0000.0001)  cg2d: iter=    10 ; resid.=  5.58917938774618E-01
(PID.TID 0000.0001)  cg2d: iter=    11 ; resid.=  4.80484760644039E-01
(PID.TID 0000.0001)  cg2d: iter=    12 ; resid.=  4.09084963988859E-01
(PID.TID 0000.0001)  cg2d: iter=    13 ; resid.=  3.68816790271849E-01
(PID.TID 0000.0001)  cg2d: iter=    14 ; resid.=  3.16026047329114E-01
(PID.TID 0000.0001)  cg2d: iter=    15 ; resid.=  2.80052954862816E-01
(PID.TID 0000.0001)  cg2d: iter=    16 ; resid.=  2.59554425533441E-01
(PID.TID 0000.0001)  cg2d: iter=    17 ; resid.=  2.20980157949266E-01
(PID.TID 0000.0001)  cg2d: iter=    18 ; resid.=  1.86679257897042E-01
(PID.TID 0000.0001)  cg2d: iter=    19 ; resid.=  1.39491889848083E-01
(PID.TID 0000.0001)  cg2d: iter=    20 ; resid.=  1.08809552771216E-01
(PID.TID 0000.0001)  cg2d: iter=    21 ; resid.=  9.40885092208226E-02
(PID.TID 0000.0001)  cg2d: iter=    22 ; resid.=  8.14625846130210E-02
(PID.TID 0000.0001)  cg2d: iter=    23 ; resid.=  6.34612877911181E-02
(PID.TID 0000.0001)  cg2d: iter=    24 ; resid.=  5.72233569814452E-02
(PID.TID 0000.0001)  cg2d: iter=    25 ; resid.=  5.16999005647305E-02
(PID.TID 0000.0001)  cg2d: iter=    26 ; resid.=  4.21646535112393E-02
(PID.TID 0000.0001)  cg2d: iter=    27 ; resid.=  3.43717330560097E-02
(PID.TID 0000.0001)  cg2d: iter=    28 ; resid.=  2.81692462538489E-02
(PID.TID 0000.0001)  cg2d: iter=    29 ; resid.=  2.32260548474400E-02
(PID.TID 0000.0001)  cg2d: iter=    30 ; resid.=  1.93652451790273E-02
(PID.TID 0000.0001)  cg2d: iter=    31 ; resid.=  1.60213830417755E-02
(PID.TID 0000.0001)  cg2d: iter=    32 ; resid.=  1.22635928005120E-02
(PID.TID 0000.0001)  cg2d: iter=    33 ; resid.=  1.07678040813758E-02
(PID.TID 0000.0001)  cg2d: iter=    34 ; resid.=  9.47395640522798E-03
(PID.TID 0000.0001)  cg2d: iter=    35 ; resid.=  7.53317299511649E-03
(PID.TID 0000.0001)  cg2d: iter=    36 ; resid.=  6.92233320263344E-03
(PID.TID 0000.0001)  cg2d: iter=    37 ; resid.=  5.42220917141255E-03
(PID.TID 0000.0001)  cg2d: iter=    38 ; resid.=  3.95534199283055E-03
(PID.TID 0000.0001)  cg2d: iter=    39 ; resid.=  3.09035261919819E-03
(PID.TID 0000.0001)  cg2d: iter=    40 ; resid.=  2.64544232391616E-03
(PID.TID 0000.0001)  cg2d: iter=    41 ; resid.=  2.03231108966692E-03
(PID.TID 0000.0001)  cg2d: iter=    42 ; resid.=  1.87478760089046E-03
(PID.TID 0000.0001)  cg2d: iter=    43 ; resid.=  1.43644656537737E-03
(PID.TID 0000.0001)  cg2d: iter=    44 ; resid.=  1.22026928986470E-03
(PID.TID 0000.0001)  cg2d: iter=    45 ; resid.=  1.08460890699662E-03
(PID.TID 0000.0001)  cg2d: iter=    46 ; resid.=  8.51768543664214E-04
(PID.TID 0000.0001)  cg2d: iter=    47 ; resid.=  6.32350569959027E-04
(PID.TID 0000.0001)  cg2d: iter=    48 ; resid.=  5.44612411889947E-04
(PID.TID 0000.0001)  cg2d: iter=    49 ; resid.=  4.99177230483195E-04
(PID.TID 0000.0001)  cg2d: iter=    50 ; resid.=  4.33716882446485E-04
(PID.TID 0000.0001)  cg2d: iter=    51 ; resid.=  3.82051647980750E-04
(PID.TID 0000.0001)  cg2d: iter=    52 ; resid.=  3.24169097808789E-04
(PID.TID 0000.0001)  cg2d: iter=    53 ; resid.=  2.64873571560926E-04
(PID.TID 0000.0001)  cg2d: iter=    54 ; resid.=  2.03868643078691E-04
(PID.TID 0000.0001)  cg2d: iter=    55 ; resid.=  1.54909890811937E-04
(PID.TID 0000.0001)  cg2d: iter=    56 ; resid.=  1.19117789866303E-04
(PID.TID 0000.0001)  cg2d: iter=    57 ; resid.=  9.17661649913092E-05
(PID.TID 0000.0001)  cg2d: iter=    58 ; resid.=  7.46673288164351E-05
(PID.TID 0000.0001)  cg2d: iter=    59 ; resid.=  5.75287007126103E-05
(PID.TID 0000.0001)  cg2d: iter=    60 ; resid.=  4.17412092968696E-05
(PID.TID 0000.0001)  cg2d: iter=    61 ; resid.=  3.33418917823357E-05
(PID.TID 0000.0001)  cg2d: iter=    62 ; resid.=  2.54415893328789E-05
(PID.TID 0000.0001)  cg2d: iter=    63 ; resid.=  2.23455149588725E-05
(PID.TID 0000.0001)  cg2d: iter=    64 ; resid.=  1.98139320834971E-05
(PID.TID 0000.0001)  cg2d: iter=    65 ; resid.=  1.61695228184106E-05
(PID.TID 0000.0001)  cg2d: iter=    66 ; resid.=  1.26679103737943E-05
(PID.TID 0000.0001)  cg2d: iter=    67 ; resid.=  1.13152453484380E-05
(PID.TID 0000.0001)  cg2d: iter=    68 ; resid.=  9.57786737243016E-06
(PID.TID 0000.0001)  cg2d: iter=    69 ; resid.=  7.36661631721665E-06
(PID.TID 0000.0001)  cg2d: iter=    70 ; resid.=  6.35962480513911E-06
(PID.TID 0000.0001)  cg2d: iter=    71 ; resid.=  5.32612009967321E-06
(PID.TID 0000.0001)  cg2d: iter=    72 ; resid.=  4.28066403698343E-06
(PID.TID 0000.0001)  cg2d: iter=    73 ; resid.=  3.65333654874811E-06
(PID.TID 0000.0001)  cg2d: iter=    74 ; resid.=  3.18925329773407E-06
(PID.TID 0000.0001)  cg2d: iter=    75 ; resid.=  2.56526738313227E-06
(PID.TID 0000.0001)  cg2d: iter=    76 ; resid.=  2.32192589345586E-06
(PID.TID 0000.0001)  cg2d: iter=    77 ; resid.=  1.94033000258828E-06
(PID.TID 0000.0001)  cg2d: iter=    78 ; resid.=  1.58480521761042E-06
(PID.TID 0000.0001)  cg2d: iter=    79 ; resid.=  1.31349088108262E-06
(PID.TID 0000.0001)  cg2d: iter=    80 ; resid.=  1.04957472801992E-06
(PID.TID 0000.0001)  cg2d: iter=    81 ; resid.=  8.56237450260542E-07
(PID.TID 0000.0001)  cg2d: iter=    82 ; resid.=  6.32362431876856E-07
(PID.TID 0000.0001)  cg2d: iter=    83 ; resid.=  5.68842578958603E-07
(PID.TID 0000.0001)  cg2d: iter=    84 ; resid.=  4.82417241643890E-07
(PID.TID 0000.0001)  cg2d: iter=    85 ; resid.=  4.07605110018090E-07
(PID.TID 0000.0001)  cg2d: iter=    86 ; resid.=  3.34551314627416E-07
(PID.TID 0000.0001)  cg2d: iter=    87 ; resid.=  2.57552914921439E-07
(PID.TID 0000.0001)  cg2d: iter=    88 ; resid.=  2.17923155220784E-07
(PID.TID 0000.0001)  cg2d: iter=    89 ; resid.=  1.88507925995417E-07
(PID.TID 0000.0001)  cg2d: iter=    90 ; resid.=  1.37901707536699E-07
(PID.TID 0000.0001)  cg2d: iter=    91 ; resid.=  1.01852150099698E-07
(PID.TID 0000.0001)  cg2d: iter=    92 ; resid.=  7.58086222188495E-08
(PID.TID 0000.0001)  cg2d: iter=    93 ; resid.=  5.61149383715987E-08
(PID.TID 0000.0001)  cg2d: iter=    94 ; resid.=  3.79132963989624E-08
(PID.TID 0000.0001)  cg2d: iter=    95 ; resid.=  2.92197858636566E-08
(PID.TID 0000.0001)  cg2d: iter=    96 ; resid.=  2.39943373578824E-08
(PID.TID 0000.0001)  cg2d: iter=    97 ; resid.=  1.87922894595644E-08
(PID.TID 0000.0001)  cg2d: iter=    98 ; resid.=  1.52922945235159E-08
(PID.TID 0000.0001)  cg2d: iter=    99 ; resid.=  1.34607263734536E-08
(PID.TID 0000.0001)  cg2d: iter=   100 ; resid.=  1.15721018930239E-08
(PID.TID 0000.0001)  cg2d: iter=   101 ; resid.=  9.22210876429860E-09
(PID.TID 0000.0001)  cg2d: iter=   102 ; resid.=  7.82044125241805E-09
(PID.TID 0000.0001)  cg2d: iter=   103 ; resid.=  6.20832477443558E-09
(PID.TID 0000.0001)  cg2d: iter=   104 ; resid.=  5.33714305252093E-09
(PID.TID 0000.0001)  cg2d: iter=   105 ; resid.=  4.50536003239572E-09
(PID.TID 0000.0001)  cg2d: iter=   106 ; resid.=  3.48916907935379E-09
(PID.TID 0000.0001)  cg2d: iter=   107 ; resid.=  2.82279474190693E-09
(PID.TID 0000.0001)  cg2d: iter=   108 ; resid.=  2.18314246475967E-09
(PID.TID 0000.0001)  cg2d: iter=   109 ; resid.=  1.76572708497356E-09
(PID.TID 0000.0001)  cg2d: iter=   110 ; resid.=  1.38118483976739E-09
(PID.TID 0000.0001)  cg2d: iter=   111 ; resid.=  1.08951666122625E-09
(PID.TID 0000.0001)  cg2d: iter=   112 ; resid.=  7.96600530264799E-10
(PID.TID 0000.0001)  cg2d: iter=   113 ; resid.=  6.48754425831401E-10
(PID.TID 0000.0001)  cg2d: iter=   114 ; resid.=  5.11958893699352E-10
(PID.TID 0000.0001)  cg2d: iter=   115 ; resid.=  4.08199344030162E-10
(PID.TID 0000.0001)  cg2d: iter=   116 ; resid.=  2.85846063935995E-10
(PID.TID 0000.0001)  cg2d: iter=   117 ; resid.=  2.07567770678898E-10
(PID.TID 0000.0001)  cg2d: iter=   118 ; resid.=  1.58082370657108E-10
(PID.TID 0000.0001)  cg2d: iter=   119 ; resid.=  1.19180160674074E-10
(PID.TID 0000.0001)  cg2d: iter=   120 ; resid.=  9.18071911411826E-11
(PID.TID 0000.0001)  cg2d: iter=   121 ; resid.=  6.66593439337004E-11
(PID.TID 0000.0001)  cg2d: iter=   122 ; resid.=  5.13580095852245E-11
(PID.TID 0000.0001)  cg2d: iter=   123 ; resid.=  3.64608026939881E-11
(PID.TID 0000.0001)  cg2d: iter=   124 ; resid.=  2.67927241314236E-11
(PID.TID 0000.0001)  cg2d: iter=   125 ; resid.=  1.87447704305753E-11
(PID.TID 0000.0001)  cg2d: iter=   126 ; resid.=  1.28188767542914E-11
(PID.TID 0000.0001)  cg2d: iter=   127 ; resid.=  8.25260468224404E-12
(PID.TID 0000.0001)  cg2d: iter=   128 ; resid.=  5.78760653540727E-12
(PID.TID 0000.0001)  cg2d: iter=   129 ; resid.=  4.49606535075061E-12
(PID.TID 0000.0001)  cg2d: iter=   130 ; resid.=  3.17808355115469E-12
(PID.TID 0000.0001)  cg2d: iter=   131 ; resid.=  2.50385950433931E-12
(PID.TID 0000.0001)  cg2d: iter=   132 ; resid.=  2.07104661291693E-12
(PID.TID 0000.0001)  cg2d: iter=   133 ; resid.=  1.85547556238579E-12
(PID.TID 0000.0001)  cg2d: iter=   134 ; resid.=  1.53674938145775E-12
(PID.TID 0000.0001)  cg2d: iter=   135 ; resid.=  1.12490352864625E-12
(PID.TID 0000.0001)  cg2d: iter=   136 ; resid.=  7.72148632186094E-13
(PID.TID 0000.0001)  cg2d: iter=   137 ; resid.=  5.28722283819583E-13
(PID.TID 0000.0001)  cg2d: iter=   138 ; resid.=  4.04370159973529E-13
(PID.TID 0000.0001)  cg2d: iter=   139 ; resid.=  2.86092251102389E-13
(PID.TID 0000.0001)  cg2d: iter=   140 ; resid.=  1.92982278928909E-13
(PID.TID 0000.0001)  cg2d: iter=   141 ; resid.=  1.42478268967098E-13
(PID.TID 0000.0001)  cg2d: iter=   142 ; resid.=  9.53968346717871E-14
DEBUG_STATS_RL:    cg2d_x (SOLVE_FOR_PRESSURE)  min= -2.18234723752457E+01
DEBUG_STATS_RL:    cg2d_x (SOLVE_FOR_PRESSURE)  max=  3.72862593824418E+01
DEBUG_STATS_RL:    cg2d_x (SOLVE_FOR_PRESSURE) mean=  5.96225973949355E-01
DEBUG_STATS_RL:    cg2d_x (SOLVE_FOR_PRESSURE) S.D.=  1.13326056167541E+01
(PID.TID 0000.0001)      cg2d_init_res =   1.77105432472608E+00
(PID.TID 0000.0001)      cg2d_iters(min,last) =      -1     142
(PID.TID 0000.0001)      cg2d_last_res =   9.53968346717871E-14
(PID.TID 0000.0001) // =======================================================
(PID.TID 0000.0001) // Begin MONITOR dynamic field statistics
(PID.TID 0000.0001) // =======================================================
(PID.TID 0000.0001) %MON time_tsnumber                =                     6
(PID.TID 0000.0001) %MON time_secondsf                =   5.1840000000000E+05
(PID.TID 0000.0001) %MON dynstat_eta_max              =   3.8008419350093E+00
(PID.TID 0000.0001) %MON dynstat_eta_min              =  -2.2246149210241E+00
(PID.TID 0000.0001) %MON dynstat_eta_mean             =  -4.0110390609396E-04
(PID.TID 0000.0001) %MON dynstat_eta_sd               =   1.1845926293933E+00
(PID.TID 0000.0001) %MON dynstat_eta_del2             =   3.3476490810719E-03
(PID.TID 0000.0001) %MON dynstat_uvel_max             =   2.2389330323277E-01
(PID.TID 0000.0001) %MON dynstat_uvel_min             =  -1.6611574737621E-01
(PID.TID 0000.0001) %MON dynstat_uvel_mean            =   6.8220272570632E-03
(PID.TID 0000.0001) %MON dynstat_uvel_sd              =   1.6138931800799E-02
(PID.TID 0000.0001) %MON dynstat_uvel_del2            =   9.3107387672793E-05
(PID.TID 0000.0001) %MON dynstat_vvel_max             =   1.9771858197449E-01
(PID.TID 0000.0001) %MON dynstat_vvel_min             =  -1.1368397745403E-01
(PID.TID 0000.0001) %MON dynstat_vvel_mean            =  -4.5919375656175E-03
(PID.TID 0000.0001) %MON dynstat_vvel_sd              =   1.3994276902259E-02
(PID.TID 0000.0001) %MON dynstat_vvel_del2            =   1.1528338966737E-04
(PID.TID 0000.0001) %MON dynstat_wvel_max             =   3.6693961366769E-04
(PID.TID 0000.0001) %MON dynstat_wvel_min             =  -2.0798180318072E-04
(PID.TID 0000.0001) %MON dynstat_wvel_mean            =   3.6148590464040E-22
(PID.TID 0000.0001) %MON dynstat_wvel_sd              =   2.8660082340301E-05
(PID.TID 0000.0001) %MON dynstat_wvel_del2            =   3.6073773180719E-07
(PID.TID 0000.0001) %MON dynstat_theta_max            =   2.9931113401379E+01
(PID.TID 0000.0001) %MON dynstat_theta_min            =  -1.9096343641159E+00
(PID.TID 0000.0001) %MON dynstat_theta_mean           =   3.6501791966033E+00
(PID.TID 0000.0001) %MON dynstat_theta_sd             =   4.4178745685072E+00
(PID.TID 0000.0001) %MON dynstat_theta_del2           =   5.3668447588897E-03
(PID.TID 0000.0001) %MON dynstat_salt_max             =   3.7466355158550E+01
(PID.TID 0000.0001) %MON dynstat_salt_min             =   2.9817110604868E+01
(PID.TID 0000.0001) %MON dynstat_salt_mean            =   3.4748042525070E+01
(PID.TID 0000.0001) %MON dynstat_salt_sd              =   2.9620842975408E-01
(PID.TID 0000.0001) %MON dynstat_salt_del2            =   1.0133203660348E-03
(PID.TID 0000.0001) %MON dynstat_sst_max              =   2.9931113401379E+01
(PID.TID 0000.0001) %MON dynstat_sst_min              =  -1.9096343641159E+00
(PID.TID 0000.0001) %MON dynstat_sst_mean             =   1.8588244230940E+01
(PID.TID 0000.0001) %MON dynstat_sst_sd               =   9.1337522965547E+00
(PID.TID 0000.0001) %MON dynstat_sst_del2             =   2.6402983518429E-02
(PID.TID 0000.0001) %MON dynstat_sss_max              =   3.7466355158550E+01
(PID.TID 0000.0001) %MON dynstat_sss_min              =   2.9817110604868E+01
(PID.TID 0000.0001) %MON dynstat_sss_mean             =   3.4882187406589E+01
(PID.TID 0000.0001) %MON dynstat_sss_sd               =   9.6590274047235E-01
(PID.TID 0000.0001) %MON dynstat_sss_del2             =   8.0124074727379E-03
(PID.TID 0000.0001) %MON forcing_qnet_max             =   4.3113174438477E+02
(PID.TID 0000.0001) %MON forcing_qnet_min             =  -1.8469117228190E+02
(PID.TID 0000.0001) %MON forcing_qnet_mean            =  -1.6637645559275E+01
(PID.TID 0000.0001) %MON forcing_qnet_sd              =   1.1179629855085E+02
(PID.TID 0000.0001) %MON forcing_qnet_del2            =   9.9775446314289E-01
(PID.TID 0000.0001) %MON forcing_qsw_max              =   0.0000000000000E+00
(PID.TID 0000.0001) %MON forcing_qsw_min              =   0.0000000000000E+00
(PID.TID 0000.0001) %MON forcing_qsw_mean             =   0.0000000000000E+00
(PID.TID 0000.0001) %MON forcing_qsw_sd               =   0.0000000000000E+00
(PID.TID 0000.0001) %MON forcing_qsw_del2             =   0.0000000000000E+00
(PID.TID 0000.0001) %MON forcing_empmr_max            =   8.1964593334760E-05
(PID.TID 0000.0001) %MON forcing_empmr_min            =  -7.2853588051203E-05
(PID.TID 0000.0001) %MON forcing_empmr_mean           =   8.2523948465558E-07
(PID.TID 0000.0001) %MON forcing_empmr_sd             =   2.8025041303087E-05
(PID.TID 0000.0001) %MON forcing_empmr_del2           =   3.6259598317743E-07
(PID.TID 0000.0001) %MON forcing_fu_max               =   2.7059724926949E-01
(PID.TID 0000.0001) %MON forcing_fu_min               =  -1.6274636983871E-01
(PID.TID 0000.0001) %MON forcing_fu_mean              =   1.6078663362938E-02
(PID.TID 0000.0001) %MON forcing_fu_sd                =   9.0186169351879E-02
(PID.TID 0000.0001) %MON forcing_fu_del2              =   6.6508467741693E-04
(PID.TID 0000.0001) %MON forcing_fv_max               =   2.1432226896286E-01
(PID.TID 0000.0001) %MON forcing_fv_min               =  -1.8398347496986E-01
(PID.TID 0000.0001) %MON forcing_fv_mean              =  -5.9965230081131E-03
(PID.TID 0000.0001) %MON forcing_fv_sd                =   4.5826577347902E-02
(PID.TID 0000.0001) %MON forcing_fv_del2              =   4.5109215240509E-04
(PID.TID 0000.0001) %MON trAdv_CFL_u_max              =   7.0214630997220E-02
(PID.TID 0000.0001) %MON trAdv_CFL_v_max              =   4.5087636149369E-02
(PID.TID 0000.0001) %MON trAdv_CFL_w_max              =   1.0858572335496E-01
(PID.TID 0000.0001) %MON advcfl_uvel_max              =   6.9621660437208E-02
(PID.TID 0000.0001) %MON advcfl_vvel_max              =   3.8413549452828E-02
(PID.TID 0000.0001) %MON advcfl_wvel_max              =   1.2064817145447E-01
(PID.TID 0000.0001) %MON advcfl_W_hf_max              =   1.2409508744103E-01
(PID.TID 0000.0001) %MON pe_b_mean                    =   1.7956401278303E-03
(PID.TID 0000.0001) %MON ke_max                       =   2.3148538857521E-02
(PID.TID 0000.0001) %MON ke_mean                      =   2.3686454333100E-04
(PID.TID 0000.0001) %MON ke_vol                       =   1.3226782436723E+18
(PID.TID 0000.0001) %MON vort_r_min                   =  -7.8227496511293E-07
(PID.TID 0000.0001) %MON vort_r_max                   =   8.0160154785259E-07
(PID.TID 0000.0001) %MON vort_a_mean                  =  -2.5274807880926E-05
(PID.TID 0000.0001) %MON vort_a_sd                    =   7.3605714308488E-05
(PID.TID 0000.0001) %MON vort_p_mean                  =  -3.1845656408639E-05
(PID.TID 0000.0001) %MON vort_p_sd                    =   1.3162312059651E-04
(PID.TID 0000.0001) %MON surfExpan_theta_mean         =  -1.2679421319374E-05
(PID.TID 0000.0001) %MON surfExpan_salt_mean          =  -3.4808075408239E-07
(PID.TID 0000.0001) // =======================================================
(PID.TID 0000.0001) // End MONITOR dynamic field statistics
(PID.TID 0000.0001) // =======================================================
 EXTERNAL_FIELDS_LOAD,         6 : iP,iLd,i0,i1=   12    1   12    1 ; Wght=  0.3000000000  0.7000000000
 EXTERNAL_FIELDS_LOAD: (fu0,1),fu,fv= -4.5368E-02 -3.5633E-02 -3.8553E-02 -6.1154E-02
 EXTERNAL_FIELDS_LOAD: SST,SSS,Q,E-P=  4.1526E-01  3.4504E+01  2.6537E+02  1.1160E-05
DEBUG_STATS_RL:          Uvel (THERMODYNAMICS)  min= -1.66115747376210E-01
DEBUG_STATS_RL:          Uvel (THERMODYNAMICS)  max=  2.23893303232767E-01
DEBUG_STATS_RL:          Uvel (THERMODYNAMICS) mean=  1.01589585854972E-02
DEBUG_STATS_RL:          Uvel (THERMODYNAMICS) S.D.=  2.19757118963814E-02
DEBUG_STATS_RL:          Vvel (THERMODYNAMICS)  min= -1.13683977454033E-01
DEBUG_STATS_RL:          Vvel (THERMODYNAMICS)  max=  1.97718581974492E-01
DEBUG_STATS_RL:          Vvel (THERMODYNAMICS) mean= -5.92774130497971E-03
DEBUG_STATS_RL:          Vvel (THERMODYNAMICS) S.D.=  1.84972514765509E-02
DEBUG_STATS_RL:          Wvel (THERMODYNAMICS)  min= -2.07981803180719E-04
DEBUG_STATS_RL:          Wvel (THERMODYNAMICS)  max=  3.66939613667693E-04
DEBUG_STATS_RL:          Wvel (THERMODYNAMICS) mean= -2.03481028382045E-07
DEBUG_STATS_RL:          Wvel (THERMODYNAMICS) S.D.=  2.69453974448750E-05
DEBUG_STATS_RL:         Theta (THERMODYNAMICS)  min= -1.91196460723485E+00
DEBUG_STATS_RL:         Theta (THERMODYNAMICS)  max=  2.99501956997532E+01
DEBUG_STATS_RL:         Theta (THERMODYNAMICS) mean=  3.23189938969462E+00
DEBUG_STATS_RL:         Theta (THERMODYNAMICS) S.D.=  5.85271455514074E+00
DEBUG_STATS_RL:          Salt (THERMODYNAMICS)  min=  3.00000000000000E-02
DEBUG_STATS_RL:          Salt (THERMODYNAMICS)  max=  3.74644784459484E+01
DEBUG_STATS_RL:          Salt (THERMODYNAMICS) mean=  1.88752777842069E+01
DEBUG_STATS_RL:          Salt (THERMODYNAMICS) S.D.=  1.73007384519515E+01
DEBUG_STATS_RL:         GtNm1 (THERMODYNAMICS)  min= -6.97867202246763E-06
DEBUG_STATS_RL:         GtNm1 (THERMODYNAMICS)  max=  3.95917415869751E-06
DEBUG_STATS_RL:         GtNm1 (THERMODYNAMICS) mean=  2.93098901175374E-08
DEBUG_STATS_RL:         GtNm1 (THERMODYNAMICS) S.D.=  3.00197035142194E-07
DEBUG_STATS_RL:         GsNm1 (THERMODYNAMICS)  min= -5.37512471686600E-07
DEBUG_STATS_RL:         GsNm1 (THERMODYNAMICS)  max=  3.09130622805669E-07
DEBUG_STATS_RL:         GsNm1 (THERMODYNAMICS) mean=  4.61415651295735E-10
DEBUG_STATS_RL:         GsNm1 (THERMODYNAMICS) S.D.=  2.43922921764811E-08
DEBUG_STATS_RL:                EtaN (DYNAMICS)  min= -2.22461492102407E+00
DEBUG_STATS_RL:                EtaN (DYNAMICS)  max=  3.80084193500935E+00
DEBUG_STATS_RL:                EtaN (DYNAMICS) mean=  6.07773673750599E-02
DEBUG_STATS_RL:                EtaN (DYNAMICS) S.D.=  1.15520954299227E+00
DEBUG_STATS_RL:                Uvel (DYNAMICS)  min= -1.66115747376210E-01
DEBUG_STATS_RL:                Uvel (DYNAMICS)  max=  2.23893303232767E-01
DEBUG_STATS_RL:                Uvel (DYNAMICS) mean=  1.01589585854972E-02
DEBUG_STATS_RL:                Uvel (DYNAMICS) S.D.=  2.19757118963814E-02
DEBUG_STATS_RL:                Vvel (DYNAMICS)  min= -1.13683977454033E-01
DEBUG_STATS_RL:                Vvel (DYNAMICS)  max=  1.97718581974492E-01
DEBUG_STATS_RL:                Vvel (DYNAMICS) mean= -5.92774130497971E-03
DEBUG_STATS_RL:                Vvel (DYNAMICS) S.D.=  1.84972514765509E-02
DEBUG_STATS_RL:                Wvel (DYNAMICS)  min= -2.07981803180719E-04
DEBUG_STATS_RL:                Wvel (DYNAMICS)  max=  3.66939613667693E-04
DEBUG_STATS_RL:                Wvel (DYNAMICS) mean= -2.03481028382045E-07
DEBUG_STATS_RL:                Wvel (DYNAMICS) S.D.=  2.69453974448750E-05
DEBUG_STATS_RL:               Theta (DYNAMICS)  min= -1.91196460723485E+00
DEBUG_STATS_RL:               Theta (DYNAMICS)  max=  2.99501956997532E+01
DEBUG_STATS_RL:               Theta (DYNAMICS) mean=  3.23189938969462E+00
DEBUG_STATS_RL:               Theta (DYNAMICS) S.D.=  5.85271455514074E+00
DEBUG_STATS_RL:                Salt (DYNAMICS)  min=  3.00000000000000E-02
DEBUG_STATS_RL:                Salt (DYNAMICS)  max=  3.74644784459484E+01
DEBUG_STATS_RL:                Salt (DYNAMICS) mean=  1.88752777842069E+01
DEBUG_STATS_RL:                Salt (DYNAMICS) S.D.=  1.73007384519515E+01
DEBUG_STATS_RL:                  Gu (DYNAMICS)  min= -1.69237219470537E-01
DEBUG_STATS_RL:                  Gu (DYNAMICS)  max=  2.15801267306442E-01
DEBUG_STATS_RL:                  Gu (DYNAMICS) mean=  7.64448064158996E-03
DEBUG_STATS_RL:                  Gu (DYNAMICS) S.D.=  2.35036443998727E-02
DEBUG_STATS_RL:                  Gv (DYNAMICS)  min= -9.78754141252486E-02
DEBUG_STATS_RL:                  Gv (DYNAMICS)  max=  1.99601734370189E-01
DEBUG_STATS_RL:                  Gv (DYNAMICS) mean= -5.38460003693587E-03
DEBUG_STATS_RL:                  Gv (DYNAMICS) S.D.=  1.85988327879112E-02
DEBUG_STATS_RL:               GuNm1 (DYNAMICS)  min= -8.21916158489728E-06
DEBUG_STATS_RL:               GuNm1 (DYNAMICS)  max=  7.60044604523817E-06
DEBUG_STATS_RL:               GuNm1 (DYNAMICS) mean= -4.78141770282327E-08
DEBUG_STATS_RL:               GuNm1 (DYNAMICS) S.D.=  1.26906658066600E-06
DEBUG_STATS_RL:               GvNm1 (DYNAMICS)  min= -1.07500511946766E-05
DEBUG_STATS_RL:               GvNm1 (DYNAMICS)  max=  1.65056642209637E-05
DEBUG_STATS_RL:               GvNm1 (DYNAMICS) mean=  7.88186512546642E-07
DEBUG_STATS_RL:               GvNm1 (DYNAMICS) S.D.=  2.75339000031452E-06
DEBUG_STATS_RL:               GtNm1 (DYNAMICS)  min= -6.97867202246763E-06
DEBUG_STATS_RL:               GtNm1 (DYNAMICS)  max=  3.95917415869751E-06
DEBUG_STATS_RL:               GtNm1 (DYNAMICS) mean=  2.93098901175374E-08
DEBUG_STATS_RL:               GtNm1 (DYNAMICS) S.D.=  3.00197035142194E-07
DEBUG_STATS_RL:               GsNm1 (DYNAMICS)  min= -5.37512471686600E-07
DEBUG_STATS_RL:               GsNm1 (DYNAMICS)  max=  3.09130622805669E-07
DEBUG_STATS_RL:               GsNm1 (DYNAMICS) mean=  4.61415651295735E-10
DEBUG_STATS_RL:               GsNm1 (DYNAMICS) S.D.=  2.43922921764811E-08
DEBUG_STATS_RL:    cg2d_b (SOLVE_FOR_PRESSURE)  min= -2.85283967625907E+04
DEBUG_STATS_RL:    cg2d_b (SOLVE_FOR_PRESSURE)  max=  1.85374346378016E+04
DEBUG_STATS_RL:    cg2d_b (SOLVE_FOR_PRESSURE) mean=  4.51236202109722E-01
DEBUG_STATS_RL:    cg2d_b (SOLVE_FOR_PRESSURE) S.D.=  4.68878043063223E+03
 cg2d: Sum(rhs),rhsMax =   3.66165619672808E-02  1.87382148202996E+00
(PID.TID 0000.0001)  cg2d: iter=     1 ; resid.=  1.28595430262725E+00
(PID.TID 0000.0001)  cg2d: iter=     2 ; resid.=  1.26471568482260E+00
(PID.TID 0000.0001)  cg2d: iter=     3 ; resid.=  1.24342696814455E+00
(PID.TID 0000.0001)  cg2d: iter=     4 ; resid.=  1.03049028906657E+00
(PID.TID 0000.0001)  cg2d: iter=     5 ; resid.=  9.67568096129349E-01
(PID.TID 0000.0001)  cg2d: iter=     6 ; resid.=  8.14446320150473E-01
(PID.TID 0000.0001)  cg2d: iter=     7 ; resid.=  5.92679992801969E-01
(PID.TID 0000.0001)  cg2d: iter=     8 ; resid.=  4.17631746322533E-01
(PID.TID 0000.0001)  cg2d: iter=     9 ; resid.=  3.37749017936896E-01
(PID.TID 0000.0001)  cg2d: iter=    10 ; resid.=  3.20966183730824E-01
(PID.TID 0000.0001)  cg2d: iter=    11 ; resid.=  2.91174369900375E-01
(PID.TID 0000.0001)  cg2d: iter=    12 ; resid.=  2.55782600754386E-01
(PID.TID 0000.0001)  cg2d: iter=    13 ; resid.=  2.19619722217662E-01
(PID.TID 0000.0001)  cg2d: iter=    14 ; resid.=  1.87917728566894E-01
(PID.TID 0000.0001)  cg2d: iter=    15 ; resid.=  1.60656194558086E-01
(PID.TID 0000.0001)  cg2d: iter=    16 ; resid.=  1.53351146254571E-01
(PID.TID 0000.0001)  cg2d: iter=    17 ; resid.=  1.26528251585668E-01
(PID.TID 0000.0001)  cg2d: iter=    18 ; resid.=  1.07850331999566E-01
(PID.TID 0000.0001)  cg2d: iter=    19 ; resid.=  8.24092043244829E-02
(PID.TID 0000.0001)  cg2d: iter=    20 ; resid.=  6.59260961097605E-02
(PID.TID 0000.0001)  cg2d: iter=    21 ; resid.=  5.22048515236688E-02
(PID.TID 0000.0001)  cg2d: iter=    22 ; resid.=  4.02024699242589E-02
(PID.TID 0000.0001)  cg2d: iter=    23 ; resid.=  2.75703686839415E-02
(PID.TID 0000.0001)  cg2d: iter=    24 ; resid.=  2.28153962282403E-02
(PID.TID 0000.0001)  cg2d: iter=    25 ; resid.=  1.99664126608376E-02
(PID.TID 0000.0001)  cg2d: iter=    26 ; resid.=  1.71416739546964E-02
(PID.TID 0000.0001)  cg2d: iter=    27 ; resid.=  1.41545912569626E-02
(PID.TID 0000.0001)  cg2d: iter=    28 ; resid.=  1.25218461404086E-02
(PID.TID 0000.0001)  cg2d: iter=    29 ; resid.=  1.10501322026759E-02
(PID.TID 0000.0001)  cg2d: iter=    30 ; resid.=  9.78849932763967E-03
(PID.TID 0000.0001)  cg2d: iter=    31 ; resid.=  8.17861455046819E-03
(PID.TID 0000.0001)  cg2d: iter=    32 ; resid.=  6.34964220456133E-03
(PID.TID 0000.0001)  cg2d: iter=    33 ; resid.=  5.56149576154204E-03
(PID.TID 0000.0001)  cg2d: iter=    34 ; resid.=  5.17903413973594E-03
(PID.TID 0000.0001)  cg2d: iter=    35 ; resid.=  4.04615392199114E-03
(PID.TID 0000.0001)  cg2d: iter=    36 ; resid.=  3.52484339046210E-03
(PID.TID 0000.0001)  cg2d: iter=    37 ; resid.=  3.10503850427337E-03
(PID.TID 0000.0001)  cg2d: iter=    38 ; resid.=  2.63494218746138E-03
(PID.TID 0000.0001)  cg2d: iter=    39 ; resid.=  2.14006276545157E-03
(PID.TID 0000.0001)  cg2d: iter=    40 ; resid.=  1.85461961212624E-03
(PID.TID 0000.0001)  cg2d: iter=    41 ; resid.=  1.40424582505451E-03
(PID.TID 0000.0001)  cg2d: iter=    42 ; resid.=  1.29258760140662E-03
(PID.TID 0000.0001)  cg2d: iter=    43 ; resid.=  1.03782610335905E-03
(PID.TID 0000.0001)  cg2d: iter=    44 ; resid.=  8.51082628519639E-04
(PID.TID 0000.0001)  cg2d: iter=    45 ; resid.=  6.86381503033194E-04
(PID.TID 0000.0001)  cg2d: iter=    46 ; resid.=  5.42986490389962E-04
(PID.TID 0000.0001)  cg2d: iter=    47 ; resid.=  4.16960698589527E-04
(PID.TID 0000.0001)  cg2d: iter=    48 ; resid.=  3.29832854423434E-04
(PID.TID 0000.0001)  cg2d: iter=    49 ; resid.=  2.84995788535498E-04
(PID.TID 0000.0001)  cg2d: iter=    50 ; resid.=  2.33037583960774E-04
(PID.TID 0000.0001)  cg2d: iter=    51 ; resid.=  2.22867720764917E-04
(PID.TID 0000.0001)  cg2d: iter=    52 ; resid.=  2.09932094208047E-04
(PID.TID 0000.0001)  cg2d: iter=    53 ; resid.=  1.77110218684420E-04
(PID.TID 0000.0001)  cg2d: iter=    54 ; resid.=  1.39156894510799E-04
(PID.TID 0000.0001)  cg2d: iter=    55 ; resid.=  1.10720409248225E-04
(PID.TID 0000.0001)  cg2d: iter=    56 ; resid.=  8.57238037273857E-05
(PID.TID 0000.0001)  cg2d: iter=    57 ; resid.=  6.57068060899391E-05
(PID.TID 0000.0001)  cg2d: iter=    58 ; resid.=  5.28009082506876E-05
(PID.TID 0000.0001)  cg2d: iter=    59 ; resid.=  4.22392510829978E-05
(PID.TID 0000.0001)  cg2d: iter=    60 ; resid.=  3.23803398258327E-05
(PID.TID 0000.0001)  cg2d: iter=    61 ; resid.=  2.78193601205770E-05
(PID.TID 0000.0001)  cg2d: iter=    62 ; resid.=  2.24209785931345E-05
(PID.TID 0000.0001)  cg2d: iter=    63 ; resid.=  2.09911043624666E-05
(PID.TID 0000.0001)  cg2d: iter=    64 ; resid.=  1.95348314355267E-05
(PID.TID 0000.0001)  cg2d: iter=    65 ; resid.=  1.60613937810871E-05
(PID.TID 0000.0001)  cg2d: iter=    66 ; resid.=  1.31221549282607E-05
(PID.TID 0000.0001)  cg2d: iter=    67 ; resid.=  1.13113133957617E-05
(PID.TID 0000.0001)  cg2d: iter=    68 ; resid.=  9.48608904565584E-06
(PID.TID 0000.0001)  cg2d: iter=    69 ; resid.=  7.36018241389610E-06
(PID.TID 0000.0001)  cg2d: iter=    70 ; resid.=  6.42871771307255E-06
(PID.TID 0000.0001)  cg2d: iter=    71 ; resid.=  5.43933531606974E-06
(PID.TID 0000.0001)  cg2d: iter=    72 ; resid.=  4.43200668773582E-06
(PID.TID 0000.0001)  cg2d: iter=    73 ; resid.=  3.42986499885415E-06
(PID.TID 0000.0001)  cg2d: iter=    74 ; resid.=  2.58350068284314E-06
(PID.TID 0000.0001)  cg2d: iter=    75 ; resid.=  1.93764623890228E-06
(PID.TID 0000.0001)  cg2d: iter=    76 ; resid.=  1.51554735629783E-06
(PID.TID 0000.0001)  cg2d: iter=    77 ; resid.=  1.21920708596924E-06
(PID.TID 0000.0001)  cg2d: iter=    78 ; resid.=  1.02526994382136E-06
(PID.TID 0000.0001)  cg2d: iter=    79 ; resid.=  8.42673473872327E-07
(PID.TID 0000.0001)  cg2d: iter=    80 ; resid.=  7.17336080126577E-07
(PID.TID 0000.0001)  cg2d: iter=    81 ; resid.=  5.71505230210495E-07
(PID.TID 0000.0001)  cg2d: iter=    82 ; resid.=  3.91059249473769E-07
(PID.TID 0000.0001)  cg2d: iter=    83 ; resid.=  3.24269692744873E-07
(PID.TID 0000.0001)  cg2d: iter=    84 ; resid.=  2.64317749687357E-07
(PID.TID 0000.0001)  cg2d: iter=    85 ; resid.=  2.21027061603149E-07
(PID.TID 0000.0001)  cg2d: iter=    86 ; resid.=  1.88665604205109E-07
(PID.TID 0000.0001)  cg2d: iter=    87 ; resid.=  1.43705481300882E-07
(PID.TID 0000.0001)  cg2d: iter=    88 ; resid.=  1.15821167717797E-07
(PID.TID 0000.0001)  cg2d: iter=    89 ; resid.=  1.02205369439371E-07
(PID.TID 0000.0001)  cg2d: iter=    90 ; resid.=  8.24091422934895E-08
(PID.TID 0000.0001)  cg2d: iter=    91 ; resid.=  6.18344664166939E-08
(PID.TID 0000.0001)  cg2d: iter=    92 ; resid.=  4.28176278496384E-08
(PID.TID 0000.0001)  cg2d: iter=    93 ; resid.=  3.34576782242594E-08
(PID.TID 0000.0001)  cg2d: iter=    94 ; resid.=  2.58733117389361E-08
(PID.TID 0000.0001)  cg2d: iter=    95 ; resid.=  1.94971484076013E-08
(PID.TID 0000.0001)  cg2d: iter=    96 ; resid.=  1.46255930947492E-08
(PID.TID 0000.0001)  cg2d: iter=    97 ; resid.=  1.15236952509489E-08
(PID.TID 0000.0001)  cg2d: iter=    98 ; resid.=  9.01901981191617E-09
(PID.TID 0000.0001)  cg2d: iter=    99 ; resid.=  7.13051396083539E-09
(PID.TID 0000.0001)  cg2d: iter=   100 ; resid.=  5.73405571120338E-09
(PID.TID 0000.0001)  cg2d: iter=   101 ; resid.=  4.23178204806602E-09
(PID.TID 0000.0001)  cg2d: iter=   102 ; resid.=  3.60772372706585E-09
(PID.TID 0000.0001)  cg2d: iter=   103 ; resid.=  2.85186715509560E-09
(PID.TID 0000.0001)  cg2d: iter=   104 ; resid.=  2.53622475721590E-09
(PID.TID 0000.0001)  cg2d: iter=   105 ; resid.=  2.29803222489026E-09
(PID.TID 0000.0001)  cg2d: iter=   106 ; resid.=  1.98675229749614E-09
(PID.TID 0000.0001)  cg2d: iter=   107 ; resid.=  1.65312309958605E-09
(PID.TID 0000.0001)  cg2d: iter=   108 ; resid.=  1.27866644583956E-09
(PID.TID 0000.0001)  cg2d: iter=   109 ; resid.=  1.04224572786072E-09
(PID.TID 0000.0001)  cg2d: iter=   110 ; resid.=  7.97925663117038E-10
(PID.TID 0000.0001)  cg2d: iter=   111 ; resid.=  5.77935873990944E-10
(PID.TID 0000.0001)  cg2d: iter=   112 ; resid.=  4.01481762440582E-10
(PID.TID 0000.0001)  cg2d: iter=   113 ; resid.=  3.20759864650002E-10
(PID.TID 0000.0001)  cg2d: iter=   114 ; resid.=  2.41157345862356E-10
(PID.TID 0000.0001)  cg2d: iter=   115 ; resid.=  1.80213880292343E-10
(PID.TID 0000.0001)  cg2d: iter=   116 ; resid.=  1.36086442293104E-10
(PID.TID 0000.0001)  cg2d: iter=   117 ; resid.=  1.02579269140854E-10
(PID.TID 0000.0001)  cg2d: iter=   118 ; resid.=  8.10300714787258E-11
(PID.TID 0000.0001)  cg2d: iter=   119 ; resid.=  6.30315258837889E-11
(PID.TID 0000.0001)  cg2d: iter=   120 ; resid.=  4.98785134641395E-11
(PID.TID 0000.0001)  cg2d: iter=   121 ; resid.=  4.00832504931133E-11
(PID.TID 0000.0001)  cg2d: iter=   122 ; resid.=  3.24109078005098E-11
(PID.TID 0000.0001)  cg2d: iter=   123 ; resid.=  2.39555256530840E-11
(PID.TID 0000.0001)  cg2d: iter=   124 ; resid.=  1.75537108185997E-11
(PID.TID 0000.0001)  cg2d: iter=   125 ; resid.=  1.29517592396578E-11
(PID.TID 0000.0001)  cg2d: iter=   126 ; resid.=  9.31089040928773E-12
(PID.TID 0000.0001)  cg2d: iter=   127 ; resid.=  6.34456599551689E-12
(PID.TID 0000.0001)  cg2d: iter=   128 ; resid.=  4.63007577581070E-12
(PID.TID 0000.0001)  cg2d: iter=   129 ; resid.=  3.56677429806576E-12
(PID.TID 0000.0001)  cg2d: iter=   130 ; resid.=  2.49930290866881E-12
(PID.TID 0000.0001)  cg2d: iter=   131 ; resid.=  1.94974517738867E-12
(PID.TID 0000.0001)  cg2d: iter=   132 ; resid.=  1.53999273766661E-12
(PID.TID 0000.0001)  cg2d: iter=   133 ; resid.=  1.34258214457099E-12
(PID.TID 0000.0001)  cg2d: iter=   134 ; resid.=  1.10316311885776E-12
(PID.TID 0000.0001)  cg2d: iter=   135 ; resid.=  7.82289062850595E-13
(PID.TID 0000.0001)  cg2d: iter=   136 ; resid.=  5.63951016422107E-13
(PID.TID 0000.0001)  cg2d: iter=   137 ; resid.=  3.97226431239143E-13
(PID.TID 0000.0001)  cg2d: iter=   138 ; resid.=  2.91872914484979E-13
(PID.TID 0000.0001)  cg2d: iter=   139 ; resid.=  2.13514385346461E-13
(PID.TID 0000.0001)  cg2d: iter=   140 ; resid.=  1.48500122248030E-13
(PID.TID 0000.0001)  cg2d: iter=   141 ; resid.=  1.15571084089059E-13
(PID.TID 0000.0001)  cg2d: iter=   142 ; resid.=  8.35922165668708E-14
DEBUG_STATS_RL:    cg2d_x (SOLVE_FOR_PRESSURE)  min= -2.29418502913621E+01
DEBUG_STATS_RL:    cg2d_x (SOLVE_FOR_PRESSURE)  max=  4.89771123576933E+01
DEBUG_STATS_RL:    cg2d_x (SOLVE_FOR_PRESSURE) mean=  3.36085931817904E-01
DEBUG_STATS_RL:    cg2d_x (SOLVE_FOR_PRESSURE) S.D.=  1.15483627987434E+01
(PID.TID 0000.0001)      cg2d_init_res =   1.33485129714510E+00
(PID.TID 0000.0001)      cg2d_iters(min,last) =      -1     142
(PID.TID 0000.0001)      cg2d_last_res =   8.35922165668708E-14
(PID.TID 0000.0001) // =======================================================
(PID.TID 0000.0001) // Begin MONITOR dynamic field statistics
(PID.TID 0000.0001) // =======================================================
(PID.TID 0000.0001) %MON time_tsnumber                =                     7
(PID.TID 0000.0001) %MON time_secondsf                =   6.0480000000000E+05
(PID.TID 0000.0001) %MON dynstat_eta_max              =   4.9925700670431E+00
(PID.TID 0000.0001) %MON dynstat_eta_min              =  -2.3386187860716E+00
(PID.TID 0000.0001) %MON dynstat_eta_mean             =  -4.7080902545968E-04
(PID.TID 0000.0001) %MON dynstat_eta_sd               =   1.2444965252104E+00
(PID.TID 0000.0001) %MON dynstat_eta_del2             =   3.1695832660434E-03
(PID.TID 0000.0001) %MON dynstat_uvel_max             =   1.7969160485804E-01
(PID.TID 0000.0001) %MON dynstat_uvel_min             =  -1.7863764277099E-01
(PID.TID 0000.0001) %MON dynstat_uvel_mean            =   7.2571027350681E-03
(PID.TID 0000.0001) %MON dynstat_uvel_sd              =   1.5568243041606E-02
(PID.TID 0000.0001) %MON dynstat_uvel_del2            =   9.7848820997455E-05
(PID.TID 0000.0001) %MON dynstat_vvel_max             =   1.5944241405165E-01
(PID.TID 0000.0001) %MON dynstat_vvel_min             =  -1.4232047312324E-01
(PID.TID 0000.0001) %MON dynstat_vvel_mean            =  -2.4965252339713E-03
(PID.TID 0000.0001) %MON dynstat_vvel_sd              =   1.4029442369602E-02
(PID.TID 0000.0001) %MON dynstat_vvel_del2            =   1.1936368101009E-04
(PID.TID 0000.0001) %MON dynstat_wvel_max             =   2.9855105025398E-04
(PID.TID 0000.0001) %MON dynstat_wvel_min             =  -1.8977228221282E-04
(PID.TID 0000.0001) %MON dynstat_wvel_mean            =   1.8480852190126E-22
(PID.TID 0000.0001) %MON dynstat_wvel_sd              =   2.8132047422955E-05
(PID.TID 0000.0001) %MON dynstat_wvel_del2            =   3.5335531825027E-07
(PID.TID 0000.0001) %MON dynstat_theta_max            =   2.9950195699753E+01
(PID.TID 0000.0001) %MON dynstat_theta_min            =  -1.9119646072349E+00
(PID.TID 0000.0001) %MON dynstat_theta_mean           =   3.6503285782656E+00
(PID.TID 0000.0001) %MON dynstat_theta_sd             =   4.4181318596376E+00
(PID.TID 0000.0001) %MON dynstat_theta_del2           =   5.3009416030270E-03
(PID.TID 0000.0001) %MON dynstat_salt_max             =   3.7464478445948E+01
(PID.TID 0000.0001) %MON dynstat_salt_min             =   2.9828293951206E+01
(PID.TID 0000.0001) %MON dynstat_salt_mean            =   3.4748044660868E+01
(PID.TID 0000.0001) %MON dynstat_salt_sd              =   2.9622755481671E-01
(PID.TID 0000.0001) %MON dynstat_salt_del2            =   1.0130806843684E-03
(PID.TID 0000.0001) %MON dynstat_sst_max              =   2.9950195699753E+01
(PID.TID 0000.0001) %MON dynstat_sst_min              =  -1.9119646072349E+00
(PID.TID 0000.0001) %MON dynstat_sst_mean             =   1.8600996831702E+01
(PID.TID 0000.0001) %MON dynstat_sst_sd               =   9.1262634666203E+00
(PID.TID 0000.0001) %MON dynstat_sst_del2             =   2.6359818111830E-02
(PID.TID 0000.0001) %MON dynstat_sss_max              =   3.7464099024092E+01
(PID.TID 0000.0001) %MON dynstat_sss_min              =   2.9828293951206E+01
(PID.TID 0000.0001) %MON dynstat_sss_mean             =   3.4882818747226E+01
(PID.TID 0000.0001) %MON dynstat_sss_sd               =   9.6638194887956E-01
(PID.TID 0000.0001) %MON dynstat_sss_del2             =   8.0201523932249E-03
(PID.TID 0000.0001) %MON forcing_qnet_max             =   4.3217993164062E+02
(PID.TID 0000.0001) %MON forcing_qnet_min             =  -1.8422400970459E+02
(PID.TID 0000.0001) %MON forcing_qnet_mean            =  -1.6625133603451E+01
(PID.TID 0000.0001) %MON forcing_qnet_sd              =   1.1159198929743E+02
(PID.TID 0000.0001) %MON forcing_qnet_del2            =   9.9967143614056E-01
(PID.TID 0000.0001) %MON forcing_qsw_max              =   0.0000000000000E+00
(PID.TID 0000.0001) %MON forcing_qsw_min              =   0.0000000000000E+00
(PID.TID 0000.0001) %MON forcing_qsw_mean             =   0.0000000000000E+00
(PID.TID 0000.0001) %MON forcing_qsw_sd               =   0.0000000000000E+00
(PID.TID 0000.0001) %MON forcing_qsw_del2             =   0.0000000000000E+00
(PID.TID 0000.0001) %MON forcing_empmr_max            =   8.1887607450426E-05
(PID.TID 0000.0001) %MON forcing_empmr_min            =  -7.2590404442963E-05
(PID.TID 0000.0001) %MON forcing_empmr_mean           =   8.3500924240108E-07
(PID.TID 0000.0001) %MON forcing_empmr_sd             =   2.8083907977094E-05
(PID.TID 0000.0001) %MON forcing_empmr_del2           =   3.6258320756835E-07
(PID.TID 0000.0001) %MON forcing_fu_max               =   2.6977391839027E-01
(PID.TID 0000.0001) %MON forcing_fu_min               =  -1.6355978995562E-01
(PID.TID 0000.0001) %MON forcing_fu_mean              =   1.6070970541901E-02
(PID.TID 0000.0001) %MON forcing_fu_sd                =   9.0225339362360E-02
(PID.TID 0000.0001) %MON forcing_fu_del2              =   6.6893050433667E-04
(PID.TID 0000.0001) %MON forcing_fv_max               =   2.1620217412710E-01
(PID.TID 0000.0001) %MON forcing_fv_min               =  -1.8339881747961E-01
(PID.TID 0000.0001) %MON forcing_fv_mean              =  -5.9227604812523E-03
(PID.TID 0000.0001) %MON forcing_fv_sd                =   4.6005326854092E-02
(PID.TID 0000.0001) %MON forcing_fv_del2              =   4.5373726950670E-04
(PID.TID 0000.0001) %MON trAdv_CFL_u_max              =   6.9635801094385E-02
(PID.TID 0000.0001) %MON trAdv_CFL_v_max              =   3.8634380620220E-02
(PID.TID 0000.0001) %MON trAdv_CFL_w_max              =   9.8241944224149E-02
(PID.TID 0000.0001) %MON advcfl_uvel_max              =   6.5880218503798E-02
(PID.TID 0000.0001) %MON advcfl_vvel_max              =   3.0977103901350E-02
(PID.TID 0000.0001) %MON advcfl_wvel_max              =   1.0223185573616E-01
(PID.TID 0000.0001) %MON advcfl_W_hf_max              =   1.1938797074911E-01
(PID.TID 0000.0001) %MON pe_b_mean                    =   1.9818402252805E-03
(PID.TID 0000.0001) %MON ke_max                       =   1.6193262313286E-02
(PID.TID 0000.0001) %MON ke_mean                      =   2.2520078702474E-04
(PID.TID 0000.0001) %MON ke_vol                       =   1.3226782436723E+18
(PID.TID 0000.0001) %MON vort_r_min                   =  -9.8545449118060E-07
(PID.TID 0000.0001) %MON vort_r_max                   =   1.0169882344150E-06
(PID.TID 0000.0001) %MON vort_a_mean                  =  -2.5274807101994E-05
(PID.TID 0000.0001) %MON vort_a_sd                    =   7.3605916790483E-05
(PID.TID 0000.0001) %MON vort_p_mean                  =  -3.1845655427203E-05
(PID.TID 0000.0001) %MON vort_p_sd                    =   1.3162311454625E-04
(PID.TID 0000.0001) %MON surfExpan_theta_mean         =   4.2368682819488E-06
(PID.TID 0000.0001) %MON surfExpan_salt_mean          =   1.9682344776307E-07
(PID.TID 0000.0001) // =======================================================
(PID.TID 0000.0001) // End MONITOR dynamic field statistics
(PID.TID 0000.0001) // =======================================================
 EXTERNAL_FIELDS_LOAD,         7 : iP,iLd,i0,i1=   12    1   12    1 ; Wght=  0.2666666667  0.7333333333
 EXTERNAL_FIELDS_LOAD: (fu0,1),fu,fv= -4.5368E-02 -3.5633E-02 -3.8229E-02 -6.0721E-02
 EXTERNAL_FIELDS_LOAD: SST,SSS,Q,E-P=  4.7561E-01  3.4527E+01  2.6541E+02  1.1213E-05
DEBUG_STATS_RL:          Uvel (THERMODYNAMICS)  min= -1.78637642770986E-01
DEBUG_STATS_RL:          Uvel (THERMODYNAMICS)  max=  1.79691604858043E-01
DEBUG_STATS_RL:          Uvel (THERMODYNAMICS) mean=  1.03768305931625E-02
DEBUG_STATS_RL:          Uvel (THERMODYNAMICS) S.D.=  2.22511415290647E-02
DEBUG_STATS_RL:          Vvel (THERMODYNAMICS)  min= -1.42320473123239E-01
DEBUG_STATS_RL:          Vvel (THERMODYNAMICS)  max=  1.59442414051653E-01
DEBUG_STATS_RL:          Vvel (THERMODYNAMICS) mean= -3.99450663725933E-03
DEBUG_STATS_RL:          Vvel (THERMODYNAMICS) S.D.=  1.88047005372857E-02
DEBUG_STATS_RL:          Wvel (THERMODYNAMICS)  min= -1.89772282212823E-04
DEBUG_STATS_RL:          Wvel (THERMODYNAMICS)  max=  2.98551050253979E-04
DEBUG_STATS_RL:          Wvel (THERMODYNAMICS) mean= -7.35625597764782E-07
DEBUG_STATS_RL:          Wvel (THERMODYNAMICS) S.D.=  2.64211582277969E-05
DEBUG_STATS_RL:         Theta (THERMODYNAMICS)  min= -1.92204791142113E+00
DEBUG_STATS_RL:         Theta (THERMODYNAMICS)  max=  2.99475121908857E+01
DEBUG_STATS_RL:         Theta (THERMODYNAMICS) mean=  3.23249224551326E+00
DEBUG_STATS_RL:         Theta (THERMODYNAMICS) S.D.=  5.85248321880388E+00
DEBUG_STATS_RL:          Salt (THERMODYNAMICS)  min=  3.00000000000000E-02
DEBUG_STATS_RL:          Salt (THERMODYNAMICS)  max=  3.74662676473609E+01
DEBUG_STATS_RL:          Salt (THERMODYNAMICS) mean=  1.88752512967702E+01
DEBUG_STATS_RL:          Salt (THERMODYNAMICS) S.D.=  1.73007147956699E+01
DEBUG_STATS_RL:         GtNm1 (THERMODYNAMICS)  min= -5.27010323159375E-06
DEBUG_STATS_RL:         GtNm1 (THERMODYNAMICS)  max=  2.70462428867581E-06
DEBUG_STATS_RL:         GtNm1 (THERMODYNAMICS) mean=  1.96364833511224E-08
DEBUG_STATS_RL:         GtNm1 (THERMODYNAMICS) S.D.=  2.88603846051732E-07
DEBUG_STATS_RL:         GsNm1 (THERMODYNAMICS)  min= -4.88861416079699E-07
DEBUG_STATS_RL:         GsNm1 (THERMODYNAMICS)  max=  4.15483618665607E-07
DEBUG_STATS_RL:         GsNm1 (THERMODYNAMICS) mean= -2.09220577636134E-10
DEBUG_STATS_RL:         GsNm1 (THERMODYNAMICS) S.D.=  2.38784399373697E-08
DEBUG_STATS_RL:                EtaN (DYNAMICS)  min= -2.33861878607158E+00
DEBUG_STATS_RL:                EtaN (DYNAMICS)  max=  4.99257006704315E+00
DEBUG_STATS_RL:                EtaN (DYNAMICS) mean=  3.42595241404581E-02
DEBUG_STATS_RL:                EtaN (DYNAMICS) S.D.=  1.17720313952532E+00
DEBUG_STATS_RL:                Uvel (DYNAMICS)  min= -1.78637642770986E-01
DEBUG_STATS_RL:                Uvel (DYNAMICS)  max=  1.79691604858043E-01
DEBUG_STATS_RL:                Uvel (DYNAMICS) mean=  1.03768305931625E-02
DEBUG_STATS_RL:                Uvel (DYNAMICS) S.D.=  2.22511415290647E-02
DEBUG_STATS_RL:                Vvel (DYNAMICS)  min= -1.42320473123239E-01
DEBUG_STATS_RL:                Vvel (DYNAMICS)  max=  1.59442414051653E-01
DEBUG_STATS_RL:                Vvel (DYNAMICS) mean= -3.99450663725933E-03
DEBUG_STATS_RL:                Vvel (DYNAMICS) S.D.=  1.88047005372857E-02
DEBUG_STATS_RL:                Wvel (DYNAMICS)  min= -1.89772282212823E-04
DEBUG_STATS_RL:                Wvel (DYNAMICS)  max=  2.98551050253979E-04
DEBUG_STATS_RL:                Wvel (DYNAMICS) mean= -7.35625597764782E-07
DEBUG_STATS_RL:                Wvel (DYNAMICS) S.D.=  2.64211582277969E-05
DEBUG_STATS_RL:               Theta (DYNAMICS)  min= -1.92204791142113E+00
DEBUG_STATS_RL:               Theta (DYNAMICS)  max=  2.99475121908857E+01
DEBUG_STATS_RL:               Theta (DYNAMICS) mean=  3.23249224551326E+00
DEBUG_STATS_RL:               Theta (DYNAMICS) S.D.=  5.85248321880388E+00
DEBUG_STATS_RL:                Salt (DYNAMICS)  min=  3.00000000000000E-02
DEBUG_STATS_RL:                Salt (DYNAMICS)  max=  3.74662676473609E+01
DEBUG_STATS_RL:                Salt (DYNAMICS) mean=  1.88752512967702E+01
DEBUG_STATS_RL:                Salt (DYNAMICS) S.D.=  1.73007147956699E+01
DEBUG_STATS_RL:                  Gu (DYNAMICS)  min= -1.74417449195734E-01
DEBUG_STATS_RL:                  Gu (DYNAMICS)  max=  1.72551730216924E-01
DEBUG_STATS_RL:                  Gu (DYNAMICS) mean=  7.27697087790776E-03
DEBUG_STATS_RL:                  Gu (DYNAMICS) S.D.=  2.36008015518624E-02
DEBUG_STATS_RL:                  Gv (DYNAMICS)  min= -1.17154795802778E-01
DEBUG_STATS_RL:                  Gv (DYNAMICS)  max=  1.61386180730069E-01
DEBUG_STATS_RL:                  Gv (DYNAMICS) mean= -3.49272520532199E-03
DEBUG_STATS_RL:                  Gv (DYNAMICS) S.D.=  1.87131702521174E-02
DEBUG_STATS_RL:               GuNm1 (DYNAMICS)  min= -7.77857871495728E-06
DEBUG_STATS_RL:               GuNm1 (DYNAMICS)  max=  7.65870093967727E-06
DEBUG_STATS_RL:               GuNm1 (DYNAMICS) mean= -4.52895357310828E-08
DEBUG_STATS_RL:               GuNm1 (DYNAMICS) S.D.=  1.23809892345842E-06
DEBUG_STATS_RL:               GvNm1 (DYNAMICS)  min= -1.03520036537922E-05
DEBUG_STATS_RL:               GvNm1 (DYNAMICS)  max=  1.63243899955198E-05
DEBUG_STATS_RL:               GvNm1 (DYNAMICS) mean=  7.86452424625344E-07
DEBUG_STATS_RL:               GvNm1 (DYNAMICS) S.D.=  2.71866735049616E-06
DEBUG_STATS_RL:               GtNm1 (DYNAMICS)  min= -5.27010323159375E-06
DEBUG_STATS_RL:               GtNm1 (DYNAMICS)  max=  2.70462428867581E-06
DEBUG_STATS_RL:               GtNm1 (DYNAMICS) mean=  1.96364833511224E-08
DEBUG_STATS_RL:               GtNm1 (DYNAMICS) S.D.=  2.88603846051732E-07
DEBUG_STATS_RL:               GsNm1 (DYNAMICS)  min= -4.88861416079699E-07
DEBUG_STATS_RL:               GsNm1 (DYNAMICS)  max=  4.15483618665607E-07
DEBUG_STATS_RL:               GsNm1 (DYNAMICS) mean= -2.09220577636134E-10
DEBUG_STATS_RL:               GsNm1 (DYNAMICS) S.D.=  2.38784399373697E-08
DEBUG_STATS_RL:    cg2d_b (SOLVE_FOR_PRESSURE)  min= -2.67399698196790E+04
DEBUG_STATS_RL:    cg2d_b (SOLVE_FOR_PRESSURE)  max=  1.90501319954459E+04
DEBUG_STATS_RL:    cg2d_b (SOLVE_FOR_PRESSURE) mean=  5.18825145572497E-01
DEBUG_STATS_RL:    cg2d_b (SOLVE_FOR_PRESSURE) S.D.=  4.46056611927420E+03
 cg2d: Sum(rhs),rhsMax =   4.49170369338841E-02  1.75635281203924E+00
(PID.TID 0000.0001)  cg2d: iter=     1 ; resid.=  1.21625427821000E+00
(PID.TID 0000.0001)  cg2d: iter=     2 ; resid.=  1.24658096543696E+00
(PID.TID 0000.0001)  cg2d: iter=     3 ; resid.=  1.21546698243286E+00
(PID.TID 0000.0001)  cg2d: iter=     4 ; resid.=  1.00264671679988E+00
(PID.TID 0000.0001)  cg2d: iter=     5 ; resid.=  9.19052891209137E-01
(PID.TID 0000.0001)  cg2d: iter=     6 ; resid.=  7.23259490223143E-01
(PID.TID 0000.0001)  cg2d: iter=     7 ; resid.=  5.32612413581816E-01
(PID.TID 0000.0001)  cg2d: iter=     8 ; resid.=  4.21608102553348E-01
(PID.TID 0000.0001)  cg2d: iter=     9 ; resid.=  3.84277341909427E-01
(PID.TID 0000.0001)  cg2d: iter=    10 ; resid.=  3.56644677063891E-01
(PID.TID 0000.0001)  cg2d: iter=    11 ; resid.=  3.08841242162669E-01
(PID.TID 0000.0001)  cg2d: iter=    12 ; resid.=  2.75091714479818E-01
(PID.TID 0000.0001)  cg2d: iter=    13 ; resid.=  2.30156958917316E-01
(PID.TID 0000.0001)  cg2d: iter=    14 ; resid.=  1.99997354315254E-01
(PID.TID 0000.0001)  cg2d: iter=    15 ; resid.=  1.73495163749232E-01
(PID.TID 0000.0001)  cg2d: iter=    16 ; resid.=  1.71658707020310E-01
(PID.TID 0000.0001)  cg2d: iter=    17 ; resid.=  1.33404628540526E-01
(PID.TID 0000.0001)  cg2d: iter=    18 ; resid.=  1.00806139897201E-01
(PID.TID 0000.0001)  cg2d: iter=    19 ; resid.=  6.97919081770857E-02
(PID.TID 0000.0001)  cg2d: iter=    20 ; resid.=  5.57242879703013E-02
(PID.TID 0000.0001)  cg2d: iter=    21 ; resid.=  4.34456216414758E-02
(PID.TID 0000.0001)  cg2d: iter=    22 ; resid.=  3.53612136755642E-02
(PID.TID 0000.0001)  cg2d: iter=    23 ; resid.=  2.52866351734203E-02
(PID.TID 0000.0001)  cg2d: iter=    24 ; resid.=  2.06946745391510E-02
(PID.TID 0000.0001)  cg2d: iter=    25 ; resid.=  1.61517771797046E-02
(PID.TID 0000.0001)  cg2d: iter=    26 ; resid.=  1.44815817259466E-02
(PID.TID 0000.0001)  cg2d: iter=    27 ; resid.=  1.24778502091733E-02
(PID.TID 0000.0001)  cg2d: iter=    28 ; resid.=  1.11951561398094E-02
(PID.TID 0000.0001)  cg2d: iter=    29 ; resid.=  1.01122685198917E-02
(PID.TID 0000.0001)  cg2d: iter=    30 ; resid.=  9.66150431030039E-03
(PID.TID 0000.0001)  cg2d: iter=    31 ; resid.=  8.68025102084346E-03
(PID.TID 0000.0001)  cg2d: iter=    32 ; resid.=  7.19446208432076E-03
(PID.TID 0000.0001)  cg2d: iter=    33 ; resid.=  6.17996450343679E-03
(PID.TID 0000.0001)  cg2d: iter=    34 ; resid.=  4.91639039426852E-03
(PID.TID 0000.0001)  cg2d: iter=    35 ; resid.=  3.66471154708134E-03
(PID.TID 0000.0001)  cg2d: iter=    36 ; resid.=  2.91551420362494E-03
(PID.TID 0000.0001)  cg2d: iter=    37 ; resid.=  2.36976078707924E-03
(PID.TID 0000.0001)  cg2d: iter=    38 ; resid.=  1.89497903622496E-03
(PID.TID 0000.0001)  cg2d: iter=    39 ; resid.=  1.48815367509693E-03
(PID.TID 0000.0001)  cg2d: iter=    40 ; resid.=  1.31425774444443E-03
(PID.TID 0000.0001)  cg2d: iter=    41 ; resid.=  1.00858427155937E-03
(PID.TID 0000.0001)  cg2d: iter=    42 ; resid.=  9.51496777466753E-04
(PID.TID 0000.0001)  cg2d: iter=    43 ; resid.=  8.17048359719917E-04
(PID.TID 0000.0001)  cg2d: iter=    44 ; resid.=  7.33249764139682E-04
(PID.TID 0000.0001)  cg2d: iter=    45 ; resid.=  6.29316787974734E-04
(PID.TID 0000.0001)  cg2d: iter=    46 ; resid.=  5.41357972579739E-04
(PID.TID 0000.0001)  cg2d: iter=    47 ; resid.=  4.43381085293764E-04
(PID.TID 0000.0001)  cg2d: iter=    48 ; resid.=  3.43469479415685E-04
(PID.TID 0000.0001)  cg2d: iter=    49 ; resid.=  2.79939292677905E-04
(PID.TID 0000.0001)  cg2d: iter=    50 ; resid.=  2.24211317684934E-04
(PID.TID 0000.0001)  cg2d: iter=    51 ; resid.=  1.99346183058055E-04
(PID.TID 0000.0001)  cg2d: iter=    52 ; resid.=  1.60388856190485E-04
(PID.TID 0000.0001)  cg2d: iter=    53 ; resid.=  1.27438870269473E-04
(PID.TID 0000.0001)  cg2d: iter=    54 ; resid.=  1.05363735191317E-04
(PID.TID 0000.0001)  cg2d: iter=    55 ; resid.=  8.90628818678487E-05
(PID.TID 0000.0001)  cg2d: iter=    56 ; resid.=  7.18485553798439E-05
(PID.TID 0000.0001)  cg2d: iter=    57 ; resid.=  5.64851638344075E-05
(PID.TID 0000.0001)  cg2d: iter=    58 ; resid.=  4.50826563043804E-05
(PID.TID 0000.0001)  cg2d: iter=    59 ; resid.=  3.95803170030320E-05
(PID.TID 0000.0001)  cg2d: iter=    60 ; resid.=  3.37763181049608E-05
(PID.TID 0000.0001)  cg2d: iter=    61 ; resid.=  2.99007078293308E-05
(PID.TID 0000.0001)  cg2d: iter=    62 ; resid.=  2.54962153370389E-05
(PID.TID 0000.0001)  cg2d: iter=    63 ; resid.=  2.47129056235875E-05
(PID.TID 0000.0001)  cg2d: iter=    64 ; resid.=  2.27639247607792E-05
(PID.TID 0000.0001)  cg2d: iter=    65 ; resid.=  1.75980885014099E-05
(PID.TID 0000.0001)  cg2d: iter=    66 ; resid.=  1.26270960194612E-05
(PID.TID 0000.0001)  cg2d: iter=    67 ; resid.=  9.32068558874502E-06
(PID.TID 0000.0001)  cg2d: iter=    68 ; resid.=  7.60751656561850E-06
(PID.TID 0000.0001)  cg2d: iter=    69 ; resid.=  5.73056038501492E-06
(PID.TID 0000.0001)  cg2d: iter=    70 ; resid.=  4.33337509452979E-06
(PID.TID 0000.0001)  cg2d: iter=    71 ; resid.=  3.09089053734959E-06
(PID.TID 0000.0001)  cg2d: iter=    72 ; resid.=  2.51693215633584E-06
(PID.TID 0000.0001)  cg2d: iter=    73 ; resid.=  2.04262858613536E-06
(PID.TID 0000.0001)  cg2d: iter=    74 ; resid.=  1.56228163466319E-06
(PID.TID 0000.0001)  cg2d: iter=    75 ; resid.=  1.24821606164030E-06
(PID.TID 0000.0001)  cg2d: iter=    76 ; resid.=  8.96902268971550E-07
(PID.TID 0000.0001)  cg2d: iter=    77 ; resid.=  7.45364371442056E-07
(PID.TID 0000.0001)  cg2d: iter=    78 ; resid.=  6.16089932968118E-07
(PID.TID 0000.0001)  cg2d: iter=    79 ; resid.=  4.76333217617712E-07
(PID.TID 0000.0001)  cg2d: iter=    80 ; resid.=  3.75330468234376E-07
(PID.TID 0000.0001)  cg2d: iter=    81 ; resid.=  2.90519122603436E-07
(PID.TID 0000.0001)  cg2d: iter=    82 ; resid.=  2.03043531704046E-07
(PID.TID 0000.0001)  cg2d: iter=    83 ; resid.=  1.58490544995376E-07
(PID.TID 0000.0001)  cg2d: iter=    84 ; resid.=  1.17807091091058E-07
(PID.TID 0000.0001)  cg2d: iter=    85 ; resid.=  8.96264618582980E-08
(PID.TID 0000.0001)  cg2d: iter=    86 ; resid.=  7.37400815998155E-08
(PID.TID 0000.0001)  cg2d: iter=    87 ; resid.=  5.75444855098633E-08
(PID.TID 0000.0001)  cg2d: iter=    88 ; resid.=  4.39289159890977E-08
(PID.TID 0000.0001)  cg2d: iter=    89 ; resid.=  3.56476492467787E-08
(PID.TID 0000.0001)  cg2d: iter=    90 ; resid.=  3.00919461523342E-08
(PID.TID 0000.0001)  cg2d: iter=    91 ; resid.=  2.81136986054140E-08
(PID.TID 0000.0001)  cg2d: iter=    92 ; resid.=  2.28448960126833E-08
(PID.TID 0000.0001)  cg2d: iter=    93 ; resid.=  1.81226969894857E-08
(PID.TID 0000.0001)  cg2d: iter=    94 ; resid.=  1.46607813301466E-08
(PID.TID 0000.0001)  cg2d: iter=    95 ; resid.=  1.19063903392920E-08
(PID.TID 0000.0001)  cg2d: iter=    96 ; resid.=  9.56128172915650E-09
(PID.TID 0000.0001)  cg2d: iter=    97 ; resid.=  8.18059787123159E-09
(PID.TID 0000.0001)  cg2d: iter=    98 ; resid.=  6.55542710882424E-09
(PID.TID 0000.0001)  cg2d: iter=    99 ; resid.=  4.92520971886697E-09
(PID.TID 0000.0001)  cg2d: iter=   100 ; resid.=  3.92679291166502E-09
(PID.TID 0000.0001)  cg2d: iter=   101 ; resid.=  2.92640972491799E-09
(PID.TID 0000.0001)  cg2d: iter=   102 ; resid.=  2.49264068689533E-09
(PID.TID 0000.0001)  cg2d: iter=   103 ; resid.=  1.79844263957634E-09
(PID.TID 0000.0001)  cg2d: iter=   104 ; resid.=  1.40929643775821E-09
(PID.TID 0000.0001)  cg2d: iter=   105 ; resid.=  1.12446367784014E-09
(PID.TID 0000.0001)  cg2d: iter=   106 ; resid.=  9.55220537810026E-10
(PID.TID 0000.0001)  cg2d: iter=   107 ; resid.=  7.86326800685081E-10
(PID.TID 0000.0001)  cg2d: iter=   108 ; resid.=  5.62323509351977E-10
(PID.TID 0000.0001)  cg2d: iter=   109 ; resid.=  4.19302700861689E-10
(PID.TID 0000.0001)  cg2d: iter=   110 ; resid.=  3.24733958522645E-10
(PID.TID 0000.0001)  cg2d: iter=   111 ; resid.=  2.52253511932480E-10
(PID.TID 0000.0001)  cg2d: iter=   112 ; resid.=  1.74082652981651E-10
(PID.TID 0000.0001)  cg2d: iter=   113 ; resid.=  1.42441876017206E-10
(PID.TID 0000.0001)  cg2d: iter=   114 ; resid.=  1.10725875234127E-10
(PID.TID 0000.0001)  cg2d: iter=   115 ; resid.=  8.33667918851200E-11
(PID.TID 0000.0001)  cg2d: iter=   116 ; resid.=  5.88068199876073E-11
(PID.TID 0000.0001)  cg2d: iter=   117 ; resid.=  3.96973949848119E-11
(PID.TID 0000.0001)  cg2d: iter=   118 ; resid.=  2.62048136287665E-11
(PID.TID 0000.0001)  cg2d: iter=   119 ; resid.=  1.82670110009825E-11
(PID.TID 0000.0001)  cg2d: iter=   120 ; resid.=  1.39238507676834E-11
(PID.TID 0000.0001)  cg2d: iter=   121 ; resid.=  1.11580508220911E-11
(PID.TID 0000.0001)  cg2d: iter=   122 ; resid.=  8.71173351851467E-12
(PID.TID 0000.0001)  cg2d: iter=   123 ; resid.=  7.06543621753861E-12
(PID.TID 0000.0001)  cg2d: iter=   124 ; resid.=  5.83239955735116E-12
(PID.TID 0000.0001)  cg2d: iter=   125 ; resid.=  4.71684857895280E-12
(PID.TID 0000.0001)  cg2d: iter=   126 ; resid.=  3.58240002411215E-12
(PID.TID 0000.0001)  cg2d: iter=   127 ; resid.=  2.55646744732860E-12
(PID.TID 0000.0001)  cg2d: iter=   128 ; resid.=  1.90960110240087E-12
(PID.TID 0000.0001)  cg2d: iter=   129 ; resid.=  1.34176685137730E-12
(PID.TID 0000.0001)  cg2d: iter=   130 ; resid.=  9.62540534623558E-13
(PID.TID 0000.0001)  cg2d: iter=   131 ; resid.=  7.54156657859977E-13
(PID.TID 0000.0001)  cg2d: iter=   132 ; resid.=  5.58718435202128E-13
(PID.TID 0000.0001)  cg2d: iter=   133 ; resid.=  4.44984486297404E-13
(PID.TID 0000.0001)  cg2d: iter=   134 ; resid.=  3.79122387207315E-13
(PID.TID 0000.0001)  cg2d: iter=   135 ; resid.=  2.95680819937202E-13
(PID.TID 0000.0001)  cg2d: iter=   136 ; resid.=  2.32306905629250E-13
(PID.TID 0000.0001)  cg2d: iter=   137 ; resid.=  1.75890983562536E-13
(PID.TID 0000.0001)  cg2d: iter=   138 ; resid.=  1.43053814967817E-13
(PID.TID 0000.0001)  cg2d: iter=   139 ; resid.=  1.27228947118496E-13
(PID.TID 0000.0001)  cg2d: iter=   140 ; resid.=  9.94628182286233E-14
DEBUG_STATS_RL:    cg2d_x (SOLVE_FOR_PRESSURE)  min= -2.37985633319837E+01
DEBUG_STATS_RL:    cg2d_x (SOLVE_FOR_PRESSURE)  max=  6.22786162223115E+01
DEBUG_STATS_RL:    cg2d_x (SOLVE_FOR_PRESSURE) mean= -3.15997950401652E-01
DEBUG_STATS_RL:    cg2d_x (SOLVE_FOR_PRESSURE) S.D.=  1.10191344689250E+01
(PID.TID 0000.0001)      cg2d_init_res =   1.28570580848644E+00
(PID.TID 0000.0001)      cg2d_iters(min,last) =      -1     140
(PID.TID 0000.0001)      cg2d_last_res =   9.94628182286233E-14
(PID.TID 0000.0001) // =======================================================
(PID.TID 0000.0001) // Begin MONITOR dynamic field statistics
(PID.TID 0000.0001) // =======================================================
(PID.TID 0000.0001) %MON time_tsnumber                =                     8
(PID.TID 0000.0001) %MON time_secondsf                =   6.9120000000000E+05
(PID.TID 0000.0001) %MON dynstat_eta_max              =   6.3484827953427E+00
(PID.TID 0000.0001) %MON dynstat_eta_min              =  -2.4259493712523E+00
(PID.TID 0000.0001) %MON dynstat_eta_mean             =  -5.4132970721126E-04
(PID.TID 0000.0001) %MON dynstat_eta_sd               =   1.1821566065512E+00
(PID.TID 0000.0001) %MON dynstat_eta_del2             =   2.9736774026078E-03
(PID.TID 0000.0001) %MON dynstat_uvel_max             =   1.7489493088316E-01
(PID.TID 0000.0001) %MON dynstat_uvel_min             =  -1.7996393328136E-01
(PID.TID 0000.0001) %MON dynstat_uvel_mean            =   6.9570897174513E-03
(PID.TID 0000.0001) %MON dynstat_uvel_sd              =   1.5670697506916E-02
(PID.TID 0000.0001) %MON dynstat_uvel_del2            =   1.0228351943269E-04
(PID.TID 0000.0001) %MON dynstat_vvel_max             =   1.4439259318867E-01
(PID.TID 0000.0001) %MON dynstat_vvel_min             =  -1.4954058180213E-01
(PID.TID 0000.0001) %MON dynstat_vvel_mean            =  -8.3442851280348E-04
(PID.TID 0000.0001) %MON dynstat_vvel_sd              =   1.3963917876465E-02
(PID.TID 0000.0001) %MON dynstat_vvel_del2            =   1.2009421230454E-04
(PID.TID 0000.0001) %MON dynstat_wvel_max             =   2.5211156160632E-04
(PID.TID 0000.0001) %MON dynstat_wvel_min             =  -2.5982164750362E-04
(PID.TID 0000.0001) %MON dynstat_wvel_mean            =  -1.3601595269782E-23
(PID.TID 0000.0001) %MON dynstat_wvel_sd              =   2.7554252748111E-05
(PID.TID 0000.0001) %MON dynstat_wvel_del2            =   3.4150348454001E-07
(PID.TID 0000.0001) %MON dynstat_theta_max            =   2.9947512190886E+01
(PID.TID 0000.0001) %MON dynstat_theta_min            =  -1.9220479114211E+00
(PID.TID 0000.0001) %MON dynstat_theta_mean           =   3.6500949286313E+00
(PID.TID 0000.0001) %MON dynstat_theta_sd             =   4.4174251791401E+00
(PID.TID 0000.0001) %MON dynstat_theta_del2           =   5.2384657606441E-03
(PID.TID 0000.0001) %MON dynstat_salt_max             =   3.7466267647361E+01
(PID.TID 0000.0001) %MON dynstat_salt_min             =   2.9832986469241E+01
(PID.TID 0000.0001) %MON dynstat_salt_mean            =   3.4748033765956E+01
(PID.TID 0000.0001) %MON dynstat_salt_sd              =   2.9620891425593E-01
(PID.TID 0000.0001) %MON dynstat_salt_del2            =   1.0126219645975E-03
(PID.TID 0000.0001) %MON dynstat_sst_max              =   2.9947512190886E+01
(PID.TID 0000.0001) %MON dynstat_sst_min              =  -1.9220479114211E+00
(PID.TID 0000.0001) %MON dynstat_sst_mean             =   1.8610852271581E+01
(PID.TID 0000.0001) %MON dynstat_sst_sd               =   9.1147128181331E+00
(PID.TID 0000.0001) %MON dynstat_sst_del2             =   2.6346126767695E-02
(PID.TID 0000.0001) %MON dynstat_sss_max              =   3.7462816199040E+01
(PID.TID 0000.0001) %MON dynstat_sss_min              =   2.9832986469241E+01
(PID.TID 0000.0001) %MON dynstat_sss_mean             =   3.4883338166723E+01
(PID.TID 0000.0001) %MON dynstat_sss_sd               =   9.6659847102187E-01
(PID.TID 0000.0001) %MON dynstat_sss_del2             =   8.0205541156164E-03
(PID.TID 0000.0001) %MON forcing_qnet_max             =   4.3322811889648E+02
(PID.TID 0000.0001) %MON forcing_qnet_min             =  -1.8375684712728E+02
(PID.TID 0000.0001) %MON forcing_qnet_mean            =  -1.6612621647629E+01
(PID.TID 0000.0001) %MON forcing_qnet_sd              =   1.1139030190430E+02
(PID.TID 0000.0001) %MON forcing_qnet_del2            =   1.0017615545299E+00
(PID.TID 0000.0001) %MON forcing_qsw_max              =   0.0000000000000E+00
(PID.TID 0000.0001) %MON forcing_qsw_min              =   0.0000000000000E+00
(PID.TID 0000.0001) %MON forcing_qsw_mean             =   0.0000000000000E+00
(PID.TID 0000.0001) %MON forcing_qsw_sd               =   0.0000000000000E+00
(PID.TID 0000.0001) %MON forcing_qsw_del2             =   0.0000000000000E+00
(PID.TID 0000.0001) %MON forcing_empmr_max            =   8.1889273909989E-05
(PID.TID 0000.0001) %MON forcing_empmr_min            =  -7.2333472189712E-05
(PID.TID 0000.0001) %MON forcing_empmr_mean           =   8.4477900014659E-07
(PID.TID 0000.0001) %MON forcing_empmr_sd             =   2.8146998273902E-05
(PID.TID 0000.0001) %MON forcing_empmr_del2           =   3.6268469487418E-07
(PID.TID 0000.0001) %MON forcing_fu_max               =   2.6985520720482E-01
(PID.TID 0000.0001) %MON forcing_fu_min               =  -1.6437321007252E-01
(PID.TID 0000.0001) %MON forcing_fu_mean              =   1.6063277720863E-02
(PID.TID 0000.0001) %MON forcing_fu_sd                =   9.0275341241088E-02
(PID.TID 0000.0001) %MON forcing_fu_del2              =   6.7327842425542E-04
(PID.TID 0000.0001) %MON forcing_fv_max               =   2.1808207929134E-01
(PID.TID 0000.0001) %MON forcing_fv_min               =  -1.8281415998936E-01
(PID.TID 0000.0001) %MON forcing_fv_mean              =  -5.8489979543916E-03
(PID.TID 0000.0001) %MON forcing_fv_sd                =   4.6198708258185E-02
(PID.TID 0000.0001) %MON forcing_fv_del2              =   4.5690396795039E-04
(PID.TID 0000.0001) %MON trAdv_CFL_u_max              =   6.5893599247360E-02
(PID.TID 0000.0001) %MON trAdv_CFL_v_max              =   3.2085589181305E-02
(PID.TID 0000.0001) %MON trAdv_CFL_w_max              =   1.1938797074911E-01
(PID.TID 0000.0001) %MON advcfl_uvel_max              =   9.6355692860463E-02
(PID.TID 0000.0001) %MON advcfl_vvel_max              =   2.9053336701565E-02
(PID.TID 0000.0001) %MON advcfl_wvel_max              =   1.3605206269280E-01
(PID.TID 0000.0001) %MON advcfl_W_hf_max              =   1.6034707388795E-01
(PID.TID 0000.0001) %MON pe_b_mean                    =   1.7882627020812E-03
(PID.TID 0000.0001) %MON ke_max                       =   1.8012822960579E-02
(PID.TID 0000.0001) %MON ke_mean                      =   2.2140845946825E-04
(PID.TID 0000.0001) %MON ke_vol                       =   1.3226782436723E+18
(PID.TID 0000.0001) %MON vort_r_min                   =  -1.1646819535683E-06
(PID.TID 0000.0001) %MON vort_r_max                   =   1.0812846712670E-06
(PID.TID 0000.0001) %MON vort_a_mean                  =  -2.5274806215313E-05
(PID.TID 0000.0001) %MON vort_a_sd                    =   7.3605958836060E-05
(PID.TID 0000.0001) %MON vort_p_mean                  =  -3.1845654310006E-05
(PID.TID 0000.0001) %MON vort_p_sd                    =   1.3162287328625E-04
(PID.TID 0000.0001) %MON surfExpan_theta_mean         =   1.4605241605917E-05
(PID.TID 0000.0001) %MON surfExpan_salt_mean          =   5.8168877211061E-07
(PID.TID 0000.0001) // =======================================================
(PID.TID 0000.0001) // End MONITOR dynamic field statistics
(PID.TID 0000.0001) // =======================================================
 EXTERNAL_FIELDS_LOAD,         8 : iP,iLd,i0,i1=   12    1   12    1 ; Wght=  0.2333333333  0.7666666667
 EXTERNAL_FIELDS_LOAD: (fu0,1),fu,fv= -4.5368E-02 -3.5633E-02 -3.7904E-02 -6.0288E-02
 EXTERNAL_FIELDS_LOAD: SST,SSS,Q,E-P=  5.3596E-01  3.4551E+01  2.6546E+02  1.1266E-05
DEBUG_STATS_RL:          Uvel (THERMODYNAMICS)  min= -1.79963933281355E-01
DEBUG_STATS_RL:          Uvel (THERMODYNAMICS)  max=  1.74894930883160E-01
DEBUG_STATS_RL:          Uvel (THERMODYNAMICS) mean=  9.90252706130427E-03
DEBUG_STATS_RL:          Uvel (THERMODYNAMICS) S.D.=  2.28652609527073E-02
DEBUG_STATS_RL:          Vvel (THERMODYNAMICS)  min= -1.49540581802130E-01
DEBUG_STATS_RL:          Vvel (THERMODYNAMICS)  max=  1.44392593188667E-01
DEBUG_STATS_RL:          Vvel (THERMODYNAMICS) mean= -2.37778233456032E-03
DEBUG_STATS_RL:          Vvel (THERMODYNAMICS) S.D.=  1.88727174578072E-02
DEBUG_STATS_RL:          Wvel (THERMODYNAMICS)  min= -2.59821647503618E-04
DEBUG_STATS_RL:          Wvel (THERMODYNAMICS)  max=  2.52111561606317E-04
DEBUG_STATS_RL:          Wvel (THERMODYNAMICS) mean= -1.03978176282471E-06
DEBUG_STATS_RL:          Wvel (THERMODYNAMICS) S.D.=  2.58630928797601E-05
DEBUG_STATS_RL:         Theta (THERMODYNAMICS)  min= -1.92457215515128E+00
DEBUG_STATS_RL:         Theta (THERMODYNAMICS)  max=  2.99363519374227E+01
DEBUG_STATS_RL:         Theta (THERMODYNAMICS) mean=  3.23292555960933E+00
DEBUG_STATS_RL:         Theta (THERMODYNAMICS) S.D.=  5.85183010898061E+00
DEBUG_STATS_RL:          Salt (THERMODYNAMICS)  min=  3.00000000000000E-02
DEBUG_STATS_RL:          Salt (THERMODYNAMICS)  max=  3.74669728516231E+01
DEBUG_STATS_RL:          Salt (THERMODYNAMICS) mean=  1.88752133174076E+01
DEBUG_STATS_RL:          Salt (THERMODYNAMICS) S.D.=  1.73006807181823E+01
DEBUG_STATS_RL:         GtNm1 (THERMODYNAMICS)  min= -3.76848362370112E-06
DEBUG_STATS_RL:         GtNm1 (THERMODYNAMICS)  max=  2.41945195664279E-06
DEBUG_STATS_RL:         GtNm1 (THERMODYNAMICS) mean=  1.39502241041458E-08
DEBUG_STATS_RL:         GtNm1 (THERMODYNAMICS) S.D.=  2.87487306740228E-07
DEBUG_STATS_RL:         GsNm1 (THERMODYNAMICS)  min= -4.80863268430595E-07
DEBUG_STATS_RL:         GsNm1 (THERMODYNAMICS)  max=  4.25006723109578E-07
DEBUG_STATS_RL:         GsNm1 (THERMODYNAMICS) mean= -6.04870187990844E-10
DEBUG_STATS_RL:         GsNm1 (THERMODYNAMICS) S.D.=  2.44413129719130E-08
DEBUG_STATS_RL:                EtaN (DYNAMICS)  min= -2.42594937125229E+00
DEBUG_STATS_RL:                EtaN (DYNAMICS)  max=  6.34848279534271E+00
DEBUG_STATS_RL:                EtaN (DYNAMICS) mean= -3.22118196128124E-02
DEBUG_STATS_RL:                EtaN (DYNAMICS) S.D.=  1.12325529754588E+00
DEBUG_STATS_RL:                Uvel (DYNAMICS)  min= -1.79963933281355E-01
DEBUG_STATS_RL:                Uvel (DYNAMICS)  max=  1.74894930883160E-01
DEBUG_STATS_RL:                Uvel (DYNAMICS) mean=  9.90252706130427E-03
DEBUG_STATS_RL:                Uvel (DYNAMICS) S.D.=  2.28652609527073E-02
DEBUG_STATS_RL:                Vvel (DYNAMICS)  min= -1.49540581802130E-01
DEBUG_STATS_RL:                Vvel (DYNAMICS)  max=  1.44392593188667E-01
DEBUG_STATS_RL:                Vvel (DYNAMICS) mean= -2.37778233456032E-03
DEBUG_STATS_RL:                Vvel (DYNAMICS) S.D.=  1.88727174578072E-02
DEBUG_STATS_RL:                Wvel (DYNAMICS)  min= -2.59821647503618E-04
DEBUG_STATS_RL:                Wvel (DYNAMICS)  max=  2.52111561606317E-04
DEBUG_STATS_RL:                Wvel (DYNAMICS) mean= -1.03978176282471E-06
DEBUG_STATS_RL:                Wvel (DYNAMICS) S.D.=  2.58630928797601E-05
DEBUG_STATS_RL:               Theta (DYNAMICS)  min= -1.92457215515128E+00
DEBUG_STATS_RL:               Theta (DYNAMICS)  max=  2.99363519374227E+01
DEBUG_STATS_RL:               Theta (DYNAMICS) mean=  3.23292555960933E+00
DEBUG_STATS_RL:               Theta (DYNAMICS) S.D.=  5.85183010898061E+00
DEBUG_STATS_RL:                Salt (DYNAMICS)  min=  3.00000000000000E-02
DEBUG_STATS_RL:                Salt (DYNAMICS)  max=  3.74669728516231E+01
DEBUG_STATS_RL:                Salt (DYNAMICS) mean=  1.88752133174076E+01
DEBUG_STATS_RL:                Salt (DYNAMICS) S.D.=  1.73006807181823E+01
DEBUG_STATS_RL:                  Gu (DYNAMICS)  min= -1.75510746098568E-01
DEBUG_STATS_RL:                  Gu (DYNAMICS)  max=  1.62575077525802E-01
DEBUG_STATS_RL:                  Gu (DYNAMICS) mean=  6.46863391135482E-03
DEBUG_STATS_RL:                  Gu (DYNAMICS) S.D.=  2.41032134390670E-02
DEBUG_STATS_RL:                  Gv (DYNAMICS)  min= -1.18573974268613E-01
DEBUG_STATS_RL:                  Gv (DYNAMICS)  max=  1.39503446310929E-01
DEBUG_STATS_RL:                  Gv (DYNAMICS) mean= -1.87566536889792E-03
DEBUG_STATS_RL:                  Gv (DYNAMICS) S.D.=  1.86327048832381E-02
DEBUG_STATS_RL:               GuNm1 (DYNAMICS)  min= -7.23435874053871E-06
DEBUG_STATS_RL:               GuNm1 (DYNAMICS)  max=  7.72982986091251E-06
DEBUG_STATS_RL:               GuNm1 (DYNAMICS) mean= -4.36804612329284E-08
DEBUG_STATS_RL:               GuNm1 (DYNAMICS) S.D.=  1.20976824300008E-06
DEBUG_STATS_RL:               GvNm1 (DYNAMICS)  min= -9.94698135203226E-06
DEBUG_STATS_RL:               GvNm1 (DYNAMICS)  max=  1.63724636644888E-05
DEBUG_STATS_RL:               GvNm1 (DYNAMICS) mean=  7.82983953771712E-07
DEBUG_STATS_RL:               GvNm1 (DYNAMICS) S.D.=  2.68730622471458E-06
DEBUG_STATS_RL:               GtNm1 (DYNAMICS)  min= -3.76848362370112E-06
DEBUG_STATS_RL:               GtNm1 (DYNAMICS)  max=  2.41945195664279E-06
DEBUG_STATS_RL:               GtNm1 (DYNAMICS) mean=  1.39502241041458E-08
DEBUG_STATS_RL:               GtNm1 (DYNAMICS) S.D.=  2.87487306740228E-07
DEBUG_STATS_RL:               GsNm1 (DYNAMICS)  min= -4.80863268430595E-07
DEBUG_STATS_RL:               GsNm1 (DYNAMICS)  max=  4.25006723109578E-07
DEBUG_STATS_RL:               GsNm1 (DYNAMICS) mean= -6.04870187990844E-10
DEBUG_STATS_RL:               GsNm1 (DYNAMICS) S.D.=  2.44413129719130E-08
DEBUG_STATS_RL:    cg2d_b (SOLVE_FOR_PRESSURE)  min= -2.44008190934318E+04
DEBUG_STATS_RL:    cg2d_b (SOLVE_FOR_PRESSURE)  max=  1.88622589292230E+04
DEBUG_STATS_RL:    cg2d_b (SOLVE_FOR_PRESSURE) mean=  5.87195746255196E-01
DEBUG_STATS_RL:    cg2d_b (SOLVE_FOR_PRESSURE) S.D.=  4.21233453880663E+03
 cg2d: Sum(rhs),rhsMax =   5.57095295602334E-02  1.60271112943703E+00
(PID.TID 0000.0001)  cg2d: iter=     1 ; resid.=  1.41306227765425E+00
(PID.TID 0000.0001)  cg2d: iter=     2 ; resid.=  1.62603963235341E+00
(PID.TID 0000.0001)  cg2d: iter=     3 ; resid.=  1.40390936358905E+00
(PID.TID 0000.0001)  cg2d: iter=     4 ; resid.=  1.12172996360671E+00
(PID.TID 0000.0001)  cg2d: iter=     5 ; resid.=  9.61802024951452E-01
(PID.TID 0000.0001)  cg2d: iter=     6 ; resid.=  7.45483592497405E-01
(PID.TID 0000.0001)  cg2d: iter=     7 ; resid.=  6.00265777884547E-01
(PID.TID 0000.0001)  cg2d: iter=     8 ; resid.=  5.21271283119323E-01
(PID.TID 0000.0001)  cg2d: iter=     9 ; resid.=  4.94614543789345E-01
(PID.TID 0000.0001)  cg2d: iter=    10 ; resid.=  4.24928998480266E-01
(PID.TID 0000.0001)  cg2d: iter=    11 ; resid.=  3.35667563929857E-01
(PID.TID 0000.0001)  cg2d: iter=    12 ; resid.=  2.83685414669558E-01
(PID.TID 0000.0001)  cg2d: iter=    13 ; resid.=  2.57247532235457E-01
(PID.TID 0000.0001)  cg2d: iter=    14 ; resid.=  2.44433720254205E-01
(PID.TID 0000.0001)  cg2d: iter=    15 ; resid.=  2.06592659747293E-01
(PID.TID 0000.0001)  cg2d: iter=    16 ; resid.=  1.88130201383965E-01
(PID.TID 0000.0001)  cg2d: iter=    17 ; resid.=  1.43163247785184E-01
(PID.TID 0000.0001)  cg2d: iter=    18 ; resid.=  1.05950358439986E-01
(PID.TID 0000.0001)  cg2d: iter=    19 ; resid.=  7.48100146831161E-02
(PID.TID 0000.0001)  cg2d: iter=    20 ; resid.=  6.00750171612563E-02
(PID.TID 0000.0001)  cg2d: iter=    21 ; resid.=  5.07649615124301E-02
(PID.TID 0000.0001)  cg2d: iter=    22 ; resid.=  4.52807214488669E-02
(PID.TID 0000.0001)  cg2d: iter=    23 ; resid.=  3.66376441651974E-02
(PID.TID 0000.0001)  cg2d: iter=    24 ; resid.=  3.10871288534816E-02
(PID.TID 0000.0001)  cg2d: iter=    25 ; resid.=  2.35009272245424E-02
(PID.TID 0000.0001)  cg2d: iter=    26 ; resid.=  2.24194956236144E-02
(PID.TID 0000.0001)  cg2d: iter=    27 ; resid.=  2.00922126037264E-02
(PID.TID 0000.0001)  cg2d: iter=    28 ; resid.=  1.84520405215364E-02
(PID.TID 0000.0001)  cg2d: iter=    29 ; resid.=  1.55801769880494E-02
(PID.TID 0000.0001)  cg2d: iter=    30 ; resid.=  1.37431876680913E-02
(PID.TID 0000.0001)  cg2d: iter=    31 ; resid.=  1.05711208195671E-02
(PID.TID 0000.0001)  cg2d: iter=    32 ; resid.=  8.32302093136266E-03
(PID.TID 0000.0001)  cg2d: iter=    33 ; resid.=  7.20827052321089E-03
(PID.TID 0000.0001)  cg2d: iter=    34 ; resid.=  5.87229720668864E-03
(PID.TID 0000.0001)  cg2d: iter=    35 ; resid.=  4.83686460937965E-03
(PID.TID 0000.0001)  cg2d: iter=    36 ; resid.=  4.16113866175595E-03
(PID.TID 0000.0001)  cg2d: iter=    37 ; resid.=  3.49946148318327E-03
(PID.TID 0000.0001)  cg2d: iter=    38 ; resid.=  2.76807305943706E-03
(PID.TID 0000.0001)  cg2d: iter=    39 ; resid.=  2.27175895501371E-03
(PID.TID 0000.0001)  cg2d: iter=    40 ; resid.=  2.06746213710719E-03
(PID.TID 0000.0001)  cg2d: iter=    41 ; resid.=  1.70136429576277E-03
(PID.TID 0000.0001)  cg2d: iter=    42 ; resid.=  1.55176227252263E-03
(PID.TID 0000.0001)  cg2d: iter=    43 ; resid.=  1.17648646931268E-03
(PID.TID 0000.0001)  cg2d: iter=    44 ; resid.=  9.65954027690876E-04
(PID.TID 0000.0001)  cg2d: iter=    45 ; resid.=  7.75555232680321E-04
(PID.TID 0000.0001)  cg2d: iter=    46 ; resid.=  7.22095805169799E-04
(PID.TID 0000.0001)  cg2d: iter=    47 ; resid.=  6.53199882832055E-04
(PID.TID 0000.0001)  cg2d: iter=    48 ; resid.=  5.16873057966838E-04
(PID.TID 0000.0001)  cg2d: iter=    49 ; resid.=  3.83773078668165E-04
(PID.TID 0000.0001)  cg2d: iter=    50 ; resid.=  3.20557326542799E-04
(PID.TID 0000.0001)  cg2d: iter=    51 ; resid.=  2.82612456076554E-04
(PID.TID 0000.0001)  cg2d: iter=    52 ; resid.=  2.31469917098899E-04
(PID.TID 0000.0001)  cg2d: iter=    53 ; resid.=  1.87757265138601E-04
(PID.TID 0000.0001)  cg2d: iter=    54 ; resid.=  1.42551824062098E-04
(PID.TID 0000.0001)  cg2d: iter=    55 ; resid.=  1.11061052657255E-04
(PID.TID 0000.0001)  cg2d: iter=    56 ; resid.=  8.86090184275447E-05
(PID.TID 0000.0001)  cg2d: iter=    57 ; resid.=  7.08575809223894E-05
(PID.TID 0000.0001)  cg2d: iter=    58 ; resid.=  5.60834023976451E-05
(PID.TID 0000.0001)  cg2d: iter=    59 ; resid.=  4.86777693264712E-05
(PID.TID 0000.0001)  cg2d: iter=    60 ; resid.=  4.02622317244761E-05
(PID.TID 0000.0001)  cg2d: iter=    61 ; resid.=  3.38764254061046E-05
(PID.TID 0000.0001)  cg2d: iter=    62 ; resid.=  2.80932151476295E-05
(PID.TID 0000.0001)  cg2d: iter=    63 ; resid.=  2.66692106114991E-05
(PID.TID 0000.0001)  cg2d: iter=    64 ; resid.=  2.36952593202653E-05
(PID.TID 0000.0001)  cg2d: iter=    65 ; resid.=  1.89305558302738E-05
(PID.TID 0000.0001)  cg2d: iter=    66 ; resid.=  1.40710611329293E-05
(PID.TID 0000.0001)  cg2d: iter=    67 ; resid.=  1.20035161650789E-05
(PID.TID 0000.0001)  cg2d: iter=    68 ; resid.=  1.08565601687055E-05
(PID.TID 0000.0001)  cg2d: iter=    69 ; resid.=  9.39511878461676E-06
(PID.TID 0000.0001)  cg2d: iter=    70 ; resid.=  7.62538389434084E-06
(PID.TID 0000.0001)  cg2d: iter=    71 ; resid.=  5.83604686635502E-06
(PID.TID 0000.0001)  cg2d: iter=    72 ; resid.=  4.68611044344867E-06
(PID.TID 0000.0001)  cg2d: iter=    73 ; resid.=  3.76910303316961E-06
(PID.TID 0000.0001)  cg2d: iter=    74 ; resid.=  2.90508871689540E-06
(PID.TID 0000.0001)  cg2d: iter=    75 ; resid.=  2.28690982973587E-06
(PID.TID 0000.0001)  cg2d: iter=    76 ; resid.=  1.79998861196696E-06
(PID.TID 0000.0001)  cg2d: iter=    77 ; resid.=  1.48718979537660E-06
(PID.TID 0000.0001)  cg2d: iter=    78 ; resid.=  1.11113589416471E-06
(PID.TID 0000.0001)  cg2d: iter=    79 ; resid.=  8.52800047733238E-07
(PID.TID 0000.0001)  cg2d: iter=    80 ; resid.=  6.39864217121514E-07
(PID.TID 0000.0001)  cg2d: iter=    81 ; resid.=  4.71774375150125E-07
(PID.TID 0000.0001)  cg2d: iter=    82 ; resid.=  3.47277519239937E-07
(PID.TID 0000.0001)  cg2d: iter=    83 ; resid.=  2.74102719654807E-07
(PID.TID 0000.0001)  cg2d: iter=    84 ; resid.=  2.14802482987802E-07
(PID.TID 0000.0001)  cg2d: iter=    85 ; resid.=  1.69391227878560E-07
(PID.TID 0000.0001)  cg2d: iter=    86 ; resid.=  1.46990811027179E-07
(PID.TID 0000.0001)  cg2d: iter=    87 ; resid.=  1.25096736030800E-07
(PID.TID 0000.0001)  cg2d: iter=    88 ; resid.=  1.07768123817638E-07
(PID.TID 0000.0001)  cg2d: iter=    89 ; resid.=  9.18392007259272E-08
(PID.TID 0000.0001)  cg2d: iter=    90 ; resid.=  7.35088680011825E-08
(PID.TID 0000.0001)  cg2d: iter=    91 ; resid.=  6.13496079777665E-08
(PID.TID 0000.0001)  cg2d: iter=    92 ; resid.=  4.66373507524546E-08
(PID.TID 0000.0001)  cg2d: iter=    93 ; resid.=  3.55454472258556E-08
(PID.TID 0000.0001)  cg2d: iter=    94 ; resid.=  2.86714823892854E-08
(PID.TID 0000.0001)  cg2d: iter=    95 ; resid.=  2.31753330236804E-08
(PID.TID 0000.0001)  cg2d: iter=    96 ; resid.=  1.71730219953596E-08
(PID.TID 0000.0001)  cg2d: iter=    97 ; resid.=  1.40397527823273E-08
(PID.TID 0000.0001)  cg2d: iter=    98 ; resid.=  1.12133328840229E-08
(PID.TID 0000.0001)  cg2d: iter=    99 ; resid.=  8.45842697642058E-09
(PID.TID 0000.0001)  cg2d: iter=   100 ; resid.=  6.51146106865663E-09
(PID.TID 0000.0001)  cg2d: iter=   101 ; resid.=  4.83033597164684E-09
(PID.TID 0000.0001)  cg2d: iter=   102 ; resid.=  4.31260531341959E-09
(PID.TID 0000.0001)  cg2d: iter=   103 ; resid.=  3.46345808186368E-09
(PID.TID 0000.0001)  cg2d: iter=   104 ; resid.=  2.94895645774604E-09
(PID.TID 0000.0001)  cg2d: iter=   105 ; resid.=  2.28237386058521E-09
(PID.TID 0000.0001)  cg2d: iter=   106 ; resid.=  1.94170061543293E-09
(PID.TID 0000.0001)  cg2d: iter=   107 ; resid.=  1.49022045537910E-09
(PID.TID 0000.0001)  cg2d: iter=   108 ; resid.=  1.14475348874249E-09
(PID.TID 0000.0001)  cg2d: iter=   109 ; resid.=  9.27653640201299E-10
(PID.TID 0000.0001)  cg2d: iter=   110 ; resid.=  7.78358067048999E-10
(PID.TID 0000.0001)  cg2d: iter=   111 ; resid.=  5.99917892635133E-10
(PID.TID 0000.0001)  cg2d: iter=   112 ; resid.=  4.66861783404302E-10
(PID.TID 0000.0001)  cg2d: iter=   113 ; resid.=  3.93422798668361E-10
(PID.TID 0000.0001)  cg2d: iter=   114 ; resid.=  3.09253783629290E-10
(PID.TID 0000.0001)  cg2d: iter=   115 ; resid.=  2.37449352000506E-10
(PID.TID 0000.0001)  cg2d: iter=   116 ; resid.=  1.80652850488159E-10
(PID.TID 0000.0001)  cg2d: iter=   117 ; resid.=  1.41630967943531E-10
(PID.TID 0000.0001)  cg2d: iter=   118 ; resid.=  1.08699328622005E-10
(PID.TID 0000.0001)  cg2d: iter=   119 ; resid.=  8.88138243599432E-11
(PID.TID 0000.0001)  cg2d: iter=   120 ; resid.=  7.20365389568625E-11
(PID.TID 0000.0001)  cg2d: iter=   121 ; resid.=  5.04078632554969E-11
(PID.TID 0000.0001)  cg2d: iter=   122 ; resid.=  3.39842876632362E-11
(PID.TID 0000.0001)  cg2d: iter=   123 ; resid.=  2.33890686329640E-11
(PID.TID 0000.0001)  cg2d: iter=   124 ; resid.=  1.59358050462431E-11
(PID.TID 0000.0001)  cg2d: iter=   125 ; resid.=  1.16742197730903E-11
(PID.TID 0000.0001)  cg2d: iter=   126 ; resid.=  8.16078819430842E-12
(PID.TID 0000.0001)  cg2d: iter=   127 ; resid.=  6.22195128929050E-12
(PID.TID 0000.0001)  cg2d: iter=   128 ; resid.=  4.78603499312316E-12
(PID.TID 0000.0001)  cg2d: iter=   129 ; resid.=  3.51401249807050E-12
(PID.TID 0000.0001)  cg2d: iter=   130 ; resid.=  2.73293714981343E-12
(PID.TID 0000.0001)  cg2d: iter=   131 ; resid.=  2.21439064913678E-12
(PID.TID 0000.0001)  cg2d: iter=   132 ; resid.=  1.62965267821663E-12
(PID.TID 0000.0001)  cg2d: iter=   133 ; resid.=  1.27063256996639E-12
(PID.TID 0000.0001)  cg2d: iter=   134 ; resid.=  1.03523273580535E-12
(PID.TID 0000.0001)  cg2d: iter=   135 ; resid.=  8.03664428512789E-13
(PID.TID 0000.0001)  cg2d: iter=   136 ; resid.=  5.68975049774089E-13
(PID.TID 0000.0001)  cg2d: iter=   137 ; resid.=  4.00875588540097E-13
(PID.TID 0000.0001)  cg2d: iter=   138 ; resid.=  3.02957498878517E-13
(PID.TID 0000.0001)  cg2d: iter=   139 ; resid.=  2.33148990067850E-13
(PID.TID 0000.0001)  cg2d: iter=   140 ; resid.=  1.67875131326719E-13
(PID.TID 0000.0001)  cg2d: iter=   141 ; resid.=  1.12045618253945E-13
(PID.TID 0000.0001)  cg2d: iter=   142 ; resid.=  8.13181765467878E-14
DEBUG_STATS_RL:    cg2d_x (SOLVE_FOR_PRESSURE)  min= -3.17708225356143E+01
DEBUG_STATS_RL:    cg2d_x (SOLVE_FOR_PRESSURE)  max=  6.15411063314194E+01
DEBUG_STATS_RL:    cg2d_x (SOLVE_FOR_PRESSURE) mean= -1.06773980895809E+00
DEBUG_STATS_RL:    cg2d_x (SOLVE_FOR_PRESSURE) S.D.=  1.05323649326524E+01
(PID.TID 0000.0001)      cg2d_init_res =   1.34464341428446E+00
(PID.TID 0000.0001)      cg2d_iters(min,last) =      -1     142
(PID.TID 0000.0001)      cg2d_last_res =   8.13181765467878E-14
(PID.TID 0000.0001) // =======================================================
(PID.TID 0000.0001) // Begin MONITOR dynamic field statistics
(PID.TID 0000.0001) // =======================================================
(PID.TID 0000.0001) %MON time_tsnumber                =                     9
(PID.TID 0000.0001) %MON time_secondsf                =   7.7760000000000E+05
(PID.TID 0000.0001) %MON dynstat_eta_max              =   6.2733033976982E+00
(PID.TID 0000.0001) %MON dynstat_eta_min              =  -3.2386159567395E+00
(PID.TID 0000.0001) %MON dynstat_eta_mean             =  -6.1266595134799E-04
(PID.TID 0000.0001) %MON dynstat_eta_sd               =   1.0697823269878E+00
(PID.TID 0000.0001) %MON dynstat_eta_del2             =   2.7935624073728E-03
(PID.TID 0000.0001) %MON dynstat_uvel_max             =   1.6317060876477E-01
(PID.TID 0000.0001) %MON dynstat_uvel_min             =  -1.6650480641040E-01
(PID.TID 0000.0001) %MON dynstat_uvel_mean            =   5.9767259440172E-03
(PID.TID 0000.0001) %MON dynstat_uvel_sd              =   1.6449350612189E-02
(PID.TID 0000.0001) %MON dynstat_uvel_del2            =   1.0681034962059E-04
(PID.TID 0000.0001) %MON dynstat_vvel_max             =   1.3013250659369E-01
(PID.TID 0000.0001) %MON dynstat_vvel_min             =  -1.3670306002807E-01
(PID.TID 0000.0001) %MON dynstat_vvel_mean            =   5.8563790517307E-05
(PID.TID 0000.0001) %MON dynstat_vvel_sd              =   1.3755744533850E-02
(PID.TID 0000.0001) %MON dynstat_vvel_del2            =   1.1833469789735E-04
(PID.TID 0000.0001) %MON dynstat_wvel_max             =   2.3312818956377E-04
(PID.TID 0000.0001) %MON dynstat_wvel_min             =  -2.9682417163917E-04
(PID.TID 0000.0001) %MON dynstat_wvel_mean            =   2.2845175191741E-22
(PID.TID 0000.0001) %MON dynstat_wvel_sd              =   2.7058910978671E-05
(PID.TID 0000.0001) %MON dynstat_wvel_del2            =   3.2836995068353E-07
(PID.TID 0000.0001) %MON dynstat_theta_max            =   2.9936351937423E+01
(PID.TID 0000.0001) %MON dynstat_theta_min            =  -1.9245721551513E+00
(PID.TID 0000.0001) %MON dynstat_theta_mean           =   3.6497161165808E+00
(PID.TID 0000.0001) %MON dynstat_theta_sd             =   4.4163530587384E+00
(PID.TID 0000.0001) %MON dynstat_theta_del2           =   5.1797329098370E-03
(PID.TID 0000.0001) %MON dynstat_salt_max             =   3.7466972851623E+01
(PID.TID 0000.0001) %MON dynstat_salt_min             =   2.9830332050123E+01
(PID.TID 0000.0001) %MON dynstat_salt_mean            =   3.4748016368475E+01
(PID.TID 0000.0001) %MON dynstat_salt_sd              =   2.9617727342793E-01
(PID.TID 0000.0001) %MON dynstat_salt_del2            =   1.0121729130388E-03
(PID.TID 0000.0001) %MON dynstat_sst_max              =   2.9936351937423E+01
(PID.TID 0000.0001) %MON dynstat_sst_min              =  -1.9245721551513E+00
(PID.TID 0000.0001) %MON dynstat_sst_mean             =   1.8620030527860E+01
(PID.TID 0000.0001) %MON dynstat_sst_sd               =   9.1020637904044E+00
(PID.TID 0000.0001) %MON dynstat_sst_del2             =   2.6342048586976E-02
(PID.TID 0000.0001) %MON dynstat_sss_max              =   3.7462052042109E+01
(PID.TID 0000.0001) %MON dynstat_sss_min              =   2.9830332050123E+01
(PID.TID 0000.0001) %MON dynstat_sss_mean             =   3.4883788718433E+01
(PID.TID 0000.0001) %MON dynstat_sss_sd               =   9.6685866964308E-01
(PID.TID 0000.0001) %MON dynstat_sss_del2             =   8.0161747607937E-03
(PID.TID 0000.0001) %MON forcing_qnet_max             =   4.3427630615234E+02
(PID.TID 0000.0001) %MON forcing_qnet_min             =  -1.8328968454997E+02
(PID.TID 0000.0001) %MON forcing_qnet_mean            =  -1.6600109691805E+01
(PID.TID 0000.0001) %MON forcing_qnet_sd              =   1.1119125063866E+02
(PID.TID 0000.0001) %MON forcing_qnet_del2            =   1.0040237369794E+00
(PID.TID 0000.0001) %MON forcing_qsw_max              =   0.0000000000000E+00
(PID.TID 0000.0001) %MON forcing_qsw_min              =   0.0000000000000E+00
(PID.TID 0000.0001) %MON forcing_qsw_mean             =   0.0000000000000E+00
(PID.TID 0000.0001) %MON forcing_qsw_sd               =   0.0000000000000E+00
(PID.TID 0000.0001) %MON forcing_qsw_del2             =   0.0000000000000E+00
(PID.TID 0000.0001) %MON forcing_empmr_max            =   8.1890940369552E-05
(PID.TID 0000.0001) %MON forcing_empmr_min            =  -7.2715819499081E-05
(PID.TID 0000.0001) %MON forcing_empmr_mean           =   8.5454875789209E-07
(PID.TID 0000.0001) %MON forcing_empmr_sd             =   2.8214283860046E-05
(PID.TID 0000.0001) %MON forcing_empmr_del2           =   3.6290034923196E-07
(PID.TID 0000.0001) %MON forcing_fu_max               =   2.6993649601936E-01
(PID.TID 0000.0001) %MON forcing_fu_min               =  -1.6518663018942E-01
(PID.TID 0000.0001) %MON forcing_fu_mean              =   1.6055584899826E-02
(PID.TID 0000.0001) %MON forcing_fu_sd                =   9.0336157001452E-02
(PID.TID 0000.0001) %MON forcing_fu_del2              =   6.7811877937571E-04
(PID.TID 0000.0001) %MON forcing_fv_max               =   2.1996198445559E-01
(PID.TID 0000.0001) %MON forcing_fv_min               =  -1.8222950249910E-01
(PID.TID 0000.0001) %MON forcing_fv_mean              =  -5.7752354275307E-03
(PID.TID 0000.0001) %MON forcing_fv_sd                =   4.6406538642117E-02
(PID.TID 0000.0001) %MON forcing_fv_del2              =   4.6058148956476E-04
(PID.TID 0000.0001) %MON trAdv_CFL_u_max              =   9.6375263390830E-02
(PID.TID 0000.0001) %MON trAdv_CFL_v_max              =   3.1827897370312E-02
(PID.TID 0000.0001) %MON trAdv_CFL_w_max              =   1.6034707388795E-01
(PID.TID 0000.0001) %MON advcfl_uvel_max              =   1.1588913171487E-01
(PID.TID 0000.0001) %MON advcfl_vvel_max              =   2.6559212109961E-02
(PID.TID 0000.0001) %MON advcfl_wvel_max              =   1.5542792987651E-01
(PID.TID 0000.0001) %MON advcfl_W_hf_max              =   1.8318291735446E-01
(PID.TID 0000.0001) %MON pe_b_mean                    =   1.4644420158348E-03
(PID.TID 0000.0001) %MON ke_max                       =   1.6780911661960E-02
(PID.TID 0000.0001) %MON ke_mean                      =   2.2410873132516E-04
(PID.TID 0000.0001) %MON ke_vol                       =   1.3226782436723E+18
(PID.TID 0000.0001) %MON vort_r_min                   =  -1.3182793337713E-06
(PID.TID 0000.0001) %MON vort_r_max                   =   1.0023116473981E-06
(PID.TID 0000.0001) %MON vort_a_mean                  =  -2.5274805435220E-05
(PID.TID 0000.0001) %MON vort_a_sd                    =   7.3605845649068E-05
(PID.TID 0000.0001) %MON vort_p_mean                  =  -3.1845653327108E-05
(PID.TID 0000.0001) %MON vort_p_sd                    =   1.3162238042786E-04
(PID.TID 0000.0001) %MON surfExpan_theta_mean         =   1.7214581678210E-05
(PID.TID 0000.0001) %MON surfExpan_salt_mean          =   7.4044976923528E-07
(PID.TID 0000.0001) // =======================================================
(PID.TID 0000.0001) // End MONITOR dynamic field statistics
(PID.TID 0000.0001) // =======================================================
 EXTERNAL_FIELDS_LOAD,         9 : iP,iLd,i0,i1=   12    1   12    1 ; Wght=  0.2000000000  0.8000000000
 EXTERNAL_FIELDS_LOAD: (fu0,1),fu,fv= -4.5368E-02 -3.5633E-02 -3.7580E-02 -5.9855E-02
 EXTERNAL_FIELDS_LOAD: SST,SSS,Q,E-P=  5.9632E-01  3.4574E+01  2.6550E+02  1.1319E-05
DEBUG_STATS_RL:          Uvel (THERMODYNAMICS)  min= -1.66504806410399E-01
DEBUG_STATS_RL:          Uvel (THERMODYNAMICS)  max=  1.63170608764774E-01
DEBUG_STATS_RL:          Uvel (THERMODYNAMICS) mean=  8.80973175538344E-03
DEBUG_STATS_RL:          Uvel (THERMODYNAMICS) S.D.=  2.37682418658573E-02
DEBUG_STATS_RL:          Vvel (THERMODYNAMICS)  min= -1.36703060028072E-01
DEBUG_STATS_RL:          Vvel (THERMODYNAMICS)  max=  1.30132506593692E-01
DEBUG_STATS_RL:          Vvel (THERMODYNAMICS) mean= -1.38058104049111E-03
DEBUG_STATS_RL:          Vvel (THERMODYNAMICS) S.D.=  1.86586338311189E-02
DEBUG_STATS_RL:          Wvel (THERMODYNAMICS)  min= -2.96824171639172E-04
DEBUG_STATS_RL:          Wvel (THERMODYNAMICS)  max=  2.33128189563771E-04
DEBUG_STATS_RL:          Wvel (THERMODYNAMICS) mean= -1.08382940231776E-06
DEBUG_STATS_RL:          Wvel (THERMODYNAMICS) S.D.=  2.52665849365801E-05
DEBUG_STATS_RL:         Theta (THERMODYNAMICS)  min= -1.93331624263109E+00
DEBUG_STATS_RL:         Theta (THERMODYNAMICS)  max=  2.99236471754419E+01
DEBUG_STATS_RL:         Theta (THERMODYNAMICS) mean=  3.23340116553649E+00
DEBUG_STATS_RL:         Theta (THERMODYNAMICS) S.D.=  5.85136004540380E+00
DEBUG_STATS_RL:          Salt (THERMODYNAMICS)  min=  3.00000000000000E-02
DEBUG_STATS_RL:          Salt (THERMODYNAMICS)  max=  3.74670874940772E+01
DEBUG_STATS_RL:          Salt (THERMODYNAMICS) mean=  1.88751784865949E+01
DEBUG_STATS_RL:          Salt (THERMODYNAMICS) S.D.=  1.73006499320349E+01
DEBUG_STATS_RL:         GtNm1 (THERMODYNAMICS)  min= -3.61208228230973E-06
DEBUG_STATS_RL:         GtNm1 (THERMODYNAMICS)  max=  2.77485734506484E-06
DEBUG_STATS_RL:         GtNm1 (THERMODYNAMICS) mean=  1.24401405624288E-08
DEBUG_STATS_RL:         GtNm1 (THERMODYNAMICS) S.D.=  2.90225544195312E-07
DEBUG_STATS_RL:         GsNm1 (THERMODYNAMICS)  min= -4.69460153404495E-07
DEBUG_STATS_RL:         GsNm1 (THERMODYNAMICS)  max=  5.95963323827211E-07
DEBUG_STATS_RL:         GsNm1 (THERMODYNAMICS) mean= -6.92685724802670E-10
DEBUG_STATS_RL:         GsNm1 (THERMODYNAMICS) S.D.=  2.52481607607353E-08
DEBUG_STATS_RL:                EtaN (DYNAMICS)  min= -3.23861595673948E+00
DEBUG_STATS_RL:                EtaN (DYNAMICS)  max=  6.27330339769822E+00
DEBUG_STATS_RL:                EtaN (DYNAMICS) mean= -1.08841978487064E-01
DEBUG_STATS_RL:                EtaN (DYNAMICS) S.D.=  1.07363556907771E+00
DEBUG_STATS_RL:                Uvel (DYNAMICS)  min= -1.66504806410399E-01
DEBUG_STATS_RL:                Uvel (DYNAMICS)  max=  1.63170608764774E-01
DEBUG_STATS_RL:                Uvel (DYNAMICS) mean=  8.80973175538344E-03
DEBUG_STATS_RL:                Uvel (DYNAMICS) S.D.=  2.37682418658573E-02
DEBUG_STATS_RL:                Vvel (DYNAMICS)  min= -1.36703060028072E-01
DEBUG_STATS_RL:                Vvel (DYNAMICS)  max=  1.30132506593692E-01
DEBUG_STATS_RL:                Vvel (DYNAMICS) mean= -1.38058104049111E-03
DEBUG_STATS_RL:                Vvel (DYNAMICS) S.D.=  1.86586338311189E-02
DEBUG_STATS_RL:                Wvel (DYNAMICS)  min= -2.96824171639172E-04
DEBUG_STATS_RL:                Wvel (DYNAMICS)  max=  2.33128189563771E-04
DEBUG_STATS_RL:                Wvel (DYNAMICS) mean= -1.08382940231776E-06
DEBUG_STATS_RL:                Wvel (DYNAMICS) S.D.=  2.52665849365801E-05
DEBUG_STATS_RL:               Theta (DYNAMICS)  min= -1.93331624263109E+00
DEBUG_STATS_RL:               Theta (DYNAMICS)  max=  2.99236471754419E+01
DEBUG_STATS_RL:               Theta (DYNAMICS) mean=  3.23340116553649E+00
DEBUG_STATS_RL:               Theta (DYNAMICS) S.D.=  5.85136004540380E+00
DEBUG_STATS_RL:                Salt (DYNAMICS)  min=  3.00000000000000E-02
DEBUG_STATS_RL:                Salt (DYNAMICS)  max=  3.74670874940772E+01
DEBUG_STATS_RL:                Salt (DYNAMICS) mean=  1.88751784865949E+01
DEBUG_STATS_RL:                Salt (DYNAMICS) S.D.=  1.73006499320349E+01
DEBUG_STATS_RL:                  Gu (DYNAMICS)  min= -1.72008393203961E-01
DEBUG_STATS_RL:                  Gu (DYNAMICS)  max=  1.63604082392785E-01
DEBUG_STATS_RL:                  Gu (DYNAMICS) mean=  5.27505425243781E-03
DEBUG_STATS_RL:                  Gu (DYNAMICS) S.D.=  2.49070281001941E-02
DEBUG_STATS_RL:                  Gv (DYNAMICS)  min= -1.03589106094080E-01
DEBUG_STATS_RL:                  Gv (DYNAMICS)  max=  1.31440038447425E-01
DEBUG_STATS_RL:                  Gv (DYNAMICS) mean= -8.42603746341859E-04
DEBUG_STATS_RL:                  Gv (DYNAMICS) S.D.=  1.83347645356465E-02
DEBUG_STATS_RL:               GuNm1 (DYNAMICS)  min= -6.87722570358920E-06
DEBUG_STATS_RL:               GuNm1 (DYNAMICS)  max=  7.81185307678292E-06
DEBUG_STATS_RL:               GuNm1 (DYNAMICS) mean= -4.22044345187469E-08
DEBUG_STATS_RL:               GuNm1 (DYNAMICS) S.D.=  1.18426513831169E-06
DEBUG_STATS_RL:               GvNm1 (DYNAMICS)  min= -9.55111026438615E-06
DEBUG_STATS_RL:               GvNm1 (DYNAMICS)  max=  1.64309342416671E-05
DEBUG_STATS_RL:               GvNm1 (DYNAMICS) mean=  7.78996461222097E-07
DEBUG_STATS_RL:               GvNm1 (DYNAMICS) S.D.=  2.65978737313496E-06
DEBUG_STATS_RL:               GtNm1 (DYNAMICS)  min= -3.61208228230973E-06
DEBUG_STATS_RL:               GtNm1 (DYNAMICS)  max=  2.77485734506484E-06
DEBUG_STATS_RL:               GtNm1 (DYNAMICS) mean=  1.24401405624288E-08
DEBUG_STATS_RL:               GtNm1 (DYNAMICS) S.D.=  2.90225544195312E-07
DEBUG_STATS_RL:               GsNm1 (DYNAMICS)  min= -4.69460153404495E-07
DEBUG_STATS_RL:               GsNm1 (DYNAMICS)  max=  5.95963323827211E-07
DEBUG_STATS_RL:               GsNm1 (DYNAMICS) mean= -6.92685724802670E-10
DEBUG_STATS_RL:               GsNm1 (DYNAMICS) S.D.=  2.52481607607353E-08
DEBUG_STATS_RL:    cg2d_b (SOLVE_FOR_PRESSURE)  min= -2.19706813914760E+04
DEBUG_STATS_RL:    cg2d_b (SOLVE_FOR_PRESSURE)  max=  1.80670262464494E+04
DEBUG_STATS_RL:    cg2d_b (SOLVE_FOR_PRESSURE) mean=  6.56348004156170E-01
DEBUG_STATS_RL:    cg2d_b (SOLVE_FOR_PRESSURE) S.D.=  3.99101703720036E+03
 cg2d: Sum(rhs),rhsMax =   6.91578746488122E-02  1.44309317865941E+00
(PID.TID 0000.0001)  cg2d: iter=     1 ; resid.=  1.48929915237959E+00
(PID.TID 0000.0001)  cg2d: iter=     2 ; resid.=  1.64320800230805E+00
(PID.TID 0000.0001)  cg2d: iter=     3 ; resid.=  1.34082124101140E+00
(PID.TID 0000.0001)  cg2d: iter=     4 ; resid.=  1.15701059789516E+00
(PID.TID 0000.0001)  cg2d: iter=     5 ; resid.=  9.49946995895371E-01
(PID.TID 0000.0001)  cg2d: iter=     6 ; resid.=  7.75418196238366E-01
(PID.TID 0000.0001)  cg2d: iter=     7 ; resid.=  6.42748087104794E-01
(PID.TID 0000.0001)  cg2d: iter=     8 ; resid.=  4.99778225069509E-01
(PID.TID 0000.0001)  cg2d: iter=     9 ; resid.=  4.36735721562067E-01
(PID.TID 0000.0001)  cg2d: iter=    10 ; resid.=  4.02602273738521E-01
(PID.TID 0000.0001)  cg2d: iter=    11 ; resid.=  3.34661875527557E-01
(PID.TID 0000.0001)  cg2d: iter=    12 ; resid.=  2.63983700885210E-01
(PID.TID 0000.0001)  cg2d: iter=    13 ; resid.=  2.37065966093106E-01
(PID.TID 0000.0001)  cg2d: iter=    14 ; resid.=  2.06980492782617E-01
(PID.TID 0000.0001)  cg2d: iter=    15 ; resid.=  1.87614816190270E-01
(PID.TID 0000.0001)  cg2d: iter=    16 ; resid.=  1.77658425528486E-01
(PID.TID 0000.0001)  cg2d: iter=    17 ; resid.=  1.52855740529088E-01
(PID.TID 0000.0001)  cg2d: iter=    18 ; resid.=  1.09804204324587E-01
(PID.TID 0000.0001)  cg2d: iter=    19 ; resid.=  8.18777455244696E-02
(PID.TID 0000.0001)  cg2d: iter=    20 ; resid.=  6.14828120703149E-02
(PID.TID 0000.0001)  cg2d: iter=    21 ; resid.=  5.47316793514523E-02
(PID.TID 0000.0001)  cg2d: iter=    22 ; resid.=  4.58334437043769E-02
(PID.TID 0000.0001)  cg2d: iter=    23 ; resid.=  4.00137421710099E-02
(PID.TID 0000.0001)  cg2d: iter=    24 ; resid.=  3.39256993164435E-02
(PID.TID 0000.0001)  cg2d: iter=    25 ; resid.=  2.60860243001820E-02
(PID.TID 0000.0001)  cg2d: iter=    26 ; resid.=  2.25370161904523E-02
(PID.TID 0000.0001)  cg2d: iter=    27 ; resid.=  1.92595966402364E-02
(PID.TID 0000.0001)  cg2d: iter=    28 ; resid.=  1.72905583507429E-02
(PID.TID 0000.0001)  cg2d: iter=    29 ; resid.=  1.53260273879505E-02
(PID.TID 0000.0001)  cg2d: iter=    30 ; resid.=  1.40654696949638E-02
(PID.TID 0000.0001)  cg2d: iter=    31 ; resid.=  1.06634773837121E-02
(PID.TID 0000.0001)  cg2d: iter=    32 ; resid.=  8.01683320922431E-03
(PID.TID 0000.0001)  cg2d: iter=    33 ; resid.=  7.10110981248068E-03
(PID.TID 0000.0001)  cg2d: iter=    34 ; resid.=  6.04833206125418E-03
(PID.TID 0000.0001)  cg2d: iter=    35 ; resid.=  5.08789959577638E-03
(PID.TID 0000.0001)  cg2d: iter=    36 ; resid.=  4.73385870848099E-03
(PID.TID 0000.0001)  cg2d: iter=    37 ; resid.=  3.86927115745753E-03
(PID.TID 0000.0001)  cg2d: iter=    38 ; resid.=  3.05839020030715E-03
(PID.TID 0000.0001)  cg2d: iter=    39 ; resid.=  2.53134976510337E-03
(PID.TID 0000.0001)  cg2d: iter=    40 ; resid.=  2.14424446250989E-03
(PID.TID 0000.0001)  cg2d: iter=    41 ; resid.=  1.68535303443325E-03
(PID.TID 0000.0001)  cg2d: iter=    42 ; resid.=  1.43015015123196E-03
(PID.TID 0000.0001)  cg2d: iter=    43 ; resid.=  1.11977740382439E-03
(PID.TID 0000.0001)  cg2d: iter=    44 ; resid.=  9.05914698819583E-04
(PID.TID 0000.0001)  cg2d: iter=    45 ; resid.=  7.50839124062065E-04
(PID.TID 0000.0001)  cg2d: iter=    46 ; resid.=  6.84061854829765E-04
(PID.TID 0000.0001)  cg2d: iter=    47 ; resid.=  6.21972885792581E-04
(PID.TID 0000.0001)  cg2d: iter=    48 ; resid.=  5.20317901124920E-04
(PID.TID 0000.0001)  cg2d: iter=    49 ; resid.=  4.18849284266733E-04
(PID.TID 0000.0001)  cg2d: iter=    50 ; resid.=  3.68674390065901E-04
(PID.TID 0000.0001)  cg2d: iter=    51 ; resid.=  2.93931398556444E-04
(PID.TID 0000.0001)  cg2d: iter=    52 ; resid.=  2.40003430012044E-04
(PID.TID 0000.0001)  cg2d: iter=    53 ; resid.=  1.94786389565117E-04
(PID.TID 0000.0001)  cg2d: iter=    54 ; resid.=  1.51969839124172E-04
(PID.TID 0000.0001)  cg2d: iter=    55 ; resid.=  1.26186960191702E-04
(PID.TID 0000.0001)  cg2d: iter=    56 ; resid.=  9.52252403629791E-05
(PID.TID 0000.0001)  cg2d: iter=    57 ; resid.=  7.33670611053427E-05
(PID.TID 0000.0001)  cg2d: iter=    58 ; resid.=  5.64420933036250E-05
(PID.TID 0000.0001)  cg2d: iter=    59 ; resid.=  4.60010944610571E-05
(PID.TID 0000.0001)  cg2d: iter=    60 ; resid.=  3.78050804908549E-05
(PID.TID 0000.0001)  cg2d: iter=    61 ; resid.=  3.04660723268159E-05
(PID.TID 0000.0001)  cg2d: iter=    62 ; resid.=  2.58012231854858E-05
(PID.TID 0000.0001)  cg2d: iter=    63 ; resid.=  2.37762974908461E-05
(PID.TID 0000.0001)  cg2d: iter=    64 ; resid.=  2.04341315538175E-05
(PID.TID 0000.0001)  cg2d: iter=    65 ; resid.=  1.66689039928396E-05
(PID.TID 0000.0001)  cg2d: iter=    66 ; resid.=  1.36095796154013E-05
(PID.TID 0000.0001)  cg2d: iter=    67 ; resid.=  1.24282095633479E-05
(PID.TID 0000.0001)  cg2d: iter=    68 ; resid.=  1.05799117251507E-05
(PID.TID 0000.0001)  cg2d: iter=    69 ; resid.=  9.01082520090497E-06
(PID.TID 0000.0001)  cg2d: iter=    70 ; resid.=  7.56992884326427E-06
(PID.TID 0000.0001)  cg2d: iter=    71 ; resid.=  5.98527236769275E-06
(PID.TID 0000.0001)  cg2d: iter=    72 ; resid.=  5.02623602345979E-06
(PID.TID 0000.0001)  cg2d: iter=    73 ; resid.=  3.96875716573141E-06
(PID.TID 0000.0001)  cg2d: iter=    74 ; resid.=  2.90423917892180E-06
(PID.TID 0000.0001)  cg2d: iter=    75 ; resid.=  2.23951603548032E-06
(PID.TID 0000.0001)  cg2d: iter=    76 ; resid.=  1.87809875358054E-06
(PID.TID 0000.0001)  cg2d: iter=    77 ; resid.=  1.51980301745404E-06
(PID.TID 0000.0001)  cg2d: iter=    78 ; resid.=  1.15850925924513E-06
(PID.TID 0000.0001)  cg2d: iter=    79 ; resid.=  1.00049428726311E-06
(PID.TID 0000.0001)  cg2d: iter=    80 ; resid.=  7.81621160656938E-07
(PID.TID 0000.0001)  cg2d: iter=    81 ; resid.=  5.70745560763207E-07
(PID.TID 0000.0001)  cg2d: iter=    82 ; resid.=  4.12331425880332E-07
(PID.TID 0000.0001)  cg2d: iter=    83 ; resid.=  2.98384068076960E-07
(PID.TID 0000.0001)  cg2d: iter=    84 ; resid.=  2.39253460732756E-07
(PID.TID 0000.0001)  cg2d: iter=    85 ; resid.=  1.91109182271992E-07
(PID.TID 0000.0001)  cg2d: iter=    86 ; resid.=  1.61733324062623E-07
(PID.TID 0000.0001)  cg2d: iter=    87 ; resid.=  1.41429483821296E-07
(PID.TID 0000.0001)  cg2d: iter=    88 ; resid.=  1.25332500544682E-07
(PID.TID 0000.0001)  cg2d: iter=    89 ; resid.=  1.06318930736760E-07
(PID.TID 0000.0001)  cg2d: iter=    90 ; resid.=  8.45332612979304E-08
(PID.TID 0000.0001)  cg2d: iter=    91 ; resid.=  6.72848239736431E-08
(PID.TID 0000.0001)  cg2d: iter=    92 ; resid.=  5.17742523974132E-08
(PID.TID 0000.0001)  cg2d: iter=    93 ; resid.=  3.89257039269677E-08
(PID.TID 0000.0001)  cg2d: iter=    94 ; resid.=  3.14762410208011E-08
(PID.TID 0000.0001)  cg2d: iter=    95 ; resid.=  2.39603146165237E-08
(PID.TID 0000.0001)  cg2d: iter=    96 ; resid.=  1.68587945687277E-08
(PID.TID 0000.0001)  cg2d: iter=    97 ; resid.=  1.37826433683696E-08
(PID.TID 0000.0001)  cg2d: iter=    98 ; resid.=  1.16419469008051E-08
(PID.TID 0000.0001)  cg2d: iter=    99 ; resid.=  9.60275639375454E-09
(PID.TID 0000.0001)  cg2d: iter=   100 ; resid.=  7.67196635143143E-09
(PID.TID 0000.0001)  cg2d: iter=   101 ; resid.=  5.63605104552958E-09
(PID.TID 0000.0001)  cg2d: iter=   102 ; resid.=  4.75886229177278E-09
(PID.TID 0000.0001)  cg2d: iter=   103 ; resid.=  3.82568066027001E-09
(PID.TID 0000.0001)  cg2d: iter=   104 ; resid.=  3.25019453422428E-09
(PID.TID 0000.0001)  cg2d: iter=   105 ; resid.=  2.60271848959354E-09
(PID.TID 0000.0001)  cg2d: iter=   106 ; resid.=  2.17821320627891E-09
(PID.TID 0000.0001)  cg2d: iter=   107 ; resid.=  1.63491240473002E-09
(PID.TID 0000.0001)  cg2d: iter=   108 ; resid.=  1.27455948156305E-09
(PID.TID 0000.0001)  cg2d: iter=   109 ; resid.=  1.07889415178022E-09
(PID.TID 0000.0001)  cg2d: iter=   110 ; resid.=  8.89948312114351E-10
(PID.TID 0000.0001)  cg2d: iter=   111 ; resid.=  7.05964192522310E-10
(PID.TID 0000.0001)  cg2d: iter=   112 ; resid.=  5.40120778523194E-10
(PID.TID 0000.0001)  cg2d: iter=   113 ; resid.=  4.39424499738202E-10
(PID.TID 0000.0001)  cg2d: iter=   114 ; resid.=  3.47803229730318E-10
(PID.TID 0000.0001)  cg2d: iter=   115 ; resid.=  2.80006916800000E-10
(PID.TID 0000.0001)  cg2d: iter=   116 ; resid.=  2.07223683563806E-10
(PID.TID 0000.0001)  cg2d: iter=   117 ; resid.=  1.55435680845757E-10
(PID.TID 0000.0001)  cg2d: iter=   118 ; resid.=  1.10637010809576E-10
(PID.TID 0000.0001)  cg2d: iter=   119 ; resid.=  8.38365611955743E-11
(PID.TID 0000.0001)  cg2d: iter=   120 ; resid.=  6.60761441783433E-11
(PID.TID 0000.0001)  cg2d: iter=   121 ; resid.=  4.82186215058817E-11
(PID.TID 0000.0001)  cg2d: iter=   122 ; resid.=  3.51877636611279E-11
(PID.TID 0000.0001)  cg2d: iter=   123 ; resid.=  2.41702559016398E-11
(PID.TID 0000.0001)  cg2d: iter=   124 ; resid.=  1.66036890653929E-11
(PID.TID 0000.0001)  cg2d: iter=   125 ; resid.=  1.20307318830381E-11
(PID.TID 0000.0001)  cg2d: iter=   126 ; resid.=  8.25154813117793E-12
(PID.TID 0000.0001)  cg2d: iter=   127 ; resid.=  6.01356971405672E-12
(PID.TID 0000.0001)  cg2d: iter=   128 ; resid.=  4.48578810317892E-12
(PID.TID 0000.0001)  cg2d: iter=   129 ; resid.=  3.29438052473868E-12
(PID.TID 0000.0001)  cg2d: iter=   130 ; resid.=  2.55168945894606E-12
(PID.TID 0000.0001)  cg2d: iter=   131 ; resid.=  1.98867652373948E-12
(PID.TID 0000.0001)  cg2d: iter=   132 ; resid.=  1.47256371702353E-12
(PID.TID 0000.0001)  cg2d: iter=   133 ; resid.=  1.10581032983956E-12
(PID.TID 0000.0001)  cg2d: iter=   134 ; resid.=  8.85554404369417E-13
(PID.TID 0000.0001)  cg2d: iter=   135 ; resid.=  7.00014390856048E-13
(PID.TID 0000.0001)  cg2d: iter=   136 ; resid.=  5.15555027898229E-13
(PID.TID 0000.0001)  cg2d: iter=   137 ; resid.=  4.10976622408110E-13
(PID.TID 0000.0001)  cg2d: iter=   138 ; resid.=  3.15064231719702E-13
(PID.TID 0000.0001)  cg2d: iter=   139 ; resid.=  2.45225383825332E-13
(PID.TID 0000.0001)  cg2d: iter=   140 ; resid.=  1.75178036195799E-13
(PID.TID 0000.0001)  cg2d: iter=   141 ; resid.=  1.15352143857151E-13
(PID.TID 0000.0001)  cg2d: iter=   142 ; resid.=  9.15147851439396E-14
DEBUG_STATS_RL:    cg2d_x (SOLVE_FOR_PRESSURE)  min= -4.01049630390619E+01
DEBUG_STATS_RL:    cg2d_x (SOLVE_FOR_PRESSURE)  max=  4.97225702035173E+01
DEBUG_STATS_RL:    cg2d_x (SOLVE_FOR_PRESSURE) mean= -1.70044835210750E+00
DEBUG_STATS_RL:    cg2d_x (SOLVE_FOR_PRESSURE) S.D.=  1.05980997863316E+01
(PID.TID 0000.0001)      cg2d_init_res =   1.36289069915996E+00
(PID.TID 0000.0001)      cg2d_iters(min,last) =      -1     142
(PID.TID 0000.0001)      cg2d_last_res =   9.15147851439396E-14
(PID.TID 0000.0001) // =======================================================
(PID.TID 0000.0001) // Begin MONITOR dynamic field statistics
(PID.TID 0000.0001) // =======================================================
(PID.TID 0000.0001) %MON time_tsnumber                =                    10
(PID.TID 0000.0001) %MON time_secondsf                =   8.6400000000000E+05
(PID.TID 0000.0001) %MON dynstat_eta_max              =   5.0685596537734E+00
(PID.TID 0000.0001) %MON dynstat_eta_min              =  -4.0881715636131E+00
(PID.TID 0000.0001) %MON dynstat_eta_mean             =  -6.8481775787101E-04
(PID.TID 0000.0001) %MON dynstat_eta_sd               =   9.7593897083972E-01
(PID.TID 0000.0001) %MON dynstat_eta_del2             =   2.5708119462769E-03
(PID.TID 0000.0001) %MON dynstat_uvel_max             =   1.6707382560618E-01
(PID.TID 0000.0001) %MON dynstat_uvel_min             =  -1.6951033714263E-01
(PID.TID 0000.0001) %MON dynstat_uvel_mean            =   4.5297422844478E-03
(PID.TID 0000.0001) %MON dynstat_uvel_sd              =   1.7600778982199E-02
(PID.TID 0000.0001) %MON dynstat_uvel_del2            =   1.1138604205001E-04
(PID.TID 0000.0001) %MON dynstat_vvel_max             =   1.1965444543989E-01
(PID.TID 0000.0001) %MON dynstat_vvel_min             =  -1.0987225029997E-01
(PID.TID 0000.0001) %MON dynstat_vvel_mean            =   2.4550195593189E-04
(PID.TID 0000.0001) %MON dynstat_vvel_sd              =   1.3459467005120E-02
(PID.TID 0000.0001) %MON dynstat_vvel_del2            =   1.1528706437689E-04
(PID.TID 0000.0001) %MON dynstat_wvel_max             =   2.2285601851471E-04
(PID.TID 0000.0001) %MON dynstat_wvel_min             =  -2.9455609581939E-04
(PID.TID 0000.0001) %MON dynstat_wvel_mean            =   2.9024382216495E-22
(PID.TID 0000.0001) %MON dynstat_wvel_sd              =   2.6720336954619E-05
(PID.TID 0000.0001) %MON dynstat_wvel_del2            =   3.1718165006317E-07
(PID.TID 0000.0001) %MON dynstat_theta_max            =   2.9923647175442E+01
(PID.TID 0000.0001) %MON dynstat_theta_min            =  -1.9333162426311E+00
(PID.TID 0000.0001) %MON dynstat_theta_mean           =   3.6493834118136E+00
(PID.TID 0000.0001) %MON dynstat_theta_sd             =   4.4154000093454E+00
(PID.TID 0000.0001) %MON dynstat_theta_del2           =   5.1254596407119E-03
(PID.TID 0000.0001) %MON dynstat_salt_max             =   3.7467087494077E+01
(PID.TID 0000.0001) %MON dynstat_salt_min             =   2.9820843902469E+01
(PID.TID 0000.0001) %MON dynstat_salt_mean            =   3.4747998458441E+01
(PID.TID 0000.0001) %MON dynstat_salt_sd              =   2.9615215157492E-01
(PID.TID 0000.0001) %MON dynstat_salt_del2            =   1.0115420149407E-03
(PID.TID 0000.0001) %MON dynstat_sst_max              =   2.9923647175442E+01
(PID.TID 0000.0001) %MON dynstat_sst_min              =  -1.9333162426311E+00
(PID.TID 0000.0001) %MON dynstat_sst_mean             =   1.8629472760549E+01
(PID.TID 0000.0001) %MON dynstat_sst_sd               =   9.0906119944840E+00
(PID.TID 0000.0001) %MON dynstat_sst_del2             =   2.6314334783535E-02
(PID.TID 0000.0001) %MON dynstat_sss_max              =   3.7461493370152E+01
(PID.TID 0000.0001) %MON dynstat_sss_min              =   2.9820843902469E+01
(PID.TID 0000.0001) %MON dynstat_sss_mean             =   3.4884117269230E+01
(PID.TID 0000.0001) %MON dynstat_sss_sd               =   9.6718522621626E-01
(PID.TID 0000.0001) %MON dynstat_sss_del2             =   8.0044146050624E-03
(PID.TID 0000.0001) %MON forcing_qnet_max             =   4.3532449340820E+02
(PID.TID 0000.0001) %MON forcing_qnet_min             =  -1.8282252197266E+02
(PID.TID 0000.0001) %MON forcing_qnet_mean            =  -1.6587597735982E+01
(PID.TID 0000.0001) %MON forcing_qnet_sd              =   1.1099484968291E+02
(PID.TID 0000.0001) %MON forcing_qnet_del2            =   1.0064568232602E+00
(PID.TID 0000.0001) %MON forcing_qsw_max              =   0.0000000000000E+00
(PID.TID 0000.0001) %MON forcing_qsw_min              =   0.0000000000000E+00
(PID.TID 0000.0001) %MON forcing_qsw_mean             =   0.0000000000000E+00
(PID.TID 0000.0001) %MON forcing_qsw_sd               =   0.0000000000000E+00
(PID.TID 0000.0001) %MON forcing_qsw_del2             =   0.0000000000000E+00
(PID.TID 0000.0001) %MON forcing_empmr_max            =   8.1892606829115E-05
(PID.TID 0000.0001) %MON forcing_empmr_min            =  -7.3098166808450E-05
(PID.TID 0000.0001) %MON forcing_empmr_mean           =   8.6431851563760E-07
(PID.TID 0000.0001) %MON forcing_empmr_sd             =   2.8285734796509E-05
(PID.TID 0000.0001) %MON forcing_empmr_del2           =   3.6322996729435E-07
(PID.TID 0000.0001) %MON forcing_fu_max               =   2.7001778483391E-01
(PID.TID 0000.0001) %MON forcing_fu_min               =  -1.6600005030632E-01
(PID.TID 0000.0001) %MON forcing_fu_mean              =   1.6047892078789E-02
(PID.TID 0000.0001) %MON forcing_fu_sd                =   9.0407764820516E-02
(PID.TID 0000.0001) %MON forcing_fu_del2              =   6.8344110701255E-04
(PID.TID 0000.0001) %MON forcing_fv_max               =   2.2184188961983E-01
(PID.TID 0000.0001) %MON forcing_fv_min               =  -1.8164484500885E-01
(PID.TID 0000.0001) %MON forcing_fv_mean              =  -5.7014729006699E-03
(PID.TID 0000.0001) %MON forcing_fv_sd                =   4.6628624802842E-02
(PID.TID 0000.0001) %MON forcing_fv_del2              =   4.6475770842672E-04
(PID.TID 0000.0001) %MON trAdv_CFL_u_max              =   1.1591266962638E-01
(PID.TID 0000.0001) %MON trAdv_CFL_v_max              =   2.9095586711961E-02
(PID.TID 0000.0001) %MON trAdv_CFL_w_max              =   1.8318291735446E-01
(PID.TID 0000.0001) %MON advcfl_uvel_max              =   1.1947995869514E-01
(PID.TID 0000.0001) %MON advcfl_vvel_max              =   2.3246939722382E-02
(PID.TID 0000.0001) %MON advcfl_wvel_max              =   1.5424028290179E-01
(PID.TID 0000.0001) %MON advcfl_W_hf_max              =   1.8178319056283E-01
(PID.TID 0000.0001) %MON pe_b_mean                    =   1.2187839737452E-03
(PID.TID 0000.0001) %MON ke_max                       =   1.4926788485780E-02
(PID.TID 0000.0001) %MON ke_mean                      =   2.3141949849546E-04
(PID.TID 0000.0001) %MON ke_vol                       =   1.3226782436723E+18
(PID.TID 0000.0001) %MON vort_r_min                   =  -1.2550279146357E-06
(PID.TID 0000.0001) %MON vort_r_max                   =   1.0140893740569E-06
(PID.TID 0000.0001) %MON vort_a_mean                  =  -2.5274804943130E-05
(PID.TID 0000.0001) %MON vort_a_sd                    =   7.3605620224478E-05
(PID.TID 0000.0001) %MON vort_p_mean                  =  -3.1845652707086E-05
(PID.TID 0000.0001) %MON vort_p_sd                    =   1.3162171208254E-04
(PID.TID 0000.0001) %MON surfExpan_theta_mean         =   1.4304126741206E-05
(PID.TID 0000.0001) %MON surfExpan_salt_mean          =   7.1678931915460E-07
(PID.TID 0000.0001) // =======================================================
(PID.TID 0000.0001) // End MONITOR dynamic field statistics
(PID.TID 0000.0001) // =======================================================
(PID.TID 0000.0001) // =======================================================
(PID.TID 0000.0001) // Field Current uVel   at iteration         10
(PID.TID 0000.0001) // CMIN =         -1.695103371426283E-01
(PID.TID 0000.0001) // CMAX =          1.670738256061756E-01
(PID.TID 0000.0001) // CINT =          1.246608010180755E-02
(PID.TID 0000.0001) // SYMBOLS (CMIN->CMAX): -abcdefghijklmnopqrstuvwxyz+
(PID.TID 0000.0001) //                  0.0: .
(PID.TID 0000.0001) // RANGE I (Lo:Hi:Step):(     1:    90:     1)
(PID.TID 0000.0001) // RANGE J (Lo:Hi:Step):(    40:     1:    -1)
(PID.TID 0000.0001) // RANGE K (Lo:Hi:Step):(   1:   1:   1)
(PID.TID 0000.0001) // =======================================================
(PID.TID 0000.0001) K =   1
(PID.TID 0000.0001)                I=10      I=20      I=30      I=40      I=50      I=60      I=70      I=80      I=90
(PID.TID 0000.0001) |--J--|123456789|123456789|123456789|123456789|123456789|123456789|123456789|123456789|123456789|
(PID.TID 0000.0001)     40 nmmkl..mkkjihddefhk...................................................................nnnn
(PID.TID 0000.0001)     39 mmmjbc-adegijk....n......................................................nnm.........mlkkl
(PID.TID 0000.0001)     38 lmmmiiffhjiik............................................................nnnm.......ighjkl
(PID.TID 0000.0001)     37 nnm...................................................................n....ll....lkhi..klm
(PID.TID 0000.0001)     36 nn..........................................kkl.....................oqtvwxxpjl..mklllkhddk
(PID.TID 0000.0001)     35 jl..................................mll...mkiiim....mmmn............no.....onnooooppqponfh
(PID.TID 0000.0001)     34 ....................................nlk..lllkkkl..oonnnnn...................prrrssttttrp..
(PID.TID 0000.0001)     33 .....................................moomllmmmmoooopqqqqqon..................qssuwwvuutqo.
(PID.TID 0000.0001)     32 .....................................mooonnopooqqqrrsssssrp.................qrtstwwutssqo.
(PID.TID 0000.0001)     31 .....................................opqrrqpqqqrrrssssssrrq...............rqstuuuutrrqqp..
(PID.TID 0000.0001)     30 ....................................tttuuututrstttttssrqqqq.............sssrtuuutsrqpppo..
(PID.TID 0000.0001)     29 ..................................oprtvwvuuvvusssstsrqqqpopp............rrrqqqqpppponnnn..
(PID.TID 0000.0001)     28 ................................oooooqrtsrrssrqqppqrqooonmnno..........oooonnnnmmmnmmmnn..
(PID.TID 0000.0001)     27 ...............n...............mklllllnooooopooponnoonnmmlllmn....mop..nnnoonnnlkkllll....
(PID.TID 0000.0001)     26 ...............mn............oihjjjjjlmmmmnnnnnmmllmmmmllkllklml..nokklmnmnnmmmllkkkkk....
(PID.TID 0000.0001)     25 ...............llj....no....nkjiiiijklkjklklllmlklkllkkkkjkljllll....lklnmnmlmllkikkjj....
(PID.TID 0000.0001)     24 .............ljjljk..jln....kj..liiklkjijkjkklmmkkkklkjkkjjjjkkklllm..nklonmlllkkklklm....
(PID.TID 0000.0001)     23 .............jkjjjk..lll....jk...mlmmlllkllmlmmnmmmmnmmmmlklllkllljjk.....mommnkklmmno....
(PID.TID 0000.0001)     22 n............lkjjjkkmnml....l..ooononnonnnnnnommnoonoonnnmnmmnnnmmlkln.......nnkmnnmmnmmmn
(PID.TID 0000.0001)     21 nkm.........llmlmlllmnnml......mqqoooppppoooopomoponponoonnlnoonnmmmmn.........mnonnmmnnmo
(PID.TID 0000.0001)     20 mkn........mmmoonmmnnonml.........ooprrqqpoppopopqooqonoponmoponnmlmno..........monnnmnnmo
(PID.TID 0000.0001)     19 lkl........poopqomlnnnomlkm....qn......srpqpqoqppqooppooponnoonmnmllmn............mmmmnnoo
(PID.TID 0000.0001)     18 mkl........ppnnrmmlllmnmllnmmnrpn....norppqqqqqpqqoopppppnnnnnnmnmlkmon...........nmmmonnn
(PID.TID 0000.0001)     17 mmm..........llnlmkjklmmmmlmnno......monopqpppqpppoooppponmnnnnmnmkknpn..........nnmmnomlm
(PID.TID 0000.0001)     16 llm.......o..mmmmnhknllmmllnon........mmnppoopqpooooopqoomnnnnmnnmmmmomn.........nnmmnnnlm
(PID.TID 0000.0001)     15 mlml.....op..oonoqhlsolmmmomm..........mnoponqqpoonopqqonmopmmnpommmlnmml.......ononmnonmm
(PID.TID 0000.0001)     14 mmmk.....mnmoqqpqpkpupllmnolm..........nnoppoqrqoopqpqqpopqplprpommnmmlom......oooppnoomon
(PID.TID 0000.0001)     13 opnk.....mpqrpoooonqqnlmppolj..........ppprqqrqpopqqppqqqrqpossooooponmon.....oponqqnppoqp
(PID.TID 0000.0001)     12 srponllorrttqnnoopopoopprqonmnnnnl.....qqpqpoqpooqppooqqqqqrrtqoprqppono......srpprrqsrrss
(PID.TID 0000.0001)     11 tttrqquwwvwvvrstrtsstsstsrrrqpppooo...qrrqp..ooopqoooppoqqqrsrqprssrqpon.....qusssttsttstt
(PID.TID 0000.0001)     10 vvvvwwzyyyxyyvxyz+zyxvwvvvvutssrqpon..qqrrq..mnooonooppopqqrsrrqtuusrqpp...rqsuvuuuvvvvvvv
(PID.TID 0000.0001)      9 xxxxzzzyxwvvwwxz+yyxwwxwxwvwwutttrrurprrrq..ooooopqqqrqqrstutssstutsrrqq..prqsuvvwwxwwyyww
(PID.TID 0000.0001)      8 wxyzzyywwvtuvvvvsqqtuwwwwwwwvuvwwwx+ywvvusopqrqrsuuuvvuvwwwwvutstutsssrr..mlostuvvwwvvwwvu
(PID.TID 0000.0001)      7 tuvvtttsssssssrrqpnnsrsttttssstuvwyzxxwxvtttssstvwwxyyxxxwuvuttstttuuuuvvpnpsvusrrssrsttss
(PID.TID 0000.0001)      6 pppooooppqppqpppppommloqqpppqqrstttusrsttttuuttuvvuvvuttsrrssssrstuuuvwxxyyzyyusqqpopqrrqq
(PID.TID 0000.0001)      5 mmllmmmnooonnnmmnonmlllmmllmooppppppppqpqqrttssttsrrqpooooprrrqrssttuuwwwvtsrqpqpoonnooonn
(PID.TID 0000.0001)      4 lkkkkllllllllllllmllllkkffillllmllmmmmmllmmnoooponnmmlllmnopppppqqqrrrsrpn...lnmmmmllmmlll
(PID.TID 0000.0001)      3 lkkkkllllm.............................lklkkkklllkkkjjjklmmnnnnnnoonnnonn...nllllllllkkkll
(PID.TID 0000.0001)      2 ...........................................mmmmmmmlllllmmnnnnmmm...nmm......nnnmmmmmmmm...
(PID.TID 0000.0001)      1 ..........................................................................................
(PID.TID 0000.0001) // =======================================================
(PID.TID 0000.0001) // END OF FIELD                                          =
(PID.TID 0000.0001) // =======================================================
(PID.TID 0000.0001) 
(PID.TID 0000.0001) // =======================================================
(PID.TID 0000.0001) // Field Current vVel   at iteration         10
(PID.TID 0000.0001) // CMIN =         -1.098722502999711E-01
(PID.TID 0000.0001) // CMAX =          1.196544454398868E-01
(PID.TID 0000.0001) // CINT =          8.500988731105849E-03
(PID.TID 0000.0001) // SYMBOLS (CMIN->CMAX): -abcdefghijklmnopqrstuvwxyz+
(PID.TID 0000.0001) //                  0.0: .
(PID.TID 0000.0001) // RANGE I (Lo:Hi:Step):(     1:    90:     1)
(PID.TID 0000.0001) // RANGE J (Lo:Hi:Step):(    40:     1:    -1)
(PID.TID 0000.0001) // RANGE K (Lo:Hi:Step):(   1:   1:   1)
(PID.TID 0000.0001) // =======================================================
(PID.TID 0000.0001) K =   1
(PID.TID 0000.0001)                I=10      I=20      I=30      I=40      I=50      I=60      I=70      I=80      I=90
(PID.TID 0000.0001) |--J--|123456789|123456789|123456789|123456789|123456789|123456789|123456789|123456789|123456789|
(PID.TID 0000.0001)     40 jlnrt.cacdeeef...xw..................................................................ljiii
(PID.TID 0000.0001)     39 klnqqponlkklk...........................................................mkij........kijjjj
(PID.TID 0000.0001)     38 jkk.......................................................................geh......a-.nlkj
(PID.TID 0000.0001)     37 ik...................................................................kh...hch...jklln.behh
(PID.TID 0000.0001)     36 ij.........................................nopo....................nnq....gfgh.ijkklkigfgf
(PID.TID 0000.0001)     35 ...................................kjkl..onnoomk...mmoqr...................jhhijiklljhil..
(PID.TID 0000.0001)     34 ....................................jii.mllklnnm.lklnprrq...................igikklnonlkm..
(PID.TID 0000.0001)     33 ....................................kggijklkmponnnmnoqrrqpo.................lijmmmnnlihjm.
(PID.TID 0000.0001)     32 ....................................jgghijklmomlnnnoqqrrqoo................nllnnkjkkighk..
(PID.TID 0000.0001)     31 ....................................nmlkklmkkllmnoooqqrrpnn..............osussronmmllllm..
(PID.TID 0000.0001)     30 ...................................srponnonmnmmnoonoqrrqonn............rrsspmkjklmmmmlln..
(PID.TID 0000.0001)     29 .................................rppnmmmnnmmmnmmmnnoqqqponmm...........mllkjjjklmmmmmmoo..
(PID.TID 0000.0001)     28 ...............................jlkkkjjijkmllmmmllnoqrqpponmmm.........mkklkkkkkkkkllll....
(PID.TID 0000.0001)     27 ..............nm..............jmkjkkkjjmoonmmmmnoooppppoonmmmn...lmmr.nnnooooooonnooom....
(PID.TID 0000.0001)     26 ..............mlm...........jmnkijkkjjlonlmmmllllklllnnnnnmmoooo....ponnmllmmlllmomlml....
(PID.TID 0000.0001)     25 ..............imnn...mmm...jms.edefffghhhiihhggghhihhiihiijmnopqo....jhikiihhhikmkjkjg....
(PID.TID 0000.0001)     24 ............nonnrrr.mlln...jnp..-abbcdddfgfefgjlllkiihghijkkkkkjiikm.....dhhgiillkkkjk....
(PID.TID 0000.0001)     23 ............ljkmnnn.mkkk...np...ghjjklklkklmnnorrqqrrrrsttsrqpnmmnnoo.......jlnommmnqu....
(PID.TID 0000.0001)     22 n...........knnmjhhgfhjl......nsoooppnnnllmnnmmooopqqrsrpooqpppppqponm........lkllnoprpnnm
(PID.TID 0000.0001)     21 lkk........llmljkkkjkmnop......o.kkmnllkkkkllnnlmmmmmnnonmnnmllllmonml.........hklmmmmlmlk
(PID.TID 0000.0001)     20 kkn.......mkjjjhhjlmlnnnm......s......nlklkkklmlmoopqqppqqpooppponoqrq...........lnnnoookk
(PID.TID 0000.0001)     19 mlm.......sqqqsppnnqrsrpnmm...ppl.....hjlllkjiiiiklmoonnnppppqpponmooo...........nmmllklnn
(PID.TID 0000.0001)     18 oll.......t.vvvywspqqrsrpopnlnw.....mmmqpnmmnmllllklnooooopqqrrqqppppon..........onnnnmmop
(PID.TID 0000.0001)     17 poo.......r.vtsutqspkkmmllmmmm.......nooppooppnlmmmlmmlnnoooooqpppnlnon.........klmopqrppp
(PID.TID 0000.0001)     16 ppp......rq.qonnnkmqmhkmnlijm.........onlllkmmlkkklllmllmnnmnooommnmnqpo........mmmmoqqqop
(PID.TID 0000.0001)     15 opqp....rts.ljighhdikgfikmlll.........oonlkhhjjhgihghjljkllmoolmmmonorurp......nlllkkmoqpo
(PID.TID 0000.0001)     14 opqr....oqrmjjjijiegllkmmmmmq.........mnnnkhgiihfeeedfhgfgijlnlmnmmnmmopn.....omlmmkklnopo
(PID.TID 0000.0001)     13 mnno....mmonlmnnmmllmmkkllnno.........lmmnmiijjjiiiihghgfggeeikklkjllmnp.....pnmlmmkjjjklm
(PID.TID 0000.0001)     12 llkklnlgfhmpnopooooqmlmmnnmlklmmoo....mmnpo.mllllkjjkkklkijjijjkmmkjkmnq.....mlkjkljjkjkkk
(PID.TID 0000.0001)     11 kkkiefihfcfgeejllkjlmlllmmmlkklkkmo..kmnprp.lkmnoonmllmopmlmmkjknoljjkmo....jlnkhhkjjkjjkk
(PID.TID 0000.0001)     10 llklkijklkkljdehiihikmnmlkllkjlmlmrs.noonp..ommopqpoonlnqsrponlknoomkklo..trmmponkjjikliij
(PID.TID 0000.0001)      9 jkkkkjjlnnmopomlnppljknonlkjigghhgkponooop.oolmmmnoopnlllnqqonlmpponmkks.ovzurqqnmlkjlomhh
(PID.TID 0000.0001)      8 llllllkjlnmlmopqpqqpljkmmnmligggghjiffhilprqommnnkjjiiiljimnlljjmnllllko.iqx+yvusqnkkmpqnl
(PID.TID 0000.0001)      7 nnmmmnmkklonnmmnprrqpnmmlllllkjiijooigghghloommpqonmjffiiilomkiikkkjjklnssqruuvtrqpmkmopon
(PID.TID 0000.0001)      6 nnlllllllkklmlkkmoqpnllmkihijkkkjjmpomkjgfhklmnppppqokihggjmljhijjjiiklnprppqsronnnlllmnmn
(PID.TID 0000.0001)      5 mlkkjjjklkjkkkkklllllkjjkjjjkkkkkkklmmmlkjiijloppooonlkjiijlljijklkkklnnon..wronmmmmlmmlll
(PID.TID 0000.0001)      4 kjjjjjijjj............................qooonmlmnoonnmkjjkkllllkjjkklllmnnm...qnmmmmmmllkkkk
(PID.TID 0000.0001)      3 ..........................................nmlkkkllllkjjmnnnmmllm..mllm.....mmlkkkklmmll...
(PID.TID 0000.0001)      2 ..........................................................................................
(PID.TID 0000.0001)      1 ..........................................................................................
(PID.TID 0000.0001) // =======================================================
(PID.TID 0000.0001) // END OF FIELD                                          =
(PID.TID 0000.0001) // =======================================================
(PID.TID 0000.0001) 
(PID.TID 0000.0001) // =======================================================
(PID.TID 0000.0001) // Field Current theta  at iteration         10
(PID.TID 0000.0001) // CMIN =         -1.933316242631091E+00
(PID.TID 0000.0001) // CMAX =          2.992364717544192E+01
(PID.TID 0000.0001) // CINT =          1.179887534002704E+00
(PID.TID 0000.0001) // SYMBOLS (CMIN->CMAX): -abcdefghijklmnopqrstuvwxyz+
(PID.TID 0000.0001) //                  0.0: .
(PID.TID 0000.0001) // RANGE I (Lo:Hi:Step):(     1:    90:     1)
(PID.TID 0000.0001) // RANGE J (Lo:Hi:Step):(    40:     1:    -1)
(PID.TID 0000.0001) // RANGE K (Lo:Hi:Step):(   1:   1:   1)
(PID.TID 0000.0001) // =======================================================
(PID.TID 0000.0001) K =   1
(PID.TID 0000.0001)                I=10      I=20      I=30      I=40      I=50      I=60      I=70      I=80      I=90
(PID.TID 0000.0001) |--J--|123456789|123456789|123456789|123456789|123456789|123456789|123456789|123456789|123456789|
(PID.TID 0000.0001)     40 abbcdbbaa----abcdddbbbbbbbbbbbbbbbbbbbbbbbbbbbbbbbbbbbbbbbbbbbbbbbbbbbbbbbbbbbbbbbbbbbbbba
(PID.TID 0000.0001)     39 bcdddccbbaaaa-bbbedbbbbbbbbbbbbbbbbbbbbbbbbbbbbbbbbbbbbbbbbbbbbbbbbbbbbb----bbbbbbbbbbbaab
(PID.TID 0000.0001)     38 effffeddddcccbbbbbbbbbbbbbbbbbbbbbbbbbbbbbbbbbbbbbbbbbbbbbbbbbbbbbbbbbbb-----bbbbbbcabbbde
(PID.TID 0000.0001)     37 gghbbbbbbbbbbbbbbbbbbbbbbbbbbbbbbbbbbbbbbbbbbbbbbbbbbbbbbbbbbbbbbbbbbbcbbbbabbbbedddfbdeef
(PID.TID 0000.0001)     36 hhbbbbbbbbbbbbbbbbbbbbbbbbbbbbbbbbbbbbbbbbbdcbabbbbbbbbbbbbbbbbbbbbdcccbabbccdbeefgghhhhhh
(PID.TID 0000.0001)     35 ggbbbbbbbbbbbbbbbbbbbbbbbbbbbbbbbbbaaaabbccdddccbbbffffgbbbbbbbbbbbbbbbbbbccdeeeffghijjiih
(PID.TID 0000.0001)     34 bbbbbbbbbbbbbbbbbbbbbbbbbbbbbbbbbbba-abbcddddddebeefffghhbbbbbbbbbbbbbbbbbbcbcefggijjkjjbb
(PID.TID 0000.0001)     33 bbbbbbbbbbbbbbbbbbbbbbbbbbbbbbbbbbbb-bcccddeeeeeffffggghhhibbbbbbbbbbbbbbbbbbceijjkkllkkkb
(PID.TID 0000.0001)     32 bbbbbbbbbbbbbbbbbbbbbbbbbbbbbbbbbbbbbcdddeffffgghhhhhiiiijjbbbbbbbbbbbbbbbbcccgkmmmmmlllkb
(PID.TID 0000.0001)     31 bbbbbbbbbbbbbbbbbbbbbbbbbbbbbbbbbbbbfghhhhiiiijjjjjkkkkllkkbbbbbbbbbbbbbbhjjjjmoooonnmmmbb
(PID.TID 0000.0001)     30 bbbbbbbbbbbbbbbbbbbbbbbbbbbbbbbbbbbmlmmmmmmmmmmmmmmmnnnnnmlbbbbbbbbbbbbmopqqqqqqqqppoooobb
(PID.TID 0000.0001)     29 bbbbbbbbbbbbbbbbbbbbbbbbbbbbbbbbbpppppppppppooooooooppppponmbbbbbbbbbbbrrrrrrrrrqqqqqpppbb
(PID.TID 0000.0001)     28 bbbbbbbbbbbbbbbbbbbbbbbbbbbbbbbprrrrrrrrrrrrrrrrrrrrrrrrqqpoobbbbbbbbbttssssssrrrrrrrqqpbb
(PID.TID 0000.0001)     27 bbbbbbbbbbbbbbvvbbbbbbbbbbbbbbssttstttttttttttttttttttssrrqqqqbbbsstubuuuuuuuuttttsssrbbbb
(PID.TID 0000.0001)     26 bbbbbbbbbbbbbbvvubbbbbbbbbbbutuuuuvvvvvvvvvvvvvvvvvuuutttssrsstubtuvwwvwvvvvvvvvuttssrbbbb
(PID.TID 0000.0001)     25 bbbbbbbbbbbbbbvvwxbbbxwxbbbuuvwwwwxxxxxxxxwwwwwwwwvvvvuuuuttuuvwxbbbxxxwwwwwwwwvvuutsqbbbb
(PID.TID 0000.0001)     24 bbbbbbbbbbbbwwwwxyybxxxxbbbwwwbyxyyyyyxxxxxxxxxwwwwwvwwwvvvwwwxxxwvwbxxwwwwwwwwvvvvutrbbbb
(PID.TID 0000.0001)     23 bbbbbbbbbbbbxxxxyyzbxxyybbbwxxbbyyyyyyyyyyyxxxxxxxxxxxxwwwwxxxxwwwwwwbbbbwwxxxxwwwwvvubbbb
(PID.TID 0000.0001)     22 wbbbbbbbbbbbxxyyyyyyyyyybbbxxbyyzzyzzzzzzzzzzyyyyyyyyyxwwwxxxxwvvwwwxwbbbbbbyxxxxxxxxxxxxw
(PID.TID 0000.0001)     21 xxxbbbbbbbbxxxxyyzzyzzzz+bbbbbzyzzzzzzzzzzzzyyyyyyyyyxxwvvwwwwvvvvvvvubbbbbbbbyyyyyyyyyxxx
(PID.TID 0000.0001)     20 xwwbbbbbbbxyyyyxyyzzzzzz+bbbbbbzbzzzzz+++zzzzzzzyyyyxxxxwwwxwvvvvvvvutbbbbbbbbbyyyyxxxxxwx
(PID.TID 0000.0001)     19 vvvbbbbbbbyzyyxwwxyzzyzzzzzbbbzzzbbbbb++++++z+zzzzzzyyyyxxxxxwwvwwwwvubbbbbbbbbbbyyxxxwwww
(PID.TID 0000.0001)     18 uutbbbbbbbzzzyyxxxyzyyzyzzzzzzyzzbbbz+z++++zz++++++zzzzyyyyxxwwwvvwvvutbbbbbbbbbbyyxxwvvwv
(PID.TID 0000.0001)     17 uusbbbbbbbzbzyyyyyxyzyyyyyyyyzzbbbbbyzzzzzzzzzzzzzzzzzyyyyyxxwwvuuvvuuubbbbbbbbbyyyxxwuuvu
(PID.TID 0000.0001)     16 utsbbbbbbyybzyyyyxxxxxxxwxxxxybbbbbbbyyyyyyyyyyyyyyyyyyyyyyyxxwwvvuuuttsbbbbbbbbxyyyxwvuuu
(PID.TID 0000.0001)     15 ttsrbbbbxxxbxxxxxwwwwvwwvvwwwbbbbbbbbbxwxxxxxxxxxxxxxxxxxyyyxwwwvvuuttsssbbbbbbwxxxxxxwvuu
(PID.TID 0000.0001)     14 ttsqbbbbxyxwwxwvwwwvutuuuuuuubbbbbbbbbwwvwwwwwwwwwwwwwwwwxxwwwwvvvuutssrrbbbbbvwwwwwwwvvvu
(PID.TID 0000.0001)     13 tttrbbbbwwwvvvutuuvuuuttsstttbbbbbbbbbvvvuuuuuuuuuttuuuuuvvwwwvuuututssrrbbbbvvvvvvvvvvvuu
(PID.TID 0000.0001)     12 sssssstttutsstsssrrrstsrrrsssqqrrqbbbbuuttsssssrrrrrrrrrrsttttsstssssrrpbbbbbtuuuttttttstt
(PID.TID 0000.0001)     11 qpprssssqrrqqrqqqpoopqqoppppppppppqbbstsrrrbrqqqqqqqqqqqqqrrpppqrqrrrqqpbbbbprssrqqrqqqppq
(PID.TID 0000.0001)     10 mllnopoonnnonoooonnmnnmmmmmlmnnnnooobqqqqppbpppppppooooooooonnoooooooooobbnnopponnnnoonnmm
(PID.TID 0000.0001)      9 iihijjiiiiiiiijjiijjjjiiiijiijkklmnmlnnnnnbmmmnnnonnnnnnnnmlllmmmmllmmmmbmmmmmmllkjjkkjiii
(PID.TID 0000.0001)      8 ffffffffeefghggffffghhffgggggiijjjkkjklllllkkkllkkllllkllkkjijkkkkjjjkkjbkkjjjiihhggggfeee
(PID.TID 0000.0001)      7 ccddddeeeedeffeeeeeeedddefffffggggghhhiijjjiijjjiiihhhhhiiihhhhiiiiiiiiiiiihhggfeeeddddddc
(PID.TID 0000.0001)      6 bbbcdddddddddddddddddddeddddcdeeeeeeeffgghhhghhihfeedeeefffffefggggghhhhhhggfeedccccccbcbb
(PID.TID 0000.0001)      5 bcccccccccddddddddcccdddccccddddddddddddeeeeeeeeeccbbccccddddddeeeefffeeeeeddcccbbbbbbbbbb
(PID.TID 0000.0001)      4 cccccbbbbbbbbbccccccbbbabbabbbbcbbbbbbbcccccbbbbbbbbbbbbbbbbccccccccccccccbbaaaabbbbbbbbbb
(PID.TID 0000.0001)      3 bbbbbaaaaabbbbbbbbbbbbbbbbbbbbbbbbbbbbbbaabbbaaabbbbbbaaaaaaaabaaaaaaaaabbbaaaaaaabbbbbbab
(PID.TID 0000.0001)      2 bbbbbbbbbbbbbbbbbbbbbbbbbbbbbbbbbbbbbbbbbbbbbbbaaaaaaaaaaaa--aaabbaaaabbbbbaaaaaaabbbbabbb
(PID.TID 0000.0001)      1 bbbbbbbbbbbbbbbbbbbbbbbbbbbbbbbbbbbbbbbbbbbbbbbbbbbbbbbbbbbbbbbbbbbbbbbbbbbbbbbbbbbbbbbbbb
(PID.TID 0000.0001) // =======================================================
(PID.TID 0000.0001) // END OF FIELD                                          =
(PID.TID 0000.0001) // =======================================================
(PID.TID 0000.0001) 
(PID.TID 0000.0001) // =======================================================
(PID.TID 0000.0001) // Field Current etaN   at iteration         10
(PID.TID 0000.0001) // CMIN =         -4.088171563613081E+00
(PID.TID 0000.0001) // CMAX =          5.068559653773402E+00
(PID.TID 0000.0001) // CINT =          3.391381932365364E-01
(PID.TID 0000.0001) // SYMBOLS (CMIN->CMAX): -abcdefghijklmnopqrstuvwxyz+
(PID.TID 0000.0001) //                  0.0: .
(PID.TID 0000.0001) // RANGE I (Lo:Hi:Step):(    -1:    92:     1)
(PID.TID 0000.0001) // RANGE J (Lo:Hi:Step):(    42:    -1:    -1)
(PID.TID 0000.0001) // RANGE K (Lo:Hi:Step):(   1:   1:   1)
(PID.TID 0000.0001) // =======================================================
(PID.TID 0000.0001) K =   1
(PID.TID 0000.0001)                I=8       I=18      I=28      I=38      I=48      I=58      I=68      I=78      I=88
(PID.TID 0000.0001) |--J--|101234567|901234567|901234567|901234567|901234567|901234567|901234567|901234567|901234567|9012
(PID.TID 0000.0001)     42 ............................................kkkkkkkkkkkkkkjjjjiiii..iiii.....llllllllllkk.....
(PID.TID 0000.0001)     41 ..............................................................................................
(PID.TID 0000.0001)     40 a------.edddddddeeeef..................................................................aaaa---
(PID.TID 0000.0001)     39 aaaa--aabbbbbbbb...hh.....................................................cccc........bbaaaaaa
(PID.TID 0000.0001)     38 baaaaaaaaaaaaaa...........................................................dddcc......ccbbbbaaa
(PID.TID 0000.0001)     37 bbaaa..................................................................ml...edd...ddccb.cbbbaa
(PID.TID 0000.0001)     36 bbba.........................................kkkk....................nnmlkihfeee.ddddccccbbbba
(PID.TID 0000.0001)     35 aaaa.................................mlll..kkkkkkk...jiiii...........ppo....ffeeeedddddccbaaaa
(PID.TID 0000.0001)     34 .....................................mmml.lllkkkkk.kjjjiijj..................ggffeeeeedddd....
(PID.TID 0000.0001)     33 e.....................................mmmmllllkkkkkkjjjjjjjjj.................ggggfffffeeee...
(PID.TID 0000.0001)     32 e.....................................nnmmmlllllllkkkkkkkjjjj................ihhhhhggggffee...
(PID.TID 0000.0001)     31 ......................................nnnmmmmmmllllllkkkkkkkj..............jjjjiiihhhgggff....
(PID.TID 0000.0001)     30 .....................................pooonnnnmmmmmllllllllkkk............kkkkkkjjjiihhhggg....
(PID.TID 0000.0001)     29 ...................................rqqqppooonnnnmmmmmlllllllkk...........mllllkkjjjiiihhgg....
(PID.TID 0000.0001)     28 .................................ssrrrqqqppooonnnnmmmmmllllllkk.........mmmlllkkkjjjiiihhg....
(PID.TID 0000.0001)     27 ................ih..............ttssrrrqqpppooonnnnmmmmmlllllkkk...xvro.nmmmllkkkjjjjiii......
(PID.TID 0000.0001)     26 ................iih...........xuttssrrrqqqpppooonnnnnmmmmllllkkkkk.xupnnnmmmmllkkkkjjjji......
(PID.TID 0000.0001)     25 ................iiii...kjj...zxvttssrrrqqqpppooonnnnmmmmmllllkkkkkk...nnnmmmmlllkkkkjjjj......
(PID.TID 0000.0001)     24 ..............iiiiiii.jjjj...yyx.ssrrrqqqpppooonnnnmmmmmlllllllkkkkkkk.nmmmmllllkkkkkkjj......
(PID.TID 0000.0001)     23 ..............iiiiijj.jjjj...zyy..rrqqqppppoooonnnnmmmmllllkkkkkkkkkkkk....lllllkkkkkkkk......
(PID.TID 0000.0001)     22 mmm...........iiiiijjjjjjj...++.rrrqqqqpppooooonnnnnmmmmllllllkkkkkkkkkk......llllllkklllmmmm.
(PID.TID 0000.0001)     21 mmmmn........iiiiiijjjjjjjj.....rrrqqqqpppooooonnnnnmmmmmllllllkkkkkkkkk........llllllllmmmmmm
(PID.TID 0000.0001)     20 mmmmm.......jjiiiiijjjjjjjk......q.qqqqpppooooonnnnnmmmmmlllllkkkkkkkkjj.........llllllmmmmmmm
(PID.TID 0000.0001)     19 mmmmm.......jjjiiiijjjjjjjkkk...npp.....pooooonnnnnnnmmmmmlllllkkkkkkkkj...........mmmmmmmmmmm
(PID.TID 0000.0001)     18 mmmmm.......jjjjjjjjjjjkkkkkkkklkop...ooooooonnnnnnnnnmmmmlllllkkkkkkkkjj..........mmmmmmmmmmm
(PID.TID 0000.0001)     17 mmmmm.......k.kkkkkkkkkkkkkkkkkll.....ooooooonnnnnnnnmmmmmmlllllkkkkkkkjj.........nnmmmmmmmmmm
(PID.TID 0000.0001)     16 mmmmm......ll.lkkkkkkkkkkkkkkkkl.......ooooonnnnnnnnnmmmmmmmlllllkkkkkkjjj........nnnnnnmmmmmm
(PID.TID 0000.0001)     15 nnnnmn....mml.llllkkkkkkkkkkkkk.........onnnnnnnnnnnnmmmmmmmmlllllkkkkkkjjj......onnnnnnnnnnnn
(PID.TID 0000.0001)     14 nnnnnn....nmmmlllkkkkkkkkkkkkkk.........onnnnnnnnmmmmmmmmmmmmllllllkkkkkkjj.....pooonnnnnnnnnn
(PID.TID 0000.0001)     13 nnnnnn....nnmmlllkkkkkkkkllkkkl.........nnnnmmmmmmmmmmmmmmmmllmllllllkkkkkk....ppoooonnnoonnnn
(PID.TID 0000.0001)     12 nnnnnnnnnnnnmllllllkkkkklllkllllllll....nnmmmmmmmmmmmlllllllllllllllllkkkk.....ppoooonnnnnnnnn
(PID.TID 0000.0001)     11 nnnnnnnnnnmmmmllllllllkllllllllllllll..nnnmml.mmmmmmlllllllllllllllllllkkk....ppoooonnnnnnnnnn
(PID.TID 0000.0001)     10 nmmmmmmmmmllllklllkkkkkkkkllllllllllmm.nnmmll.mmmmmmmmmllllllllllllllklllk..qppoonnnnnnnnnnmmm
(PID.TID 0000.0001)      9 mmmmmmllllkkkkkkkjjjjkkkkkkkkkkllllmmmmnmmmm.nnnnmmmmmmllmmlllllllllllllll.qppoonnnmmmmmmmmmmm
(PID.TID 0000.0001)      8 lllllkkkkkkkkkjjjijjjjjjjjjjkkkkllllmmmmmmmmmmmmmmmmmmmlllllllkkllllllllmm.pooonmmmlllllllllll
(PID.TID 0000.0001)      7 kkkkkjjjjjjjjjjjjjiijjjjjjjjjjjkkkkkkkkllllmmmmmmllllkkkkkkkkkkkkkkkllllmmmmnnnmllllllllkkkkkk
(PID.TID 0000.0001)      6 kkjjjjjjjjjjjjjjjjjjijjjjjjjjjjjjkkkkkjkkkklllllllkkkjjjjjjkkkjjkkkkkkkllllllllllllkkkkkkkkkjj
(PID.TID 0000.0001)      5 jjjjjjjjjjjjjjjjjjjjjjjjjjjjjjjjjjjjjjjjjjkkkkkkkkjjjjjjjjjjjjjjjjjjjjjjjjjjjjjkkkkkkkkkkkjjjj
(PID.TID 0000.0001)      4 kjjjjjjjjjjjjjjjjjjjjjjjjjjjjjjjjjjjjjjjjjkkkkkkkjjjjjjjjjjjjjjjjjjjiiiiiiii..kkkkkkkkkkkkkjjj
(PID.TID 0000.0001)      3 kkkkkkkjjjjj............................kkkkkkkkkkkjjjjjjjjjjiiiiiiiiiiiihh..llllllkkkkkkkkkkk
(PID.TID 0000.0001)      2 ............................................kkkkkkkkkkkkkkjjjjiiii..iiii.....llllllllllkk.....
(PID.TID 0000.0001)      1 ..............................................................................................
(PID.TID 0000.0001)      0 a------.edddddddeeeef..................................................................aaaa---
(PID.TID 0000.0001)     -1 aaaa--aabbbbbbbb...hh.....................................................cccc........bbaaaaaa
(PID.TID 0000.0001) // =======================================================
(PID.TID 0000.0001) // END OF FIELD                                          =
(PID.TID 0000.0001) // =======================================================
(PID.TID 0000.0001) 
(PID.TID 0000.0001)  MDS_WRITE_FIELD: it,rec,kS,kL,kH=      10     1  15   1  15 file=U.0000000010
(PID.TID 0000.0001)  MDS_WRITE_FIELD: it,rec,kS,kL,kH=      10     1  15   1  15 file=V.0000000010
(PID.TID 0000.0001)  MDS_WRITE_FIELD: it,rec,kS,kL,kH=      10     1  15   1  15 file=T.0000000010
(PID.TID 0000.0001)  MDS_WRITE_FIELD: it,rec,kS,kL,kH=      10     1  15   1  15 file=S.0000000010
(PID.TID 0000.0001)  MDS_WRITE_FIELD: it,rec,kS,kL,kH=      10     1   1   1   1 file=Eta.0000000010
(PID.TID 0000.0001)  MDS_WRITE_FIELD: it,rec,kS,kL,kH=      10     1  15   1  15 file=W.0000000010
(PID.TID 0000.0001)  MDS_WRITE_FIELD: it,rec,kS,kL,kH=      10     1  15   1  15 file=PH.0000000010
(PID.TID 0000.0001)  MDS_WRITE_FIELD: it,rec,kS,kL,kH=      10     1   1   1   1 file=PHL.0000000010
(PID.TID 0000.0001)  MDS_WRITE_FIELD: it,rec,kS,kL,kH=      10     1   1   1   1 file=ETAtave.0000000010
(PID.TID 0000.0001)  MDS_WRITE_FIELD: it,rec,kS,kL,kH=      10     1  15   1  15 file=Ttave.0000000010
(PID.TID 0000.0001)  MDS_WRITE_FIELD: it,rec,kS,kL,kH=      10     1  15   1  15 file=Stave.0000000010
(PID.TID 0000.0001)  MDS_WRITE_FIELD: it,rec,kS,kL,kH=      10     1  15   1  15 file=uVeltave.0000000010
(PID.TID 0000.0001)  MDS_WRITE_FIELD: it,rec,kS,kL,kH=      10     1  15   1  15 file=vVeltave.0000000010
(PID.TID 0000.0001)  MDS_WRITE_FIELD: it,rec,kS,kL,kH=      10     1  15   1  15 file=wVeltave.0000000010
(PID.TID 0000.0001)  MDS_WRITE_FIELD: it,rec,kS,kL,kH=      10     1   1   1   1 file=Eta2tave.0000000010
(PID.TID 0000.0001)  MDS_WRITE_FIELD: it,rec,kS,kL,kH=      10     1  15   1  15 file=UTtave.0000000010
(PID.TID 0000.0001)  MDS_WRITE_FIELD: it,rec,kS,kL,kH=      10     1  15   1  15 file=VTtave.0000000010
(PID.TID 0000.0001)  MDS_WRITE_FIELD: it,rec,kS,kL,kH=      10     1  15   1  15 file=WTtave.0000000010
(PID.TID 0000.0001)  MDS_WRITE_FIELD: it,rec,kS,kL,kH=      10     1  15   1  15 file=UStave.0000000010
(PID.TID 0000.0001)  MDS_WRITE_FIELD: it,rec,kS,kL,kH=      10     1  15   1  15 file=VStave.0000000010
(PID.TID 0000.0001)  MDS_WRITE_FIELD: it,rec,kS,kL,kH=      10     1  15   1  15 file=WStave.0000000010
(PID.TID 0000.0001)  MDS_WRITE_FIELD: it,rec,kS,kL,kH=      10     1  15   1  15 file=TTtave.0000000010
(PID.TID 0000.0001)  MDS_WRITE_FIELD: it,rec,kS,kL,kH=      10     1  15   1  15 file=UUtave.0000000010
(PID.TID 0000.0001)  MDS_WRITE_FIELD: it,rec,kS,kL,kH=      10     1  15   1  15 file=VVtave.0000000010
(PID.TID 0000.0001)  MDS_WRITE_FIELD: it,rec,kS,kL,kH=      10     1  15   1  15 file=UVtave.0000000010
(PID.TID 0000.0001)  MDS_WRITE_FIELD: it,rec,kS,kL,kH=      10     1  15   1  15 file=Tdiftave.0000000010
(PID.TID 0000.0001)  MDS_WRITE_FIELD: it,rec,kS,kL,kH=      10     1  15   1  15 file=PhHytave.0000000010
(PID.TID 0000.0001)  MDS_WRITE_FIELD: it,rec,kS,kL,kH=      10     1   1   1   1 file=PHLtave.0000000010
(PID.TID 0000.0001)  MDS_WRITE_FIELD: it,rec,kS,kL,kH=      10     1   1   1   1 file=uFluxtave.0000000010
(PID.TID 0000.0001)  MDS_WRITE_FIELD: it,rec,kS,kL,kH=      10     1   1   1   1 file=vFluxtave.0000000010
(PID.TID 0000.0001)  MDS_WRITE_FIELD: it,rec,kS,kL,kH=      10     1   1   1   1 file=tFluxtave.0000000010
(PID.TID 0000.0001)  MDS_WRITE_FIELD: it,rec,kS,kL,kH=      10     1   1   1   1 file=sFluxtave.0000000010
(PID.TID 0000.0001)  MDS_WRITE_FIELD: it,rec,kS,kL,kH=      10     1   1   1   1 file=PHL2tave.0000000010
(PID.TID 0000.0001)  MDS_WRITE_FIELD: it,rec,kS,kL,kH=      10     1  15   1  15 file=Convtave.0000000010
(PID.TID 0000.0001) // Time-average data written, t-step        10
(PID.TID 0000.0001) 
(PID.TID 0000.0001)  MDS_WRITE_FIELD: it,rec,kS,kL,kH=      10     1  15   1  15 file=GM_Kwx-T.0000000010
(PID.TID 0000.0001)  MDS_WRITE_FIELD: it,rec,kS,kL,kH=      10     1  15   1  15 file=GM_Kwy-T.0000000010
(PID.TID 0000.0001)  MDS_WRITE_FIELD: it,rec,kS,kL,kH=      10     1  15   1  15 file=GM_Kwz-T.0000000010
(PID.TID 0000.0001)  MDS_WRITE_FIELD: it,rec,kS,kL,kH=      10     1  15   1  15 file=pickup_cd.0000000010
(PID.TID 0000.0001)  MDS_WRITE_FIELD: it,rec,kS,kL,kH=      10     2  15   1  15 file=pickup_cd.0000000010
(PID.TID 0000.0001)  MDS_WRITE_FIELD: it,rec,kS,kL,kH=      10     3  15   1  15 file=pickup_cd.0000000010
(PID.TID 0000.0001)  MDS_WRITE_FIELD: it,rec,kS,kL,kH=      10     4  15   1  15 file=pickup_cd.0000000010
(PID.TID 0000.0001)  MDS_WRITE_FIELD: it,rec,kS,kL,kH=      10    61   1   1   1 file=pickup_cd.0000000010
(PID.TID 0000.0001)  MDS_WRITE_FIELD: it,rec,kS,kL,kH=      10    -1  15   1  15 file=pickup.0000000010
(PID.TID 0000.0001)  MDS_WRITE_FIELD: it,rec,kS,kL,kH=      10    -2  15   1  15 file=pickup.0000000010
(PID.TID 0000.0001)  MDS_WRITE_FIELD: it,rec,kS,kL,kH=      10    -3  15   1  15 file=pickup.0000000010
(PID.TID 0000.0001)  MDS_WRITE_FIELD: it,rec,kS,kL,kH=      10    -4  15   1  15 file=pickup.0000000010
(PID.TID 0000.0001)  MDS_WRITE_FIELD: it,rec,kS,kL,kH=      10    -5  15   1  15 file=pickup.0000000010
(PID.TID 0000.0001)  MDS_WRITE_FIELD: it,rec,kS,kL,kH=      10    -6  15   1  15 file=pickup.0000000010
(PID.TID 0000.0001)  MDS_WRITE_FIELD: it,rec,kS,kL,kH=      10    -7  15   1  15 file=pickup.0000000010
(PID.TID 0000.0001)  MDS_WRITE_FIELD: it,rec,kS,kL,kH=      10    -8  15   1  15 file=pickup.0000000010
(PID.TID 0000.0001)  MDS_WRITE_FIELD: it,rec,kS,kL,kH=      10  -121   1   1   1 file=pickup.0000000010
(PID.TID 0000.0001)  MDS_WRITE_FIELD: it,rec,kS,kL,kH=      10  -122   1   1   1 file=pickup.0000000010
(PID.TID 0000.0001)  MDS_WRITE_FIELD: it,rec,kS,kL,kH=      10  -123   1   1   1 file=pickup.0000000010
(PID.TID 0000.0001) %CHECKPOINT        10 0000000010
 EXTERNAL_FIELDS_LOAD,        10 : iP,iLd,i0,i1=   12    1   12    1 ; Wght=  0.1666666667  0.8333333333
 EXTERNAL_FIELDS_LOAD: (fu0,1),fu,fv= -4.5368E-02 -3.5633E-02 -3.7255E-02 -5.9422E-02
 EXTERNAL_FIELDS_LOAD: SST,SSS,Q,E-P=  6.5667E-01  3.4598E+01  2.6555E+02  1.1372E-05
DEBUG_STATS_RL:          Uvel (THERMODYNAMICS)  min= -1.69510337142628E-01
DEBUG_STATS_RL:          Uvel (THERMODYNAMICS)  max=  1.67073825606176E-01
DEBUG_STATS_RL:          Uvel (THERMODYNAMICS) mean=  7.30508080785428E-03
DEBUG_STATS_RL:          Uvel (THERMODYNAMICS) S.D.=  2.47454386680897E-02
DEBUG_STATS_RL:          Vvel (THERMODYNAMICS)  min= -1.09872250299971E-01
DEBUG_STATS_RL:          Vvel (THERMODYNAMICS)  max=  1.19654445439887E-01
DEBUG_STATS_RL:          Vvel (THERMODYNAMICS) mean= -9.40962116355271E-04
DEBUG_STATS_RL:          Vvel (THERMODYNAMICS) S.D.=  1.82350337001363E-02
DEBUG_STATS_RL:          Wvel (THERMODYNAMICS)  min= -2.94556095819395E-04
DEBUG_STATS_RL:          Wvel (THERMODYNAMICS)  max=  2.22856018514713E-04
DEBUG_STATS_RL:          Wvel (THERMODYNAMICS) mean= -9.31951027457544E-07
DEBUG_STATS_RL:          Wvel (THERMODYNAMICS) S.D.=  2.47104419352888E-05
DEBUG_STATS_RL:         Theta (THERMODYNAMICS)  min= -1.92472085631403E+00
DEBUG_STATS_RL:         Theta (THERMODYNAMICS)  max=  2.99113303506537E+01
DEBUG_STATS_RL:         Theta (THERMODYNAMICS) mean=  3.23400225518926E+00
DEBUG_STATS_RL:         Theta (THERMODYNAMICS) S.D.=  5.85134116582901E+00
DEBUG_STATS_RL:          Salt (THERMODYNAMICS)  min=  3.00000000000000E-02
DEBUG_STATS_RL:          Salt (THERMODYNAMICS)  max=  3.74669998857317E+01
DEBUG_STATS_RL:          Salt (THERMODYNAMICS) mean=  1.88751558867756E+01
DEBUG_STATS_RL:          Salt (THERMODYNAMICS) S.D.=  1.73006309426734E+01
DEBUG_STATS_RL:         GtNm1 (THERMODYNAMICS)  min= -3.39789611969728E-06
DEBUG_STATS_RL:         GtNm1 (THERMODYNAMICS)  max=  2.83563112900108E-06
DEBUG_STATS_RL:         GtNm1 (THERMODYNAMICS) mean=  1.34706120124211E-08
DEBUG_STATS_RL:         GtNm1 (THERMODYNAMICS) S.D.=  2.88349641178409E-07
DEBUG_STATS_RL:         GsNm1 (THERMODYNAMICS)  min= -5.78210738385731E-07
DEBUG_STATS_RL:         GsNm1 (THERMODYNAMICS)  max=  7.15637693203539E-07
DEBUG_STATS_RL:         GsNm1 (THERMODYNAMICS) mean= -5.74733326381155E-10
DEBUG_STATS_RL:         GsNm1 (THERMODYNAMICS) S.D.=  2.56689538815914E-08
DEBUG_STATS_RL:                EtaN (DYNAMICS)  min= -4.08817156361308E+00
DEBUG_STATS_RL:                EtaN (DYNAMICS)  max=  5.06855965377340E+00
DEBUG_STATS_RL:                EtaN (DYNAMICS) mean= -1.73338262192406E-01
DEBUG_STATS_RL:                EtaN (DYNAMICS) S.D.=  1.08033636965663E+00
DEBUG_STATS_RL:                Uvel (DYNAMICS)  min= -1.69510337142628E-01
DEBUG_STATS_RL:                Uvel (DYNAMICS)  max=  1.67073825606176E-01
DEBUG_STATS_RL:                Uvel (DYNAMICS) mean=  7.30508080785428E-03
DEBUG_STATS_RL:                Uvel (DYNAMICS) S.D.=  2.47454386680897E-02
DEBUG_STATS_RL:                Vvel (DYNAMICS)  min= -1.09872250299971E-01
DEBUG_STATS_RL:                Vvel (DYNAMICS)  max=  1.19654445439887E-01
DEBUG_STATS_RL:                Vvel (DYNAMICS) mean= -9.40962116355271E-04
DEBUG_STATS_RL:                Vvel (DYNAMICS) S.D.=  1.82350337001363E-02
DEBUG_STATS_RL:                Wvel (DYNAMICS)  min= -2.94556095819395E-04
DEBUG_STATS_RL:                Wvel (DYNAMICS)  max=  2.22856018514713E-04
DEBUG_STATS_RL:                Wvel (DYNAMICS) mean= -9.31951027457544E-07
DEBUG_STATS_RL:                Wvel (DYNAMICS) S.D.=  2.47104419352888E-05
DEBUG_STATS_RL:               Theta (DYNAMICS)  min= -1.92472085631403E+00
DEBUG_STATS_RL:               Theta (DYNAMICS)  max=  2.99113303506537E+01
DEBUG_STATS_RL:               Theta (DYNAMICS) mean=  3.23400225518926E+00
DEBUG_STATS_RL:               Theta (DYNAMICS) S.D.=  5.85134116582901E+00
DEBUG_STATS_RL:                Salt (DYNAMICS)  min=  3.00000000000000E-02
DEBUG_STATS_RL:                Salt (DYNAMICS)  max=  3.74669998857317E+01
DEBUG_STATS_RL:                Salt (DYNAMICS) mean=  1.88751558867756E+01
DEBUG_STATS_RL:                Salt (DYNAMICS) S.D.=  1.73006309426734E+01
DEBUG_STATS_RL:                  Gu (DYNAMICS)  min= -1.53123624152693E-01
DEBUG_STATS_RL:                  Gu (DYNAMICS)  max=  1.67787029708368E-01
DEBUG_STATS_RL:                  Gu (DYNAMICS) mean=  3.84684357464342E-03
DEBUG_STATS_RL:                  Gu (DYNAMICS) S.D.=  2.57653712999852E-02
DEBUG_STATS_RL:                  Gv (DYNAMICS)  min= -1.08671602561594E-01
DEBUG_STATS_RL:                  Gv (DYNAMICS)  max=  1.19234275753353E-01
DEBUG_STATS_RL:                  Gv (DYNAMICS) mean= -3.45942281672793E-04
DEBUG_STATS_RL:                  Gv (DYNAMICS) S.D.=  1.79282956032461E-02
DEBUG_STATS_RL:               GuNm1 (DYNAMICS)  min= -6.59976146686706E-06
DEBUG_STATS_RL:               GuNm1 (DYNAMICS)  max=  7.91177031566878E-06
DEBUG_STATS_RL:               GuNm1 (DYNAMICS) mean= -4.04095075499606E-08
DEBUG_STATS_RL:               GuNm1 (DYNAMICS) S.D.=  1.16203761287714E-06
DEBUG_STATS_RL:               GvNm1 (DYNAMICS)  min= -9.18138847682721E-06
DEBUG_STATS_RL:               GvNm1 (DYNAMICS)  max=  1.64963248840332E-05
DEBUG_STATS_RL:               GvNm1 (DYNAMICS) mean=  7.75253436510667E-07
DEBUG_STATS_RL:               GvNm1 (DYNAMICS) S.D.=  2.63625768178551E-06
DEBUG_STATS_RL:               GtNm1 (DYNAMICS)  min= -3.39789611969728E-06
DEBUG_STATS_RL:               GtNm1 (DYNAMICS)  max=  2.83563112900108E-06
DEBUG_STATS_RL:               GtNm1 (DYNAMICS) mean=  1.34706120124211E-08
DEBUG_STATS_RL:               GtNm1 (DYNAMICS) S.D.=  2.88349641178409E-07
DEBUG_STATS_RL:               GsNm1 (DYNAMICS)  min= -5.78210738385731E-07
DEBUG_STATS_RL:               GsNm1 (DYNAMICS)  max=  7.15637693203539E-07
DEBUG_STATS_RL:               GsNm1 (DYNAMICS) mean= -5.74733326381155E-10
DEBUG_STATS_RL:               GsNm1 (DYNAMICS) S.D.=  2.56689538815914E-08
DEBUG_STATS_RL:    cg2d_b (SOLVE_FOR_PRESSURE)  min= -1.99470765817588E+04
DEBUG_STATS_RL:    cg2d_b (SOLVE_FOR_PRESSURE)  max=  1.76441851482875E+04
DEBUG_STATS_RL:    cg2d_b (SOLVE_FOR_PRESSURE) mean=  7.26281919275948E-01
DEBUG_STATS_RL:    cg2d_b (SOLVE_FOR_PRESSURE) S.D.=  3.81614984505521E+03
 cg2d: Sum(rhs),rhsMax =   8.42901783744241E-02  1.31017739670563E+00
(PID.TID 0000.0001)  cg2d: iter=     1 ; resid.=  1.28633835804080E+00
(PID.TID 0000.0001)  cg2d: iter=     2 ; resid.=  1.27251005864125E+00
(PID.TID 0000.0001)  cg2d: iter=     3 ; resid.=  1.05739657110684E+00
(PID.TID 0000.0001)  cg2d: iter=     4 ; resid.=  9.54400515424667E-01
(PID.TID 0000.0001)  cg2d: iter=     5 ; resid.=  8.00745989909041E-01
(PID.TID 0000.0001)  cg2d: iter=     6 ; resid.=  6.57090176197690E-01
(PID.TID 0000.0001)  cg2d: iter=     7 ; resid.=  5.59650628817056E-01
(PID.TID 0000.0001)  cg2d: iter=     8 ; resid.=  3.76326851161648E-01
(PID.TID 0000.0001)  cg2d: iter=     9 ; resid.=  3.04647580484278E-01
(PID.TID 0000.0001)  cg2d: iter=    10 ; resid.=  2.86406288728694E-01
(PID.TID 0000.0001)  cg2d: iter=    11 ; resid.=  2.50336291604307E-01
(PID.TID 0000.0001)  cg2d: iter=    12 ; resid.=  1.83769554719148E-01
(PID.TID 0000.0001)  cg2d: iter=    13 ; resid.=  1.56675034325185E-01
(PID.TID 0000.0001)  cg2d: iter=    14 ; resid.=  1.35328728072367E-01
(PID.TID 0000.0001)  cg2d: iter=    15 ; resid.=  1.20963247930541E-01
(PID.TID 0000.0001)  cg2d: iter=    16 ; resid.=  1.19279006598941E-01
(PID.TID 0000.0001)  cg2d: iter=    17 ; resid.=  1.16357859986594E-01
(PID.TID 0000.0001)  cg2d: iter=    18 ; resid.=  9.00495086141189E-02
(PID.TID 0000.0001)  cg2d: iter=    19 ; resid.=  7.11548061788663E-02
(PID.TID 0000.0001)  cg2d: iter=    20 ; resid.=  5.50486037570399E-02
(PID.TID 0000.0001)  cg2d: iter=    21 ; resid.=  4.54759203125594E-02
(PID.TID 0000.0001)  cg2d: iter=    22 ; resid.=  3.78271470013312E-02
(PID.TID 0000.0001)  cg2d: iter=    23 ; resid.=  3.08460857967831E-02
(PID.TID 0000.0001)  cg2d: iter=    24 ; resid.=  2.82774308773743E-02
(PID.TID 0000.0001)  cg2d: iter=    25 ; resid.=  2.10142282039399E-02
(PID.TID 0000.0001)  cg2d: iter=    26 ; resid.=  1.76398778955084E-02
(PID.TID 0000.0001)  cg2d: iter=    27 ; resid.=  1.40885464313812E-02
(PID.TID 0000.0001)  cg2d: iter=    28 ; resid.=  1.16952515746218E-02
(PID.TID 0000.0001)  cg2d: iter=    29 ; resid.=  1.00582874633347E-02
(PID.TID 0000.0001)  cg2d: iter=    30 ; resid.=  9.75650483066478E-03
(PID.TID 0000.0001)  cg2d: iter=    31 ; resid.=  7.71333392647278E-03
(PID.TID 0000.0001)  cg2d: iter=    32 ; resid.=  6.02234379155244E-03
(PID.TID 0000.0001)  cg2d: iter=    33 ; resid.=  5.16611578344231E-03
(PID.TID 0000.0001)  cg2d: iter=    34 ; resid.=  4.39673809468680E-03
(PID.TID 0000.0001)  cg2d: iter=    35 ; resid.=  3.53847410393943E-03
(PID.TID 0000.0001)  cg2d: iter=    36 ; resid.=  3.37363581631386E-03
(PID.TID 0000.0001)  cg2d: iter=    37 ; resid.=  3.08186724688955E-03
(PID.TID 0000.0001)  cg2d: iter=    38 ; resid.=  2.56797829117309E-03
(PID.TID 0000.0001)  cg2d: iter=    39 ; resid.=  2.25956882790726E-03
(PID.TID 0000.0001)  cg2d: iter=    40 ; resid.=  1.88756331966503E-03
(PID.TID 0000.0001)  cg2d: iter=    41 ; resid.=  1.45599439607456E-03
(PID.TID 0000.0001)  cg2d: iter=    42 ; resid.=  1.14992130166876E-03
(PID.TID 0000.0001)  cg2d: iter=    43 ; resid.=  8.73990427498190E-04
(PID.TID 0000.0001)  cg2d: iter=    44 ; resid.=  6.76158591006600E-04
(PID.TID 0000.0001)  cg2d: iter=    45 ; resid.=  5.49788251977826E-04
(PID.TID 0000.0001)  cg2d: iter=    46 ; resid.=  4.34031862289539E-04
(PID.TID 0000.0001)  cg2d: iter=    47 ; resid.=  3.70978201400031E-04
(PID.TID 0000.0001)  cg2d: iter=    48 ; resid.=  3.00664116595605E-04
(PID.TID 0000.0001)  cg2d: iter=    49 ; resid.=  2.57167456474297E-04
(PID.TID 0000.0001)  cg2d: iter=    50 ; resid.=  2.34850394499168E-04
(PID.TID 0000.0001)  cg2d: iter=    51 ; resid.=  2.00540159176752E-04
(PID.TID 0000.0001)  cg2d: iter=    52 ; resid.=  1.71673816248440E-04
(PID.TID 0000.0001)  cg2d: iter=    53 ; resid.=  1.46627838924773E-04
(PID.TID 0000.0001)  cg2d: iter=    54 ; resid.=  1.17175144520176E-04
(PID.TID 0000.0001)  cg2d: iter=    55 ; resid.=  1.02842540104281E-04
(PID.TID 0000.0001)  cg2d: iter=    56 ; resid.=  7.91449557930731E-05
(PID.TID 0000.0001)  cg2d: iter=    57 ; resid.=  6.20396349773441E-05
(PID.TID 0000.0001)  cg2d: iter=    58 ; resid.=  4.89125015508977E-05
(PID.TID 0000.0001)  cg2d: iter=    59 ; resid.=  3.70639514102286E-05
(PID.TID 0000.0001)  cg2d: iter=    60 ; resid.=  3.01576659414866E-05
(PID.TID 0000.0001)  cg2d: iter=    61 ; resid.=  2.28253909631533E-05
(PID.TID 0000.0001)  cg2d: iter=    62 ; resid.=  1.87359350543695E-05
(PID.TID 0000.0001)  cg2d: iter=    63 ; resid.=  1.70059265566055E-05
(PID.TID 0000.0001)  cg2d: iter=    64 ; resid.=  1.46330955502605E-05
(PID.TID 0000.0001)  cg2d: iter=    65 ; resid.=  1.18508539267898E-05
(PID.TID 0000.0001)  cg2d: iter=    66 ; resid.=  9.75400161516479E-06
(PID.TID 0000.0001)  cg2d: iter=    67 ; resid.=  8.65778059109830E-06
(PID.TID 0000.0001)  cg2d: iter=    68 ; resid.=  7.08419113365357E-06
(PID.TID 0000.0001)  cg2d: iter=    69 ; resid.=  5.96703167229891E-06
(PID.TID 0000.0001)  cg2d: iter=    70 ; resid.=  5.37572063139256E-06
(PID.TID 0000.0001)  cg2d: iter=    71 ; resid.=  4.47033010019712E-06
(PID.TID 0000.0001)  cg2d: iter=    72 ; resid.=  3.83761681701727E-06
(PID.TID 0000.0001)  cg2d: iter=    73 ; resid.=  3.28335151116208E-06
(PID.TID 0000.0001)  cg2d: iter=    74 ; resid.=  2.40722026166529E-06
(PID.TID 0000.0001)  cg2d: iter=    75 ; resid.=  1.91733665866674E-06
(PID.TID 0000.0001)  cg2d: iter=    76 ; resid.=  1.59339646905941E-06
(PID.TID 0000.0001)  cg2d: iter=    77 ; resid.=  1.21153773821383E-06
(PID.TID 0000.0001)  cg2d: iter=    78 ; resid.=  9.37323959519211E-07
(PID.TID 0000.0001)  cg2d: iter=    79 ; resid.=  8.41977388512328E-07
(PID.TID 0000.0001)  cg2d: iter=    80 ; resid.=  7.15416798264920E-07
(PID.TID 0000.0001)  cg2d: iter=    81 ; resid.=  5.30863257966293E-07
(PID.TID 0000.0001)  cg2d: iter=    82 ; resid.=  3.99773506576522E-07
(PID.TID 0000.0001)  cg2d: iter=    83 ; resid.=  2.91577394438157E-07
(PID.TID 0000.0001)  cg2d: iter=    84 ; resid.=  2.33571519103359E-07
(PID.TID 0000.0001)  cg2d: iter=    85 ; resid.=  1.84338574401452E-07
(PID.TID 0000.0001)  cg2d: iter=    86 ; resid.=  1.43245697820252E-07
(PID.TID 0000.0001)  cg2d: iter=    87 ; resid.=  1.20699226929383E-07
(PID.TID 0000.0001)  cg2d: iter=    88 ; resid.=  1.09138044435829E-07
(PID.TID 0000.0001)  cg2d: iter=    89 ; resid.=  9.17499546141628E-08
(PID.TID 0000.0001)  cg2d: iter=    90 ; resid.=  7.33543431668077E-08
(PID.TID 0000.0001)  cg2d: iter=    91 ; resid.=  5.77638148671051E-08
(PID.TID 0000.0001)  cg2d: iter=    92 ; resid.=  4.46911104394881E-08
(PID.TID 0000.0001)  cg2d: iter=    93 ; resid.=  3.36351898717800E-08
(PID.TID 0000.0001)  cg2d: iter=    94 ; resid.=  2.59966691873322E-08
(PID.TID 0000.0001)  cg2d: iter=    95 ; resid.=  2.01083186805959E-08
(PID.TID 0000.0001)  cg2d: iter=    96 ; resid.=  1.40851445104237E-08
(PID.TID 0000.0001)  cg2d: iter=    97 ; resid.=  1.14562462854132E-08
(PID.TID 0000.0001)  cg2d: iter=    98 ; resid.=  9.53209594500759E-09
(PID.TID 0000.0001)  cg2d: iter=    99 ; resid.=  7.72999227876808E-09
(PID.TID 0000.0001)  cg2d: iter=   100 ; resid.=  5.99587258601449E-09
(PID.TID 0000.0001)  cg2d: iter=   101 ; resid.=  4.21280803195383E-09
(PID.TID 0000.0001)  cg2d: iter=   102 ; resid.=  3.38513676087960E-09
(PID.TID 0000.0001)  cg2d: iter=   103 ; resid.=  2.72269345691208E-09
(PID.TID 0000.0001)  cg2d: iter=   104 ; resid.=  2.26679564277095E-09
(PID.TID 0000.0001)  cg2d: iter=   105 ; resid.=  1.87204128594943E-09
(PID.TID 0000.0001)  cg2d: iter=   106 ; resid.=  1.57036527566128E-09
(PID.TID 0000.0001)  cg2d: iter=   107 ; resid.=  1.27519168072895E-09
(PID.TID 0000.0001)  cg2d: iter=   108 ; resid.=  1.02052471551412E-09
(PID.TID 0000.0001)  cg2d: iter=   109 ; resid.=  8.76721821928898E-10
(PID.TID 0000.0001)  cg2d: iter=   110 ; resid.=  7.12866939915002E-10
(PID.TID 0000.0001)  cg2d: iter=   111 ; resid.=  5.83855888819996E-10
(PID.TID 0000.0001)  cg2d: iter=   112 ; resid.=  4.55945116535607E-10
(PID.TID 0000.0001)  cg2d: iter=   113 ; resid.=  3.62007720600602E-10
(PID.TID 0000.0001)  cg2d: iter=   114 ; resid.=  2.88491437061594E-10
(PID.TID 0000.0001)  cg2d: iter=   115 ; resid.=  2.33887647220466E-10
(PID.TID 0000.0001)  cg2d: iter=   116 ; resid.=  1.91743722531897E-10
(PID.TID 0000.0001)  cg2d: iter=   117 ; resid.=  1.52555581047049E-10
(PID.TID 0000.0001)  cg2d: iter=   118 ; resid.=  1.15085577400440E-10
(PID.TID 0000.0001)  cg2d: iter=   119 ; resid.=  8.38343503209611E-11
(PID.TID 0000.0001)  cg2d: iter=   120 ; resid.=  6.29207496110011E-11
(PID.TID 0000.0001)  cg2d: iter=   121 ; resid.=  4.53296691067768E-11
(PID.TID 0000.0001)  cg2d: iter=   122 ; resid.=  3.32570766369691E-11
(PID.TID 0000.0001)  cg2d: iter=   123 ; resid.=  2.35599079405253E-11
(PID.TID 0000.0001)  cg2d: iter=   124 ; resid.=  1.62340481899148E-11
(PID.TID 0000.0001)  cg2d: iter=   125 ; resid.=  1.14911440089228E-11
(PID.TID 0000.0001)  cg2d: iter=   126 ; resid.=  7.80129711768031E-12
(PID.TID 0000.0001)  cg2d: iter=   127 ; resid.=  5.48268324363447E-12
(PID.TID 0000.0001)  cg2d: iter=   128 ; resid.=  3.83037259932064E-12
(PID.TID 0000.0001)  cg2d: iter=   129 ; resid.=  2.69471671974218E-12
(PID.TID 0000.0001)  cg2d: iter=   130 ; resid.=  1.91185271841923E-12
(PID.TID 0000.0001)  cg2d: iter=   131 ; resid.=  1.41617990801565E-12
(PID.TID 0000.0001)  cg2d: iter=   132 ; resid.=  1.01057055917360E-12
(PID.TID 0000.0001)  cg2d: iter=   133 ; resid.=  6.90470889854315E-13
(PID.TID 0000.0001)  cg2d: iter=   134 ; resid.=  5.39298955959896E-13
(PID.TID 0000.0001)  cg2d: iter=   135 ; resid.=  4.02102311053543E-13
(PID.TID 0000.0001)  cg2d: iter=   136 ; resid.=  2.85851312528668E-13
(PID.TID 0000.0001)  cg2d: iter=   137 ; resid.=  2.26534916097487E-13
(PID.TID 0000.0001)  cg2d: iter=   138 ; resid.=  1.77492557133274E-13
(PID.TID 0000.0001)  cg2d: iter=   139 ; resid.=  1.49177308635548E-13
(PID.TID 0000.0001)  cg2d: iter=   140 ; resid.=  1.18050735915045E-13
(PID.TID 0000.0001)  cg2d: iter=   141 ; resid.=  8.61046637895199E-14
DEBUG_STATS_RL:    cg2d_x (SOLVE_FOR_PRESSURE)  min= -4.93278795170505E+01
DEBUG_STATS_RL:    cg2d_x (SOLVE_FOR_PRESSURE)  max=  3.26934393285929E+01
DEBUG_STATS_RL:    cg2d_x (SOLVE_FOR_PRESSURE) mean= -2.10838181864991E+00
DEBUG_STATS_RL:    cg2d_x (SOLVE_FOR_PRESSURE) S.D.=  1.09723160383445E+01
(PID.TID 0000.0001)      cg2d_init_res =   1.30952728322678E+00
(PID.TID 0000.0001)      cg2d_iters(min,last) =      -1     141
(PID.TID 0000.0001)      cg2d_last_res =   8.61046637895199E-14
(PID.TID 0000.0001) // =======================================================
(PID.TID 0000.0001) // Begin MONITOR dynamic field statistics
(PID.TID 0000.0001) // =======================================================
(PID.TID 0000.0001) %MON time_tsnumber                =                    11
(PID.TID 0000.0001) %MON time_secondsf                =   9.5040000000000E+05
(PID.TID 0000.0001) %MON dynstat_eta_max              =   3.3326645594896E+00
(PID.TID 0000.0001) %MON dynstat_eta_min              =  -5.0283261485271E+00
(PID.TID 0000.0001) %MON dynstat_eta_mean             =  -7.5778512677964E-04
(PID.TID 0000.0001) %MON dynstat_eta_sd               =   9.1906402893490E-01
(PID.TID 0000.0001) %MON dynstat_eta_del2             =   2.3182920408774E-03
(PID.TID 0000.0001) %MON dynstat_uvel_max             =   1.7206348776736E-01
(PID.TID 0000.0001) %MON dynstat_uvel_min             =  -1.5108232883461E-01
(PID.TID 0000.0001) %MON dynstat_uvel_mean            =   2.8557944412113E-03
(PID.TID 0000.0001) %MON dynstat_uvel_sd              =   1.8865069819377E-02
(PID.TID 0000.0001) %MON dynstat_uvel_del2            =   1.1557267211769E-04
(PID.TID 0000.0001) %MON dynstat_vvel_max             =   1.0887543470929E-01
(PID.TID 0000.0001) %MON dynstat_vvel_min             =  -1.1858118516387E-01
(PID.TID 0000.0001) %MON dynstat_vvel_mean            =  -8.8069800258746E-07
(PID.TID 0000.0001) %MON dynstat_vvel_sd              =   1.3152012327139E-02
(PID.TID 0000.0001) %MON dynstat_vvel_del2            =   1.1206961251388E-04
(PID.TID 0000.0001) %MON dynstat_wvel_max             =   3.1405114190727E-04
(PID.TID 0000.0001) %MON dynstat_wvel_min             =  -2.5480599747649E-04
(PID.TID 0000.0001) %MON dynstat_wvel_mean            =   3.9820791817652E-22
(PID.TID 0000.0001) %MON dynstat_wvel_sd              =   2.6612210209823E-05
(PID.TID 0000.0001) %MON dynstat_wvel_del2            =   3.1047527325763E-07
(PID.TID 0000.0001) %MON dynstat_theta_max            =   2.9911330350654E+01
(PID.TID 0000.0001) %MON dynstat_theta_min            =  -1.9247208563140E+00
(PID.TID 0000.0001) %MON dynstat_theta_mean           =   3.6491909049356E+00
(PID.TID 0000.0001) %MON dynstat_theta_sd             =   4.4148013119815E+00
(PID.TID 0000.0001) %MON dynstat_theta_del2           =   5.0767294638912E-03
(PID.TID 0000.0001) %MON dynstat_salt_max             =   3.7466999885732E+01
(PID.TID 0000.0001) %MON dynstat_salt_min             =   2.9806186094389E+01
(PID.TID 0000.0001) %MON dynstat_salt_mean            =   3.4747983556894E+01
(PID.TID 0000.0001) %MON dynstat_salt_sd              =   2.9614337110025E-01
(PID.TID 0000.0001) %MON dynstat_salt_del2            =   1.0113662987666E-03
(PID.TID 0000.0001) %MON dynstat_sst_max              =   2.9911330350654E+01
(PID.TID 0000.0001) %MON dynstat_sst_min              =  -1.9247208563140E+00
(PID.TID 0000.0001) %MON dynstat_sst_mean             =   1.8639674220517E+01
(PID.TID 0000.0001) %MON dynstat_sst_sd               =   9.0812569218583E+00
(PID.TID 0000.0001) %MON dynstat_sst_del2             =   2.6288213654788E-02
(PID.TID 0000.0001) %MON dynstat_sss_max              =   3.7460993497014E+01
(PID.TID 0000.0001) %MON dynstat_sss_min              =   2.9806186094389E+01
(PID.TID 0000.0001) %MON dynstat_sss_mean             =   3.4884391864389E+01
(PID.TID 0000.0001) %MON dynstat_sss_sd               =   9.6768215900092E-01
(PID.TID 0000.0001) %MON dynstat_sss_del2             =   7.9950035171970E-03
(PID.TID 0000.0001) %MON forcing_qnet_max             =   4.3637268066406E+02
(PID.TID 0000.0001) %MON forcing_qnet_min             =  -1.8235535939535E+02
(PID.TID 0000.0001) %MON forcing_qnet_mean            =  -1.6575085780159E+01
(PID.TID 0000.0001) %MON forcing_qnet_sd              =   1.1080111313050E+02
(PID.TID 0000.0001) %MON forcing_qnet_del2            =   1.0090595771019E+00
(PID.TID 0000.0001) %MON forcing_qsw_max              =   0.0000000000000E+00
(PID.TID 0000.0001) %MON forcing_qsw_min              =   0.0000000000000E+00
(PID.TID 0000.0001) %MON forcing_qsw_mean             =   0.0000000000000E+00
(PID.TID 0000.0001) %MON forcing_qsw_sd               =   0.0000000000000E+00
(PID.TID 0000.0001) %MON forcing_qsw_del2             =   0.0000000000000E+00
(PID.TID 0000.0001) %MON forcing_empmr_max            =   8.1894273288678E-05
(PID.TID 0000.0001) %MON forcing_empmr_min            =  -7.3480514117819E-05
(PID.TID 0000.0001) %MON forcing_empmr_mean           =   8.7408827338311E-07
(PID.TID 0000.0001) %MON forcing_empmr_sd             =   2.8361319601892E-05
(PID.TID 0000.0001) %MON forcing_empmr_del2           =   3.6367323918582E-07
(PID.TID 0000.0001) %MON forcing_fu_max               =   2.7009907364845E-01
(PID.TID 0000.0001) %MON forcing_fu_min               =  -1.6681347042322E-01
(PID.TID 0000.0001) %MON forcing_fu_mean              =   1.6040199257752E-02
(PID.TID 0000.0001) %MON forcing_fu_sd                =   9.0490139077950E-02
(PID.TID 0000.0001) %MON forcing_fu_del2              =   6.8923424175348E-04
(PID.TID 0000.0001) %MON forcing_fv_max               =   2.2372179478407E-01
(PID.TID 0000.0001) %MON forcing_fv_min               =  -1.8106018751860E-01
(PID.TID 0000.0001) %MON forcing_fv_mean              =  -5.6277103738091E-03
(PID.TID 0000.0001) %MON forcing_fv_sd                =   4.6864764071854E-02
(PID.TID 0000.0001) %MON forcing_fv_del2              =   4.6941931464937E-04
(PID.TID 0000.0001) %MON trAdv_CFL_u_max              =   1.1950422592929E-01
(PID.TID 0000.0001) %MON trAdv_CFL_v_max              =   2.4354391454737E-02
(PID.TID 0000.0001) %MON trAdv_CFL_w_max              =   1.8178319056283E-01
(PID.TID 0000.0001) %MON advcfl_uvel_max              =   1.1560778952769E-01
(PID.TID 0000.0001) %MON advcfl_vvel_max              =   2.3038422463777E-02
(PID.TID 0000.0001) %MON advcfl_wvel_max              =   1.3342568595133E-01
(PID.TID 0000.0001) %MON advcfl_W_hf_max              =   1.5725170129978E-01
(PID.TID 0000.0001) %MON pe_b_mean                    =   1.0808689292570E-03
(PID.TID 0000.0001) %MON ke_max                       =   1.4216761177400E-02
(PID.TID 0000.0001) %MON ke_mean                      =   2.4304805130077E-04
(PID.TID 0000.0001) %MON ke_vol                       =   1.3226782436723E+18
(PID.TID 0000.0001) %MON vort_r_min                   =  -9.7947409843188E-07
(PID.TID 0000.0001) %MON vort_r_max                   =   1.0860469774834E-06
(PID.TID 0000.0001) %MON vort_a_mean                  =  -2.5274804850654E-05
(PID.TID 0000.0001) %MON vort_a_sd                    =   7.3605332235454E-05
(PID.TID 0000.0001) %MON vort_p_mean                  =  -3.1845652590568E-05
(PID.TID 0000.0001) %MON vort_p_sd                    =   1.3162098410101E-04
(PID.TID 0000.0001) %MON surfExpan_theta_mean         =   9.0592958417524E-06
(PID.TID 0000.0001) %MON surfExpan_salt_mean          =   5.9592069590021E-07
(PID.TID 0000.0001) // =======================================================
(PID.TID 0000.0001) // End MONITOR dynamic field statistics
(PID.TID 0000.0001) // =======================================================
 EXTERNAL_FIELDS_LOAD,        11 : iP,iLd,i0,i1=   12    1   12    1 ; Wght=  0.1333333333  0.8666666667
 EXTERNAL_FIELDS_LOAD: (fu0,1),fu,fv= -4.5368E-02 -3.5633E-02 -3.6931E-02 -5.8989E-02
 EXTERNAL_FIELDS_LOAD: SST,SSS,Q,E-P=  7.1702E-01  3.4621E+01  2.6559E+02  1.1425E-05
DEBUG_STATS_RL:          Uvel (THERMODYNAMICS)  min= -1.51082328834614E-01
DEBUG_STATS_RL:          Uvel (THERMODYNAMICS)  max=  1.72063487767356E-01
DEBUG_STATS_RL:          Uvel (THERMODYNAMICS) mean=  5.61201050982780E-03
DEBUG_STATS_RL:          Uvel (THERMODYNAMICS) S.D.=  2.56364670804252E-02
DEBUG_STATS_RL:          Vvel (THERMODYNAMICS)  min= -1.18581185163867E-01
DEBUG_STATS_RL:          Vvel (THERMODYNAMICS)  max=  1.08875434709295E-01
DEBUG_STATS_RL:          Vvel (THERMODYNAMICS) mean= -8.18291110104422E-04
DEBUG_STATS_RL:          Vvel (THERMODYNAMICS) S.D.=  1.77367024649618E-02
DEBUG_STATS_RL:          Wvel (THERMODYNAMICS)  min= -2.54805997476492E-04
DEBUG_STATS_RL:          Wvel (THERMODYNAMICS)  max=  3.14051141907273E-04
DEBUG_STATS_RL:          Wvel (THERMODYNAMICS) mean= -6.80945050778720E-07
DEBUG_STATS_RL:          Wvel (THERMODYNAMICS) S.D.=  2.43654863715156E-05
DEBUG_STATS_RL:         Theta (THERMODYNAMICS)  min= -1.91718398423128E+00
DEBUG_STATS_RL:         Theta (THERMODYNAMICS)  max=  2.98988240840915E+01
DEBUG_STATS_RL:         Theta (THERMODYNAMICS) mean=  3.23471231540755E+00
DEBUG_STATS_RL:         Theta (THERMODYNAMICS) S.D.=  5.85176456638230E+00
DEBUG_STATS_RL:          Salt (THERMODYNAMICS)  min=  3.00000000000000E-02
DEBUG_STATS_RL:          Salt (THERMODYNAMICS)  max=  3.74669359027441E+01
DEBUG_STATS_RL:          Salt (THERMODYNAMICS) mean=  1.88751469963322E+01
DEBUG_STATS_RL:          Salt (THERMODYNAMICS) S.D.=  1.73006249403480E+01
DEBUG_STATS_RL:         GtNm1 (THERMODYNAMICS)  min= -5.09424958882475E-06
DEBUG_STATS_RL:         GtNm1 (THERMODYNAMICS)  max=  4.30845393419448E-06
DEBUG_STATS_RL:         GtNm1 (THERMODYNAMICS) mean=  1.51938469723999E-08
DEBUG_STATS_RL:         GtNm1 (THERMODYNAMICS) S.D.=  2.84079470437014E-07
DEBUG_STATS_RL:         GsNm1 (THERMODYNAMICS)  min= -1.16013300535250E-06
DEBUG_STATS_RL:         GsNm1 (THERMODYNAMICS)  max=  1.21625827351793E-06
DEBUG_STATS_RL:         GsNm1 (THERMODYNAMICS) mean= -3.68849015749886E-10
DEBUG_STATS_RL:         GsNm1 (THERMODYNAMICS) S.D.=  2.63844811947028E-08
DEBUG_STATS_RL:                EtaN (DYNAMICS)  min= -5.02832614852712E+00
DEBUG_STATS_RL:                EtaN (DYNAMICS)  max=  3.33266455948961E+00
DEBUG_STATS_RL:                EtaN (DYNAMICS) mean= -2.14921694051979E-01
DEBUG_STATS_RL:                EtaN (DYNAMICS) S.D.=  1.11848277658965E+00
DEBUG_STATS_RL:                Uvel (DYNAMICS)  min= -1.51082328834614E-01
DEBUG_STATS_RL:                Uvel (DYNAMICS)  max=  1.72063487767356E-01
DEBUG_STATS_RL:                Uvel (DYNAMICS) mean=  5.61201050982780E-03
DEBUG_STATS_RL:                Uvel (DYNAMICS) S.D.=  2.56364670804252E-02
DEBUG_STATS_RL:                Vvel (DYNAMICS)  min= -1.18581185163867E-01
DEBUG_STATS_RL:                Vvel (DYNAMICS)  max=  1.08875434709295E-01
DEBUG_STATS_RL:                Vvel (DYNAMICS) mean= -8.18291110104422E-04
DEBUG_STATS_RL:                Vvel (DYNAMICS) S.D.=  1.77367024649618E-02
DEBUG_STATS_RL:                Wvel (DYNAMICS)  min= -2.54805997476492E-04
DEBUG_STATS_RL:                Wvel (DYNAMICS)  max=  3.14051141907273E-04
DEBUG_STATS_RL:                Wvel (DYNAMICS) mean= -6.80945050778720E-07
DEBUG_STATS_RL:                Wvel (DYNAMICS) S.D.=  2.43654863715156E-05
DEBUG_STATS_RL:               Theta (DYNAMICS)  min= -1.91718398423128E+00
DEBUG_STATS_RL:               Theta (DYNAMICS)  max=  2.98988240840915E+01
DEBUG_STATS_RL:               Theta (DYNAMICS) mean=  3.23471231540755E+00
DEBUG_STATS_RL:               Theta (DYNAMICS) S.D.=  5.85176456638230E+00
DEBUG_STATS_RL:                Salt (DYNAMICS)  min=  3.00000000000000E-02
DEBUG_STATS_RL:                Salt (DYNAMICS)  max=  3.74669359027441E+01
DEBUG_STATS_RL:                Salt (DYNAMICS) mean=  1.88751469963322E+01
DEBUG_STATS_RL:                Salt (DYNAMICS) S.D.=  1.73006249403480E+01
DEBUG_STATS_RL:                  Gu (DYNAMICS)  min= -1.32266661550097E-01
DEBUG_STATS_RL:                  Gu (DYNAMICS)  max=  1.69813836437366E-01
DEBUG_STATS_RL:                  Gu (DYNAMICS) mean=  2.34815246009064E-03
DEBUG_STATS_RL:                  Gu (DYNAMICS) S.D.=  2.65147073685582E-02
DEBUG_STATS_RL:                  Gv (DYNAMICS)  min= -1.17032841779126E-01
DEBUG_STATS_RL:                  Gv (DYNAMICS)  max=  1.09001142494602E-01
DEBUG_STATS_RL:                  Gv (DYNAMICS) mean= -1.57167195313940E-04
DEBUG_STATS_RL:                  Gv (DYNAMICS) S.D.=  1.75755397323151E-02
DEBUG_STATS_RL:               GuNm1 (DYNAMICS)  min= -6.44049941642583E-06
DEBUG_STATS_RL:               GuNm1 (DYNAMICS)  max=  8.02487991209392E-06
DEBUG_STATS_RL:               GuNm1 (DYNAMICS) mean= -3.81894926845787E-08
DEBUG_STATS_RL:               GuNm1 (DYNAMICS) S.D.=  1.14379498002126E-06
DEBUG_STATS_RL:               GvNm1 (DYNAMICS)  min= -9.04595499442519E-06
DEBUG_STATS_RL:               GvNm1 (DYNAMICS)  max=  1.65653828047515E-05
DEBUG_STATS_RL:               GvNm1 (DYNAMICS) mean=  7.72170205427181E-07
DEBUG_STATS_RL:               GvNm1 (DYNAMICS) S.D.=  2.61674141942396E-06
DEBUG_STATS_RL:               GtNm1 (DYNAMICS)  min= -5.09424958882475E-06
DEBUG_STATS_RL:               GtNm1 (DYNAMICS)  max=  4.30845393419448E-06
DEBUG_STATS_RL:               GtNm1 (DYNAMICS) mean=  1.51938469723999E-08
DEBUG_STATS_RL:               GtNm1 (DYNAMICS) S.D.=  2.84079470437014E-07
DEBUG_STATS_RL:               GsNm1 (DYNAMICS)  min= -1.16013300535250E-06
DEBUG_STATS_RL:               GsNm1 (DYNAMICS)  max=  1.21625827351793E-06
DEBUG_STATS_RL:               GsNm1 (DYNAMICS) mean= -3.68849015749886E-10
DEBUG_STATS_RL:               GsNm1 (DYNAMICS) S.D.=  2.63844811947028E-08
DEBUG_STATS_RL:    cg2d_b (SOLVE_FOR_PRESSURE)  min= -1.88606678695386E+04
DEBUG_STATS_RL:    cg2d_b (SOLVE_FOR_PRESSURE)  max=  1.72229237215217E+04
DEBUG_STATS_RL:    cg2d_b (SOLVE_FOR_PRESSURE) mean=  7.96997491614504E-01
DEBUG_STATS_RL:    cg2d_b (SOLVE_FOR_PRESSURE) S.D.=  3.68949708735589E+03
 cg2d: Sum(rhs),rhsMax =   9.78252311026726E-02  1.23881916370839E+00
(PID.TID 0000.0001)  cg2d: iter=     1 ; resid.=  1.03585428837030E+00
(PID.TID 0000.0001)  cg2d: iter=     2 ; resid.=  9.34474724990728E-01
(PID.TID 0000.0001)  cg2d: iter=     3 ; resid.=  7.73995122997953E-01
(PID.TID 0000.0001)  cg2d: iter=     4 ; resid.=  7.03242176516807E-01
(PID.TID 0000.0001)  cg2d: iter=     5 ; resid.=  5.99100615403776E-01
(PID.TID 0000.0001)  cg2d: iter=     6 ; resid.=  4.85144458105596E-01
(PID.TID 0000.0001)  cg2d: iter=     7 ; resid.=  4.48210064008653E-01
(PID.TID 0000.0001)  cg2d: iter=     8 ; resid.=  2.79098798774923E-01
(PID.TID 0000.0001)  cg2d: iter=     9 ; resid.=  2.03674300316959E-01
(PID.TID 0000.0001)  cg2d: iter=    10 ; resid.=  1.81991345048147E-01
(PID.TID 0000.0001)  cg2d: iter=    11 ; resid.=  1.58509938075867E-01
(PID.TID 0000.0001)  cg2d: iter=    12 ; resid.=  1.10215366235735E-01
(PID.TID 0000.0001)  cg2d: iter=    13 ; resid.=  8.60199638771025E-02
(PID.TID 0000.0001)  cg2d: iter=    14 ; resid.=  7.11489163556174E-02
(PID.TID 0000.0001)  cg2d: iter=    15 ; resid.=  5.55803752160542E-02
(PID.TID 0000.0001)  cg2d: iter=    16 ; resid.=  4.81834592861969E-02
(PID.TID 0000.0001)  cg2d: iter=    17 ; resid.=  4.64898616484221E-02
(PID.TID 0000.0001)  cg2d: iter=    18 ; resid.=  3.84861960582400E-02
(PID.TID 0000.0001)  cg2d: iter=    19 ; resid.=  3.19794071089879E-02
(PID.TID 0000.0001)  cg2d: iter=    20 ; resid.=  2.66823231862760E-02
(PID.TID 0000.0001)  cg2d: iter=    21 ; resid.=  2.09962106769945E-02
(PID.TID 0000.0001)  cg2d: iter=    22 ; resid.=  1.71895904898705E-02
(PID.TID 0000.0001)  cg2d: iter=    23 ; resid.=  1.36905192984103E-02
(PID.TID 0000.0001)  cg2d: iter=    24 ; resid.=  1.27930333331452E-02
(PID.TID 0000.0001)  cg2d: iter=    25 ; resid.=  9.85288769382414E-03
(PID.TID 0000.0001)  cg2d: iter=    26 ; resid.=  8.13245449083863E-03
(PID.TID 0000.0001)  cg2d: iter=    27 ; resid.=  6.77613876789634E-03
(PID.TID 0000.0001)  cg2d: iter=    28 ; resid.=  5.44631403100119E-03
(PID.TID 0000.0001)  cg2d: iter=    29 ; resid.=  4.22286869307134E-03
(PID.TID 0000.0001)  cg2d: iter=    30 ; resid.=  4.00781717654803E-03
(PID.TID 0000.0001)  cg2d: iter=    31 ; resid.=  3.22304829014729E-03
(PID.TID 0000.0001)  cg2d: iter=    32 ; resid.=  2.47578038738606E-03
(PID.TID 0000.0001)  cg2d: iter=    33 ; resid.=  2.06305652920041E-03
(PID.TID 0000.0001)  cg2d: iter=    34 ; resid.=  1.73377007419249E-03
(PID.TID 0000.0001)  cg2d: iter=    35 ; resid.=  1.28599199347368E-03
(PID.TID 0000.0001)  cg2d: iter=    36 ; resid.=  1.05047340615724E-03
(PID.TID 0000.0001)  cg2d: iter=    37 ; resid.=  9.11386041149349E-04
(PID.TID 0000.0001)  cg2d: iter=    38 ; resid.=  7.26727741782851E-04
(PID.TID 0000.0001)  cg2d: iter=    39 ; resid.=  6.15170123210153E-04
(PID.TID 0000.0001)  cg2d: iter=    40 ; resid.=  5.87510630861141E-04
(PID.TID 0000.0001)  cg2d: iter=    41 ; resid.=  5.11758434026515E-04
(PID.TID 0000.0001)  cg2d: iter=    42 ; resid.=  4.54655783899546E-04
(PID.TID 0000.0001)  cg2d: iter=    43 ; resid.=  3.64512938852523E-04
(PID.TID 0000.0001)  cg2d: iter=    44 ; resid.=  2.86171328067706E-04
(PID.TID 0000.0001)  cg2d: iter=    45 ; resid.=  2.48006120010972E-04
(PID.TID 0000.0001)  cg2d: iter=    46 ; resid.=  1.90140907571104E-04
(PID.TID 0000.0001)  cg2d: iter=    47 ; resid.=  1.48034770869618E-04
(PID.TID 0000.0001)  cg2d: iter=    48 ; resid.=  1.15220577286807E-04
(PID.TID 0000.0001)  cg2d: iter=    49 ; resid.=  9.09912097714292E-05
(PID.TID 0000.0001)  cg2d: iter=    50 ; resid.=  7.93037591353090E-05
(PID.TID 0000.0001)  cg2d: iter=    51 ; resid.=  7.04436442031277E-05
(PID.TID 0000.0001)  cg2d: iter=    52 ; resid.=  6.32074588768177E-05
(PID.TID 0000.0001)  cg2d: iter=    53 ; resid.=  5.84923246694733E-05
(PID.TID 0000.0001)  cg2d: iter=    54 ; resid.=  5.19968154086372E-05
(PID.TID 0000.0001)  cg2d: iter=    55 ; resid.=  4.94203238371574E-05
(PID.TID 0000.0001)  cg2d: iter=    56 ; resid.=  4.22302545809657E-05
(PID.TID 0000.0001)  cg2d: iter=    57 ; resid.=  3.51753424935475E-05
(PID.TID 0000.0001)  cg2d: iter=    58 ; resid.=  2.88431733392202E-05
(PID.TID 0000.0001)  cg2d: iter=    59 ; resid.=  2.16397908486592E-05
(PID.TID 0000.0001)  cg2d: iter=    60 ; resid.=  1.68340843700181E-05
(PID.TID 0000.0001)  cg2d: iter=    61 ; resid.=  1.24775979255720E-05
(PID.TID 0000.0001)  cg2d: iter=    62 ; resid.=  8.80191217552487E-06
(PID.TID 0000.0001)  cg2d: iter=    63 ; resid.=  7.26987273805981E-06
(PID.TID 0000.0001)  cg2d: iter=    64 ; resid.=  6.34446036526088E-06
(PID.TID 0000.0001)  cg2d: iter=    65 ; resid.=  4.92939259839946E-06
(PID.TID 0000.0001)  cg2d: iter=    66 ; resid.=  4.19885246435920E-06
(PID.TID 0000.0001)  cg2d: iter=    67 ; resid.=  3.50086883752827E-06
(PID.TID 0000.0001)  cg2d: iter=    68 ; resid.=  2.78157403596649E-06
(PID.TID 0000.0001)  cg2d: iter=    69 ; resid.=  2.03367389570491E-06
(PID.TID 0000.0001)  cg2d: iter=    70 ; resid.=  1.60184652740103E-06
(PID.TID 0000.0001)  cg2d: iter=    71 ; resid.=  1.22813405235079E-06
(PID.TID 0000.0001)  cg2d: iter=    72 ; resid.=  9.60059026041680E-07
(PID.TID 0000.0001)  cg2d: iter=    73 ; resid.=  8.41286292835434E-07
(PID.TID 0000.0001)  cg2d: iter=    74 ; resid.=  6.90320014305880E-07
(PID.TID 0000.0001)  cg2d: iter=    75 ; resid.=  5.60182970392339E-07
(PID.TID 0000.0001)  cg2d: iter=    76 ; resid.=  4.94553511750688E-07
(PID.TID 0000.0001)  cg2d: iter=    77 ; resid.=  3.75110866608273E-07
(PID.TID 0000.0001)  cg2d: iter=    78 ; resid.=  2.78522085538847E-07
(PID.TID 0000.0001)  cg2d: iter=    79 ; resid.=  2.43749753631764E-07
(PID.TID 0000.0001)  cg2d: iter=    80 ; resid.=  2.08784939240961E-07
(PID.TID 0000.0001)  cg2d: iter=    81 ; resid.=  1.69447196649429E-07
(PID.TID 0000.0001)  cg2d: iter=    82 ; resid.=  1.29726280647262E-07
(PID.TID 0000.0001)  cg2d: iter=    83 ; resid.=  1.03659292298299E-07
(PID.TID 0000.0001)  cg2d: iter=    84 ; resid.=  8.12820675601835E-08
(PID.TID 0000.0001)  cg2d: iter=    85 ; resid.=  6.83667015374526E-08
(PID.TID 0000.0001)  cg2d: iter=    86 ; resid.=  5.28492725634248E-08
(PID.TID 0000.0001)  cg2d: iter=    87 ; resid.=  4.19205622043457E-08
(PID.TID 0000.0001)  cg2d: iter=    88 ; resid.=  3.92671977031452E-08
(PID.TID 0000.0001)  cg2d: iter=    89 ; resid.=  3.66867615017478E-08
(PID.TID 0000.0001)  cg2d: iter=    90 ; resid.=  3.16113373733058E-08
(PID.TID 0000.0001)  cg2d: iter=    91 ; resid.=  2.88688920125256E-08
(PID.TID 0000.0001)  cg2d: iter=    92 ; resid.=  2.44601157961584E-08
(PID.TID 0000.0001)  cg2d: iter=    93 ; resid.=  1.99803285826160E-08
(PID.TID 0000.0001)  cg2d: iter=    94 ; resid.=  1.53600685383814E-08
(PID.TID 0000.0001)  cg2d: iter=    95 ; resid.=  1.15075077777065E-08
(PID.TID 0000.0001)  cg2d: iter=    96 ; resid.=  8.23059073340092E-09
(PID.TID 0000.0001)  cg2d: iter=    97 ; resid.=  6.11804590938472E-09
(PID.TID 0000.0001)  cg2d: iter=    98 ; resid.=  5.32252499243231E-09
(PID.TID 0000.0001)  cg2d: iter=    99 ; resid.=  4.65458731511008E-09
(PID.TID 0000.0001)  cg2d: iter=   100 ; resid.=  4.00770327863960E-09
(PID.TID 0000.0001)  cg2d: iter=   101 ; resid.=  3.13193633763618E-09
(PID.TID 0000.0001)  cg2d: iter=   102 ; resid.=  2.60801691959308E-09
(PID.TID 0000.0001)  cg2d: iter=   103 ; resid.=  2.07944817477882E-09
(PID.TID 0000.0001)  cg2d: iter=   104 ; resid.=  1.74896306335105E-09
(PID.TID 0000.0001)  cg2d: iter=   105 ; resid.=  1.37833472579172E-09
(PID.TID 0000.0001)  cg2d: iter=   106 ; resid.=  1.13796029447453E-09
(PID.TID 0000.0001)  cg2d: iter=   107 ; resid.=  9.14545847246326E-10
(PID.TID 0000.0001)  cg2d: iter=   108 ; resid.=  7.32440028425718E-10
(PID.TID 0000.0001)  cg2d: iter=   109 ; resid.=  6.45136783079451E-10
(PID.TID 0000.0001)  cg2d: iter=   110 ; resid.=  5.43450136962161E-10
(PID.TID 0000.0001)  cg2d: iter=   111 ; resid.=  4.88829071424854E-10
(PID.TID 0000.0001)  cg2d: iter=   112 ; resid.=  3.89669138584978E-10
(PID.TID 0000.0001)  cg2d: iter=   113 ; resid.=  3.13410816200229E-10
(PID.TID 0000.0001)  cg2d: iter=   114 ; resid.=  2.30476548064744E-10
(PID.TID 0000.0001)  cg2d: iter=   115 ; resid.=  1.65130116078932E-10
(PID.TID 0000.0001)  cg2d: iter=   116 ; resid.=  1.22889801491566E-10
(PID.TID 0000.0001)  cg2d: iter=   117 ; resid.=  9.11729280226843E-11
(PID.TID 0000.0001)  cg2d: iter=   118 ; resid.=  6.53556875785203E-11
(PID.TID 0000.0001)  cg2d: iter=   119 ; resid.=  4.63236688560393E-11
(PID.TID 0000.0001)  cg2d: iter=   120 ; resid.=  3.35841435772986E-11
(PID.TID 0000.0001)  cg2d: iter=   121 ; resid.=  2.56726679311208E-11
(PID.TID 0000.0001)  cg2d: iter=   122 ; resid.=  1.93602368658036E-11
(PID.TID 0000.0001)  cg2d: iter=   123 ; resid.=  1.47204401103242E-11
(PID.TID 0000.0001)  cg2d: iter=   124 ; resid.=  1.09263713483238E-11
(PID.TID 0000.0001)  cg2d: iter=   125 ; resid.=  7.86630698882853E-12
(PID.TID 0000.0001)  cg2d: iter=   126 ; resid.=  5.80549319105220E-12
(PID.TID 0000.0001)  cg2d: iter=   127 ; resid.=  4.26038329886423E-12
(PID.TID 0000.0001)  cg2d: iter=   128 ; resid.=  3.25365040170319E-12
(PID.TID 0000.0001)  cg2d: iter=   129 ; resid.=  2.41304292385262E-12
(PID.TID 0000.0001)  cg2d: iter=   130 ; resid.=  1.85399118502590E-12
(PID.TID 0000.0001)  cg2d: iter=   131 ; resid.=  1.53569790728729E-12
(PID.TID 0000.0001)  cg2d: iter=   132 ; resid.=  1.16948121058097E-12
(PID.TID 0000.0001)  cg2d: iter=   133 ; resid.=  8.27168353063315E-13
(PID.TID 0000.0001)  cg2d: iter=   134 ; resid.=  6.86891028811235E-13
(PID.TID 0000.0001)  cg2d: iter=   135 ; resid.=  5.27553993896081E-13
(PID.TID 0000.0001)  cg2d: iter=   136 ; resid.=  3.77610978467315E-13
(PID.TID 0000.0001)  cg2d: iter=   137 ; resid.=  2.93547890542980E-13
(PID.TID 0000.0001)  cg2d: iter=   138 ; resid.=  2.21531064976926E-13
(PID.TID 0000.0001)  cg2d: iter=   139 ; resid.=  1.71246511940664E-13
(PID.TID 0000.0001)  cg2d: iter=   140 ; resid.=  1.20377721414286E-13
(PID.TID 0000.0001)  cg2d: iter=   141 ; resid.=  8.39795252786748E-14
DEBUG_STATS_RL:    cg2d_x (SOLVE_FOR_PRESSURE)  min= -5.65131195331002E+01
DEBUG_STATS_RL:    cg2d_x (SOLVE_FOR_PRESSURE)  max=  1.73523290103808E+01
DEBUG_STATS_RL:    cg2d_x (SOLVE_FOR_PRESSURE) mean= -2.28328199793331E+00
DEBUG_STATS_RL:    cg2d_x (SOLVE_FOR_PRESSURE) S.D.=  1.11988257710589E+01
(PID.TID 0000.0001)      cg2d_init_res =   1.18851123249122E+00
(PID.TID 0000.0001)      cg2d_iters(min,last) =      -1     141
(PID.TID 0000.0001)      cg2d_last_res =   8.39795252786748E-14
(PID.TID 0000.0001) // =======================================================
(PID.TID 0000.0001) // Begin MONITOR dynamic field statistics
(PID.TID 0000.0001) // =======================================================
(PID.TID 0000.0001) %MON time_tsnumber                =                    12
(PID.TID 0000.0001) %MON time_secondsf                =   1.0368000000000E+06
(PID.TID 0000.0001) %MON dynstat_eta_max              =   1.7688408777147E+00
(PID.TID 0000.0001) %MON dynstat_eta_min              =  -5.7607665171355E+00
(PID.TID 0000.0001) %MON dynstat_eta_mean             =  -8.3156805807340E-04
(PID.TID 0000.0001) %MON dynstat_eta_sd               =   8.8155172209432E-01
(PID.TID 0000.0001) %MON dynstat_eta_del2             =   2.1241228143148E-03
(PID.TID 0000.0001) %MON dynstat_uvel_max             =   1.7429115218662E-01
(PID.TID 0000.0001) %MON dynstat_uvel_min             =  -1.1273944698242E-01
(PID.TID 0000.0001) %MON dynstat_uvel_mean            =   1.1493954083739E-03
(PID.TID 0000.0001) %MON dynstat_uvel_sd              =   2.0101858519551E-02
(PID.TID 0000.0001) %MON dynstat_uvel_del2            =   1.1903928563944E-04
(PID.TID 0000.0001) %MON dynstat_vvel_max             =   1.1500447202511E-01
(PID.TID 0000.0001) %MON dynstat_vvel_min             =  -1.2521577470188E-01
(PID.TID 0000.0001) %MON dynstat_vvel_mean            =  -3.6969481214085E-04
(PID.TID 0000.0001) %MON dynstat_vvel_sd              =   1.2879511395073E-02
(PID.TID 0000.0001) %MON dynstat_vvel_del2            =   1.0947509218641E-04
(PID.TID 0000.0001) %MON dynstat_wvel_max             =   3.8766592892258E-04
(PID.TID 0000.0001) %MON dynstat_wvel_min             =  -2.8937349338761E-04
(PID.TID 0000.0001) %MON dynstat_wvel_mean            =   5.6204635833175E-22
(PID.TID 0000.0001) %MON dynstat_wvel_sd              =   2.6777528906622E-05
(PID.TID 0000.0001) %MON dynstat_wvel_del2            =   3.0905633322707E-07
(PID.TID 0000.0001) %MON dynstat_theta_max            =   2.9898824084091E+01
(PID.TID 0000.0001) %MON dynstat_theta_min            =  -1.9171839842313E+00
(PID.TID 0000.0001) %MON dynstat_theta_mean           =   3.6491480799369E+00
(PID.TID 0000.0001) %MON dynstat_theta_sd             =   4.4145779042173E+00
(PID.TID 0000.0001) %MON dynstat_theta_del2           =   5.0345758922220E-03
(PID.TID 0000.0001) %MON dynstat_salt_max             =   3.7466935902744E+01
(PID.TID 0000.0001) %MON dynstat_salt_min             =   2.9788796519889E+01
(PID.TID 0000.0001) %MON dynstat_salt_mean            =   3.4747972702500E+01
(PID.TID 0000.0001) %MON dynstat_salt_sd              =   2.9615229751457E-01
(PID.TID 0000.0001) %MON dynstat_salt_del2            =   1.0116536956790E-03
(PID.TID 0000.0001) %MON dynstat_sst_max              =   2.9898824084091E+01
(PID.TID 0000.0001) %MON dynstat_sst_min              =  -1.9171839842313E+00
(PID.TID 0000.0001) %MON dynstat_sst_mean             =   1.8650577587863E+01
(PID.TID 0000.0001) %MON dynstat_sst_sd               =   9.0739515077144E+00
(PID.TID 0000.0001) %MON dynstat_sst_del2             =   2.6271863926146E-02
(PID.TID 0000.0001) %MON dynstat_sss_max              =   3.7460526833901E+01
(PID.TID 0000.0001) %MON dynstat_sss_min              =   2.9788796519889E+01
(PID.TID 0000.0001) %MON dynstat_sss_mean             =   3.4884657927050E+01
(PID.TID 0000.0001) %MON dynstat_sss_sd               =   9.6829824021528E-01
(PID.TID 0000.0001) %MON dynstat_sss_del2             =   7.9895110774898E-03
(PID.TID 0000.0001) %MON forcing_qnet_max             =   4.3742086791992E+02
(PID.TID 0000.0001) %MON forcing_qnet_min             =  -1.8188829345703E+02
(PID.TID 0000.0001) %MON forcing_qnet_mean            =  -1.6562573824336E+01
(PID.TID 0000.0001) %MON forcing_qnet_sd              =   1.1061005498176E+02
(PID.TID 0000.0001) %MON forcing_qnet_del2            =   1.0118306891868E+00
(PID.TID 0000.0001) %MON forcing_qsw_max              =   0.0000000000000E+00
(PID.TID 0000.0001) %MON forcing_qsw_min              =   0.0000000000000E+00
(PID.TID 0000.0001) %MON forcing_qsw_mean             =   0.0000000000000E+00
(PID.TID 0000.0001) %MON forcing_qsw_sd               =   0.0000000000000E+00
(PID.TID 0000.0001) %MON forcing_qsw_del2             =   0.0000000000000E+00
(PID.TID 0000.0001) %MON forcing_empmr_max            =   8.1895939748241E-05
(PID.TID 0000.0001) %MON forcing_empmr_min            =  -7.3862861427187E-05
(PID.TID 0000.0001) %MON forcing_empmr_mean           =   8.8385803112860E-07
(PID.TID 0000.0001) %MON forcing_empmr_sd             =   2.8441005317708E-05
(PID.TID 0000.0001) %MON forcing_empmr_del2           =   3.6422974995246E-07
(PID.TID 0000.0001) %MON forcing_fu_max               =   2.7018036246300E-01
(PID.TID 0000.0001) %MON forcing_fu_min               =  -1.6762689054012E-01
(PID.TID 0000.0001) %MON forcing_fu_mean              =   1.6032506436715E-02
(PID.TID 0000.0001) %MON forcing_fu_sd                =   9.0583250401530E-02
(PID.TID 0000.0001) %MON forcing_fu_del2              =   6.9548641877095E-04
(PID.TID 0000.0001) %MON forcing_fv_max               =   2.2560169994831E-01
(PID.TID 0000.0001) %MON forcing_fv_min               =  -1.8047553002834E-01
(PID.TID 0000.0001) %MON forcing_fv_mean              =  -5.5539478469483E-03
(PID.TID 0000.0001) %MON forcing_fv_sd                =   4.7114745146942E-02
(PID.TID 0000.0001) %MON forcing_fv_del2              =   4.7455200431690E-04
(PID.TID 0000.0001) %MON trAdv_CFL_u_max              =   1.1563127029659E-01
(PID.TID 0000.0001) %MON trAdv_CFL_v_max              =   2.3229572245234E-02
(PID.TID 0000.0001) %MON trAdv_CFL_w_max              =   1.5725170129978E-01
(PID.TID 0000.0001) %MON advcfl_uvel_max              =   9.5671378958397E-02
(PID.TID 0000.0001) %MON advcfl_vvel_max              =   2.4327416804990E-02
(PID.TID 0000.0001) %MON advcfl_wvel_max              =   9.7588443200881E-02
(PID.TID 0000.0001) %MON advcfl_W_hf_max              =   1.1501495091532E-01
(PID.TID 0000.0001) %MON pe_b_mean                    =   9.9443678980961E-04
(PID.TID 0000.0001) %MON ke_max                       =   1.4574160918595E-02
(PID.TID 0000.0001) %MON ke_mean                      =   2.5871497879121E-04
(PID.TID 0000.0001) %MON ke_vol                       =   1.3226782436723E+18
(PID.TID 0000.0001) %MON vort_r_min                   =  -9.0756542804692E-07
(PID.TID 0000.0001) %MON vort_r_max                   =   9.6550778537658E-07
(PID.TID 0000.0001) %MON vort_a_mean                  =  -2.5274805157579E-05
(PID.TID 0000.0001) %MON vort_a_sd                    =   7.3605022034412E-05
(PID.TID 0000.0001) %MON vort_p_mean                  =  -3.1845652977286E-05
(PID.TID 0000.0001) %MON vort_p_sd                    =   1.3162030356386E-04
(PID.TID 0000.0001) %MON surfExpan_theta_mean         =   3.9904590604725E-06
(PID.TID 0000.0001) %MON surfExpan_salt_mean          =   4.5320569338147E-07
(PID.TID 0000.0001) // =======================================================
(PID.TID 0000.0001) // End MONITOR dynamic field statistics
(PID.TID 0000.0001) // =======================================================
 EXTERNAL_FIELDS_LOAD,        12 : iP,iLd,i0,i1=   12    1   12    1 ; Wght=  0.1000000000  0.9000000000
 EXTERNAL_FIELDS_LOAD: (fu0,1),fu,fv= -4.5368E-02 -3.5633E-02 -3.6606E-02 -5.8556E-02
 EXTERNAL_FIELDS_LOAD: SST,SSS,Q,E-P=  7.7737E-01  3.4644E+01  2.6564E+02  1.1478E-05
DEBUG_STATS_RL:          Uvel (THERMODYNAMICS)  min= -1.12739446982423E-01
DEBUG_STATS_RL:          Uvel (THERMODYNAMICS)  max=  1.74291152186615E-01
DEBUG_STATS_RL:          Uvel (THERMODYNAMICS) mean=  3.90823765613827E-03
DEBUG_STATS_RL:          Uvel (THERMODYNAMICS) S.D.=  2.64038199413678E-02
DEBUG_STATS_RL:          Vvel (THERMODYNAMICS)  min= -1.25215774701884E-01
DEBUG_STATS_RL:          Vvel (THERMODYNAMICS)  max=  1.15004472025109E-01
DEBUG_STATS_RL:          Vvel (THERMODYNAMICS) mean= -7.51927294031134E-04
DEBUG_STATS_RL:          Vvel (THERMODYNAMICS) S.D.=  1.73037063357109E-02
DEBUG_STATS_RL:          Wvel (THERMODYNAMICS)  min= -2.89373493387609E-04
DEBUG_STATS_RL:          Wvel (THERMODYNAMICS)  max=  3.87665928922576E-04
DEBUG_STATS_RL:          Wvel (THERMODYNAMICS) mean= -4.14160381588621E-07
DEBUG_STATS_RL:          Wvel (THERMODYNAMICS) S.D.=  2.43578923774490E-05
DEBUG_STATS_RL:         Theta (THERMODYNAMICS)  min= -1.92152995340216E+00
DEBUG_STATS_RL:         Theta (THERMODYNAMICS)  max=  2.98855689367043E+01
DEBUG_STATS_RL:         Theta (THERMODYNAMICS) mean=  3.23545587501991E+00
DEBUG_STATS_RL:         Theta (THERMODYNAMICS) S.D.=  5.85247227619981E+00
DEBUG_STATS_RL:          Salt (THERMODYNAMICS)  min=  3.00000000000000E-02
DEBUG_STATS_RL:          Salt (THERMODYNAMICS)  max=  3.74670076138311E+01
DEBUG_STATS_RL:          Salt (THERMODYNAMICS) mean=  1.88751473570722E+01
DEBUG_STATS_RL:          Salt (THERMODYNAMICS) S.D.=  1.73006276134202E+01
DEBUG_STATS_RL:         GtNm1 (THERMODYNAMICS)  min= -5.69051466802433E-06
DEBUG_STATS_RL:         GtNm1 (THERMODYNAMICS)  max=  4.90323798290757E-06
DEBUG_STATS_RL:         GtNm1 (THERMODYNAMICS) mean=  1.63009077227108E-08
DEBUG_STATS_RL:         GtNm1 (THERMODYNAMICS) S.D.=  2.77680670814123E-07
DEBUG_STATS_RL:         GsNm1 (THERMODYNAMICS)  min= -1.33715730369299E-06
DEBUG_STATS_RL:         GsNm1 (THERMODYNAMICS)  max=  1.39400651882537E-06
DEBUG_STATS_RL:         GsNm1 (THERMODYNAMICS) mean= -1.53827772202179E-10
DEBUG_STATS_RL:         GsNm1 (THERMODYNAMICS) S.D.=  2.65641232893437E-08
DEBUG_STATS_RL:                EtaN (DYNAMICS)  min= -5.76076651713554E+00
DEBUG_STATS_RL:                EtaN (DYNAMICS)  max=  1.76884087771467E+00
DEBUG_STATS_RL:                EtaN (DYNAMICS) mean= -2.32750458504925E-01
DEBUG_STATS_RL:                EtaN (DYNAMICS) S.D.=  1.14157245372670E+00
DEBUG_STATS_RL:                Uvel (DYNAMICS)  min= -1.12739446982423E-01
DEBUG_STATS_RL:                Uvel (DYNAMICS)  max=  1.74291152186615E-01
DEBUG_STATS_RL:                Uvel (DYNAMICS) mean=  3.90823765613827E-03
DEBUG_STATS_RL:                Uvel (DYNAMICS) S.D.=  2.64038199413678E-02
DEBUG_STATS_RL:                Vvel (DYNAMICS)  min= -1.25215774701884E-01
DEBUG_STATS_RL:                Vvel (DYNAMICS)  max=  1.15004472025109E-01
DEBUG_STATS_RL:                Vvel (DYNAMICS) mean= -7.51927294031134E-04
DEBUG_STATS_RL:                Vvel (DYNAMICS) S.D.=  1.73037063357109E-02
DEBUG_STATS_RL:                Wvel (DYNAMICS)  min= -2.89373493387609E-04
DEBUG_STATS_RL:                Wvel (DYNAMICS)  max=  3.87665928922576E-04
DEBUG_STATS_RL:                Wvel (DYNAMICS) mean= -4.14160381588621E-07
DEBUG_STATS_RL:                Wvel (DYNAMICS) S.D.=  2.43578923774490E-05
DEBUG_STATS_RL:               Theta (DYNAMICS)  min= -1.92152995340216E+00
DEBUG_STATS_RL:               Theta (DYNAMICS)  max=  2.98855689367043E+01
DEBUG_STATS_RL:               Theta (DYNAMICS) mean=  3.23545587501991E+00
DEBUG_STATS_RL:               Theta (DYNAMICS) S.D.=  5.85247227619981E+00
DEBUG_STATS_RL:                Salt (DYNAMICS)  min=  3.00000000000000E-02
DEBUG_STATS_RL:                Salt (DYNAMICS)  max=  3.74670076138311E+01
DEBUG_STATS_RL:                Salt (DYNAMICS) mean=  1.88751473570722E+01
DEBUG_STATS_RL:                Salt (DYNAMICS) S.D.=  1.73006276134202E+01
DEBUG_STATS_RL:                  Gu (DYNAMICS)  min= -9.54560313850485E-02
DEBUG_STATS_RL:                  Gu (DYNAMICS)  max=  1.70891313183061E-01
DEBUG_STATS_RL:                  Gu (DYNAMICS) mean=  9.12542568041361E-04
DEBUG_STATS_RL:                  Gu (DYNAMICS) S.D.=  2.71249645889871E-02
DEBUG_STATS_RL:                  Gv (DYNAMICS)  min= -1.23299480868267E-01
DEBUG_STATS_RL:                  Gv (DYNAMICS)  max=  1.10282430693227E-01
DEBUG_STATS_RL:                  Gv (DYNAMICS) mean= -2.11910176566217E-05
DEBUG_STATS_RL:                  Gv (DYNAMICS) S.D.=  1.74105101970932E-02
DEBUG_STATS_RL:               GuNm1 (DYNAMICS)  min= -6.35398334547606E-06
DEBUG_STATS_RL:               GuNm1 (DYNAMICS)  max=  8.13679438294622E-06
DEBUG_STATS_RL:               GuNm1 (DYNAMICS) mean= -3.55692315319994E-08
DEBUG_STATS_RL:               GuNm1 (DYNAMICS) S.D.=  1.13038069590963E-06
DEBUG_STATS_RL:               GvNm1 (DYNAMICS)  min= -8.59351243477186E-06
DEBUG_STATS_RL:               GvNm1 (DYNAMICS)  max=  1.66356818645631E-05
DEBUG_STATS_RL:               GvNm1 (DYNAMICS) mean=  7.69942789100300E-07
DEBUG_STATS_RL:               GvNm1 (DYNAMICS) S.D.=  2.60144322655107E-06
DEBUG_STATS_RL:               GtNm1 (DYNAMICS)  min= -5.69051466802433E-06
DEBUG_STATS_RL:               GtNm1 (DYNAMICS)  max=  4.90323798290757E-06
DEBUG_STATS_RL:               GtNm1 (DYNAMICS) mean=  1.63009077227108E-08
DEBUG_STATS_RL:               GtNm1 (DYNAMICS) S.D.=  2.77680670814123E-07
DEBUG_STATS_RL:               GsNm1 (DYNAMICS)  min= -1.33715730369299E-06
DEBUG_STATS_RL:               GsNm1 (DYNAMICS)  max=  1.39400651882537E-06
DEBUG_STATS_RL:               GsNm1 (DYNAMICS) mean= -1.53827772202179E-10
DEBUG_STATS_RL:               GsNm1 (DYNAMICS) S.D.=  2.65641232893437E-08
DEBUG_STATS_RL:    cg2d_b (SOLVE_FOR_PRESSURE)  min= -1.82895053745224E+04
DEBUG_STATS_RL:    cg2d_b (SOLVE_FOR_PRESSURE)  max=  1.65628935215731E+04
DEBUG_STATS_RL:    cg2d_b (SOLVE_FOR_PRESSURE) mean=  8.68494721172746E-01
DEBUG_STATS_RL:    cg2d_b (SOLVE_FOR_PRESSURE) S.D.=  3.60668864878235E+03
 cg2d: Sum(rhs),rhsMax =   1.09929997468131E-01  1.20130368179058E+00
(PID.TID 0000.0001)  cg2d: iter=     1 ; resid.=  8.54769272991718E-01
(PID.TID 0000.0001)  cg2d: iter=     2 ; resid.=  7.34058112699183E-01
(PID.TID 0000.0001)  cg2d: iter=     3 ; resid.=  6.22067321866027E-01
(PID.TID 0000.0001)  cg2d: iter=     4 ; resid.=  6.07045089346167E-01
(PID.TID 0000.0001)  cg2d: iter=     5 ; resid.=  5.22703298947633E-01
(PID.TID 0000.0001)  cg2d: iter=     6 ; resid.=  4.41046485703768E-01
(PID.TID 0000.0001)  cg2d: iter=     7 ; resid.=  4.33758992095037E-01
(PID.TID 0000.0001)  cg2d: iter=     8 ; resid.=  2.90168733317120E-01
(PID.TID 0000.0001)  cg2d: iter=     9 ; resid.=  2.08758636851496E-01
(PID.TID 0000.0001)  cg2d: iter=    10 ; resid.=  1.90696939386843E-01
(PID.TID 0000.0001)  cg2d: iter=    11 ; resid.=  1.78298333807640E-01
(PID.TID 0000.0001)  cg2d: iter=    12 ; resid.=  1.34270540776063E-01
(PID.TID 0000.0001)  cg2d: iter=    13 ; resid.=  1.14236604313385E-01
(PID.TID 0000.0001)  cg2d: iter=    14 ; resid.=  9.99904447744654E-02
(PID.TID 0000.0001)  cg2d: iter=    15 ; resid.=  8.17730940075158E-02
(PID.TID 0000.0001)  cg2d: iter=    16 ; resid.=  7.19582409475832E-02
(PID.TID 0000.0001)  cg2d: iter=    17 ; resid.=  6.54600727034291E-02
(PID.TID 0000.0001)  cg2d: iter=    18 ; resid.=  5.08627919860286E-02
(PID.TID 0000.0001)  cg2d: iter=    19 ; resid.=  3.79671701090583E-02
(PID.TID 0000.0001)  cg2d: iter=    20 ; resid.=  3.10795485968891E-02
(PID.TID 0000.0001)  cg2d: iter=    21 ; resid.=  2.44169806175120E-02
(PID.TID 0000.0001)  cg2d: iter=    22 ; resid.=  2.02975135000027E-02
(PID.TID 0000.0001)  cg2d: iter=    23 ; resid.=  1.69517554100727E-02
(PID.TID 0000.0001)  cg2d: iter=    24 ; resid.=  1.57228380871148E-02
(PID.TID 0000.0001)  cg2d: iter=    25 ; resid.=  1.31986823997845E-02
(PID.TID 0000.0001)  cg2d: iter=    26 ; resid.=  1.16243692316647E-02
(PID.TID 0000.0001)  cg2d: iter=    27 ; resid.=  1.04866103830461E-02
(PID.TID 0000.0001)  cg2d: iter=    28 ; resid.=  9.32600474421965E-03
(PID.TID 0000.0001)  cg2d: iter=    29 ; resid.=  7.62825093431455E-03
(PID.TID 0000.0001)  cg2d: iter=    30 ; resid.=  7.18431810468749E-03
(PID.TID 0000.0001)  cg2d: iter=    31 ; resid.=  5.73371728381073E-03
(PID.TID 0000.0001)  cg2d: iter=    32 ; resid.=  4.44822816405409E-03
(PID.TID 0000.0001)  cg2d: iter=    33 ; resid.=  3.86033040010789E-03
(PID.TID 0000.0001)  cg2d: iter=    34 ; resid.=  3.22401362648806E-03
(PID.TID 0000.0001)  cg2d: iter=    35 ; resid.=  2.49115166272409E-03
(PID.TID 0000.0001)  cg2d: iter=    36 ; resid.=  2.00447089626458E-03
(PID.TID 0000.0001)  cg2d: iter=    37 ; resid.=  1.68271271664626E-03
(PID.TID 0000.0001)  cg2d: iter=    38 ; resid.=  1.33279436796678E-03
(PID.TID 0000.0001)  cg2d: iter=    39 ; resid.=  1.03046137212216E-03
(PID.TID 0000.0001)  cg2d: iter=    40 ; resid.=  9.01354774373368E-04
(PID.TID 0000.0001)  cg2d: iter=    41 ; resid.=  7.34694332256250E-04
(PID.TID 0000.0001)  cg2d: iter=    42 ; resid.=  6.39770754103127E-04
(PID.TID 0000.0001)  cg2d: iter=    43 ; resid.=  4.98802473450295E-04
(PID.TID 0000.0001)  cg2d: iter=    44 ; resid.=  4.00788141482850E-04
(PID.TID 0000.0001)  cg2d: iter=    45 ; resid.=  3.52886507935849E-04
(PID.TID 0000.0001)  cg2d: iter=    46 ; resid.=  2.94441993870928E-04
(PID.TID 0000.0001)  cg2d: iter=    47 ; resid.=  2.35335868028446E-04
(PID.TID 0000.0001)  cg2d: iter=    48 ; resid.=  1.95389990464565E-04
(PID.TID 0000.0001)  cg2d: iter=    49 ; resid.=  1.72092749324522E-04
(PID.TID 0000.0001)  cg2d: iter=    50 ; resid.=  1.58698936390337E-04
(PID.TID 0000.0001)  cg2d: iter=    51 ; resid.=  1.52647131627038E-04
(PID.TID 0000.0001)  cg2d: iter=    52 ; resid.=  1.28491209591608E-04
(PID.TID 0000.0001)  cg2d: iter=    53 ; resid.=  1.07387626297141E-04
(PID.TID 0000.0001)  cg2d: iter=    54 ; resid.=  8.79241618557096E-05
(PID.TID 0000.0001)  cg2d: iter=    55 ; resid.=  7.29803125153702E-05
(PID.TID 0000.0001)  cg2d: iter=    56 ; resid.=  5.76981791770756E-05
(PID.TID 0000.0001)  cg2d: iter=    57 ; resid.=  4.31510475829312E-05
(PID.TID 0000.0001)  cg2d: iter=    58 ; resid.=  3.21277976553772E-05
(PID.TID 0000.0001)  cg2d: iter=    59 ; resid.=  2.38684106779802E-05
(PID.TID 0000.0001)  cg2d: iter=    60 ; resid.=  1.84037454263950E-05
(PID.TID 0000.0001)  cg2d: iter=    61 ; resid.=  1.45754990433091E-05
(PID.TID 0000.0001)  cg2d: iter=    62 ; resid.=  1.04436338461448E-05
(PID.TID 0000.0001)  cg2d: iter=    63 ; resid.=  8.94163241665649E-06
(PID.TID 0000.0001)  cg2d: iter=    64 ; resid.=  8.61451118536090E-06
(PID.TID 0000.0001)  cg2d: iter=    65 ; resid.=  6.80128999205647E-06
(PID.TID 0000.0001)  cg2d: iter=    66 ; resid.=  6.00854209007920E-06
(PID.TID 0000.0001)  cg2d: iter=    67 ; resid.=  5.11521217804066E-06
(PID.TID 0000.0001)  cg2d: iter=    68 ; resid.=  4.17760325706063E-06
(PID.TID 0000.0001)  cg2d: iter=    69 ; resid.=  3.21022396159871E-06
(PID.TID 0000.0001)  cg2d: iter=    70 ; resid.=  2.65993993257368E-06
(PID.TID 0000.0001)  cg2d: iter=    71 ; resid.=  2.09802661449297E-06
(PID.TID 0000.0001)  cg2d: iter=    72 ; resid.=  1.72824791138286E-06
(PID.TID 0000.0001)  cg2d: iter=    73 ; resid.=  1.53228094265057E-06
(PID.TID 0000.0001)  cg2d: iter=    74 ; resid.=  1.21716780715730E-06
(PID.TID 0000.0001)  cg2d: iter=    75 ; resid.=  9.52327999376397E-07
(PID.TID 0000.0001)  cg2d: iter=    76 ; resid.=  8.15907696927392E-07
(PID.TID 0000.0001)  cg2d: iter=    77 ; resid.=  6.13108892970296E-07
(PID.TID 0000.0001)  cg2d: iter=    78 ; resid.=  4.77906973851882E-07
(PID.TID 0000.0001)  cg2d: iter=    79 ; resid.=  4.43959357488448E-07
(PID.TID 0000.0001)  cg2d: iter=    80 ; resid.=  3.81961725076893E-07
(PID.TID 0000.0001)  cg2d: iter=    81 ; resid.=  3.09737231366735E-07
(PID.TID 0000.0001)  cg2d: iter=    82 ; resid.=  2.41910984630077E-07
(PID.TID 0000.0001)  cg2d: iter=    83 ; resid.=  2.08217799862866E-07
(PID.TID 0000.0001)  cg2d: iter=    84 ; resid.=  1.69329310309139E-07
(PID.TID 0000.0001)  cg2d: iter=    85 ; resid.=  1.51844958787157E-07
(PID.TID 0000.0001)  cg2d: iter=    86 ; resid.=  1.16428298008371E-07
(PID.TID 0000.0001)  cg2d: iter=    87 ; resid.=  8.69494735109131E-08
(PID.TID 0000.0001)  cg2d: iter=    88 ; resid.=  7.49250861518591E-08
(PID.TID 0000.0001)  cg2d: iter=    89 ; resid.=  6.22472091637268E-08
(PID.TID 0000.0001)  cg2d: iter=    90 ; resid.=  5.02148604239908E-08
(PID.TID 0000.0001)  cg2d: iter=    91 ; resid.=  4.45167799034867E-08
(PID.TID 0000.0001)  cg2d: iter=    92 ; resid.=  3.66769195705169E-08
(PID.TID 0000.0001)  cg2d: iter=    93 ; resid.=  3.01118979030698E-08
(PID.TID 0000.0001)  cg2d: iter=    94 ; resid.=  2.40384931591132E-08
(PID.TID 0000.0001)  cg2d: iter=    95 ; resid.=  1.77114245944140E-08
(PID.TID 0000.0001)  cg2d: iter=    96 ; resid.=  1.27161603314667E-08
(PID.TID 0000.0001)  cg2d: iter=    97 ; resid.=  9.46403773935072E-09
(PID.TID 0000.0001)  cg2d: iter=    98 ; resid.=  8.11987893200567E-09
(PID.TID 0000.0001)  cg2d: iter=    99 ; resid.=  6.91027758898766E-09
(PID.TID 0000.0001)  cg2d: iter=   100 ; resid.=  5.56552520790724E-09
(PID.TID 0000.0001)  cg2d: iter=   101 ; resid.=  4.19728917566658E-09
(PID.TID 0000.0001)  cg2d: iter=   102 ; resid.=  3.74340106633138E-09
(PID.TID 0000.0001)  cg2d: iter=   103 ; resid.=  3.24388713141959E-09
(PID.TID 0000.0001)  cg2d: iter=   104 ; resid.=  2.90222350815247E-09
(PID.TID 0000.0001)  cg2d: iter=   105 ; resid.=  2.27829227230484E-09
(PID.TID 0000.0001)  cg2d: iter=   106 ; resid.=  1.77283386709645E-09
(PID.TID 0000.0001)  cg2d: iter=   107 ; resid.=  1.34442305025954E-09
(PID.TID 0000.0001)  cg2d: iter=   108 ; resid.=  9.87878621069596E-10
(PID.TID 0000.0001)  cg2d: iter=   109 ; resid.=  7.70679421507934E-10
(PID.TID 0000.0001)  cg2d: iter=   110 ; resid.=  5.61991044253306E-10
(PID.TID 0000.0001)  cg2d: iter=   111 ; resid.=  4.48853066985552E-10
(PID.TID 0000.0001)  cg2d: iter=   112 ; resid.=  3.28656393979974E-10
(PID.TID 0000.0001)  cg2d: iter=   113 ; resid.=  2.52487178539636E-10
(PID.TID 0000.0001)  cg2d: iter=   114 ; resid.=  1.82012925717301E-10
(PID.TID 0000.0001)  cg2d: iter=   115 ; resid.=  1.32026781062222E-10
(PID.TID 0000.0001)  cg2d: iter=   116 ; resid.=  1.00796599845569E-10
(PID.TID 0000.0001)  cg2d: iter=   117 ; resid.=  8.09513081741494E-11
(PID.TID 0000.0001)  cg2d: iter=   118 ; resid.=  6.28324577954708E-11
(PID.TID 0000.0001)  cg2d: iter=   119 ; resid.=  4.79634235220574E-11
(PID.TID 0000.0001)  cg2d: iter=   120 ; resid.=  3.81461697335791E-11
(PID.TID 0000.0001)  cg2d: iter=   121 ; resid.=  3.17236763965624E-11
(PID.TID 0000.0001)  cg2d: iter=   122 ; resid.=  2.44661730032166E-11
(PID.TID 0000.0001)  cg2d: iter=   123 ; resid.=  1.81884303904294E-11
(PID.TID 0000.0001)  cg2d: iter=   124 ; resid.=  1.29749354914129E-11
(PID.TID 0000.0001)  cg2d: iter=   125 ; resid.=  8.87206243406313E-12
(PID.TID 0000.0001)  cg2d: iter=   126 ; resid.=  6.36473049638110E-12
(PID.TID 0000.0001)  cg2d: iter=   127 ; resid.=  4.38931520362544E-12
(PID.TID 0000.0001)  cg2d: iter=   128 ; resid.=  3.27074930427668E-12
(PID.TID 0000.0001)  cg2d: iter=   129 ; resid.=  2.25321343969654E-12
(PID.TID 0000.0001)  cg2d: iter=   130 ; resid.=  1.69083359666499E-12
(PID.TID 0000.0001)  cg2d: iter=   131 ; resid.=  1.42746661119242E-12
(PID.TID 0000.0001)  cg2d: iter=   132 ; resid.=  1.09514460522908E-12
(PID.TID 0000.0001)  cg2d: iter=   133 ; resid.=  7.83322634131147E-13
(PID.TID 0000.0001)  cg2d: iter=   134 ; resid.=  6.31261765271744E-13
(PID.TID 0000.0001)  cg2d: iter=   135 ; resid.=  5.02018911683036E-13
(PID.TID 0000.0001)  cg2d: iter=   136 ; resid.=  3.54115996194498E-13
(PID.TID 0000.0001)  cg2d: iter=   137 ; resid.=  2.73359115558359E-13
(PID.TID 0000.0001)  cg2d: iter=   138 ; resid.=  2.13284709825045E-13
(PID.TID 0000.0001)  cg2d: iter=   139 ; resid.=  1.57602410775356E-13
(PID.TID 0000.0001)  cg2d: iter=   140 ; resid.=  1.06242260275559E-13
(PID.TID 0000.0001)  cg2d: iter=   141 ; resid.=  7.26064593358601E-14
DEBUG_STATS_RL:    cg2d_x (SOLVE_FOR_PRESSURE)  min= -6.07198871790617E+01
DEBUG_STATS_RL:    cg2d_x (SOLVE_FOR_PRESSURE)  max=  1.35969383071933E+01
DEBUG_STATS_RL:    cg2d_x (SOLVE_FOR_PRESSURE) mean= -2.27560111268043E+00
DEBUG_STATS_RL:    cg2d_x (SOLVE_FOR_PRESSURE) S.D.=  1.10564915322387E+01
(PID.TID 0000.0001)      cg2d_init_res =   1.07430936391883E+00
(PID.TID 0000.0001)      cg2d_iters(min,last) =      -1     141
(PID.TID 0000.0001)      cg2d_last_res =   7.26064593358601E-14
(PID.TID 0000.0001) // =======================================================
(PID.TID 0000.0001) // Begin MONITOR dynamic field statistics
(PID.TID 0000.0001) // =======================================================
(PID.TID 0000.0001) %MON time_tsnumber                =                    13
(PID.TID 0000.0001) %MON time_secondsf                =   1.1232000000000E+06
(PID.TID 0000.0001) %MON dynstat_eta_max              =   1.3860283697444E+00
(PID.TID 0000.0001) %MON dynstat_eta_min              =  -6.1895909458778E+00
(PID.TID 0000.0001) %MON dynstat_eta_mean             =  -9.0616655175336E-04
(PID.TID 0000.0001) %MON dynstat_eta_sd               =   8.4589381101642E-01
(PID.TID 0000.0001) %MON dynstat_eta_del2             =   2.0329129122546E-03
(PID.TID 0000.0001) %MON dynstat_uvel_max             =   1.7394627323173E-01
(PID.TID 0000.0001) %MON dynstat_uvel_min             =  -1.0348788145260E-01
(PID.TID 0000.0001) %MON dynstat_uvel_mean            =  -4.5837069485922E-04
(PID.TID 0000.0001) %MON dynstat_uvel_sd              =   2.1225754187362E-02
(PID.TID 0000.0001) %MON dynstat_uvel_del2            =   1.2173244809345E-04
(PID.TID 0000.0001) %MON dynstat_vvel_max             =   1.1877941515800E-01
(PID.TID 0000.0001) %MON dynstat_vvel_min             =  -1.3008091384859E-01
(PID.TID 0000.0001) %MON dynstat_vvel_mean            =  -6.2422984381065E-04
(PID.TID 0000.0001) %MON dynstat_vvel_sd              =   1.2657802325661E-02
(PID.TID 0000.0001) %MON dynstat_vvel_del2            =   1.0789026899268E-04
(PID.TID 0000.0001) %MON dynstat_wvel_max             =   4.2984640451601E-04
(PID.TID 0000.0001) %MON dynstat_wvel_min             =  -3.5180838278002E-04
(PID.TID 0000.0001) %MON dynstat_wvel_mean            =   2.1200597821010E-22
(PID.TID 0000.0001) %MON dynstat_wvel_sd              =   2.7174431928227E-05
(PID.TID 0000.0001) %MON dynstat_wvel_del2            =   3.1171009226049E-07
(PID.TID 0000.0001) %MON dynstat_theta_max            =   2.9885568936704E+01
(PID.TID 0000.0001) %MON dynstat_theta_min            =  -1.9215299534022E+00
(PID.TID 0000.0001) %MON dynstat_theta_mean           =   3.6492170209363E+00
(PID.TID 0000.0001) %MON dynstat_theta_sd             =   4.4146317242837E+00
(PID.TID 0000.0001) %MON dynstat_theta_del2           =   4.9990853278100E-03
(PID.TID 0000.0001) %MON dynstat_salt_max             =   3.7467007613831E+01
(PID.TID 0000.0001) %MON dynstat_salt_min             =   2.9771406948504E+01
(PID.TID 0000.0001) %MON dynstat_salt_mean            =   3.4747965368490E+01
(PID.TID 0000.0001) %MON dynstat_salt_sd              =   2.9617469923148E-01
(PID.TID 0000.0001) %MON dynstat_salt_del2            =   1.0121103340344E-03
(PID.TID 0000.0001) %MON dynstat_sst_max              =   2.9885568936704E+01
(PID.TID 0000.0001) %MON dynstat_sst_min              =  -1.9215299534022E+00
(PID.TID 0000.0001) %MON dynstat_sst_mean             =   1.8660985329591E+01
(PID.TID 0000.0001) %MON dynstat_sst_sd               =   9.0689219337585E+00
(PID.TID 0000.0001) %MON dynstat_sst_del2             =   2.6273733662113E-02
(PID.TID 0000.0001) %MON dynstat_sss_max              =   3.7460111438817E+01
(PID.TID 0000.0001) %MON dynstat_sss_min              =   2.9771406948504E+01
(PID.TID 0000.0001) %MON dynstat_sss_mean             =   3.4884779158047E+01
(PID.TID 0000.0001) %MON dynstat_sss_sd               =   9.6895532070419E-01
(PID.TID 0000.0001) %MON dynstat_sss_del2             =   7.9882520020044E-03
(PID.TID 0000.0001) %MON forcing_qnet_max             =   4.3846905517578E+02
(PID.TID 0000.0001) %MON forcing_qnet_min             =  -1.8174754943848E+02
(PID.TID 0000.0001) %MON forcing_qnet_mean            =  -1.6550061868513E+01
(PID.TID 0000.0001) %MON forcing_qnet_sd              =   1.1042168913970E+02
(PID.TID 0000.0001) %MON forcing_qnet_del2            =   1.0147687802669E+00
(PID.TID 0000.0001) %MON forcing_qsw_max              =   0.0000000000000E+00
(PID.TID 0000.0001) %MON forcing_qsw_min              =   0.0000000000000E+00
(PID.TID 0000.0001) %MON forcing_qsw_mean             =   0.0000000000000E+00
(PID.TID 0000.0001) %MON forcing_qsw_sd               =   0.0000000000000E+00
(PID.TID 0000.0001) %MON forcing_qsw_del2             =   0.0000000000000E+00
(PID.TID 0000.0001) %MON forcing_empmr_max            =   8.1897606207804E-05
(PID.TID 0000.0001) %MON forcing_empmr_min            =  -7.4245208736556E-05
(PID.TID 0000.0001) %MON forcing_empmr_mean           =   8.9362778887410E-07
(PID.TID 0000.0001) %MON forcing_empmr_sd             =   2.8524757575518E-05
(PID.TID 0000.0001) %MON forcing_empmr_del2           =   3.6489898148972E-07
(PID.TID 0000.0001) %MON forcing_fu_max               =   2.7026165127754E-01
(PID.TID 0000.0001) %MON forcing_fu_min               =  -1.6844031065702E-01
(PID.TID 0000.0001) %MON forcing_fu_mean              =   1.6024813615678E-02
(PID.TID 0000.0001) %MON forcing_fu_sd                =   9.0687065718989E-02
(PID.TID 0000.0001) %MON forcing_fu_del2              =   7.0218537639472E-04
(PID.TID 0000.0001) %MON forcing_fv_max               =   2.2748160511255E-01
(PID.TID 0000.0001) %MON forcing_fv_min               =  -1.7989087253809E-01
(PID.TID 0000.0001) %MON forcing_fv_mean              =  -5.4801853200875E-03
(PID.TID 0000.0001) %MON forcing_fv_sd                =   4.7378348929193E-02
(PID.TID 0000.0001) %MON forcing_fv_del2              =   4.8014067006239E-04
(PID.TID 0000.0001) %MON trAdv_CFL_u_max              =   9.5690810499717E-02
(PID.TID 0000.0001) %MON trAdv_CFL_v_max              =   2.4529261371952E-02
(PID.TID 0000.0001) %MON trAdv_CFL_w_max              =   1.1501495091532E-01
(PID.TID 0000.0001) %MON advcfl_uvel_max              =   6.7090365602686E-02
(PID.TID 0000.0001) %MON advcfl_vvel_max              =   2.5272635313743E-02
(PID.TID 0000.0001) %MON advcfl_wvel_max              =   8.9490914096827E-02
(PID.TID 0000.0001) %MON advcfl_W_hf_max              =   9.5227511154316E-02
(PID.TID 0000.0001) %MON pe_b_mean                    =   9.1561604277592E-04
(PID.TID 0000.0001) %MON ke_max                       =   1.4634400355819E-02
(PID.TID 0000.0001) %MON ke_mean                      =   2.7688395017027E-04
(PID.TID 0000.0001) %MON ke_vol                       =   1.3226782436723E+18
(PID.TID 0000.0001) %MON vort_r_min                   =  -7.6997915031345E-07
(PID.TID 0000.0001) %MON vort_r_max                   =   7.3573009838413E-07
(PID.TID 0000.0001) %MON vort_a_mean                  =  -2.5274805770041E-05
(PID.TID 0000.0001) %MON vort_a_sd                    =   7.3604716709004E-05
(PID.TID 0000.0001) %MON vort_p_mean                  =  -3.1845653748974E-05
(PID.TID 0000.0001) %MON vort_p_sd                    =   1.3161975715929E-04
(PID.TID 0000.0001) %MON surfExpan_theta_mean         =   3.9649619996168E-07
(PID.TID 0000.0001) %MON surfExpan_salt_mean          =   3.3381780287162E-07
(PID.TID 0000.0001) // =======================================================
(PID.TID 0000.0001) // End MONITOR dynamic field statistics
(PID.TID 0000.0001) // =======================================================
 EXTERNAL_FIELDS_LOAD,        13 : iP,iLd,i0,i1=   12    1   12    1 ; Wght=  0.0666666667  0.9333333333
 EXTERNAL_FIELDS_LOAD: (fu0,1),fu,fv= -4.5368E-02 -3.5633E-02 -3.6282E-02 -5.8123E-02
 EXTERNAL_FIELDS_LOAD: SST,SSS,Q,E-P=  8.3772E-01  3.4668E+01  2.6568E+02  1.1531E-05
DEBUG_STATS_RL:          Uvel (THERMODYNAMICS)  min= -1.03487881452599E-01
DEBUG_STATS_RL:          Uvel (THERMODYNAMICS)  max=  1.73946273231727E-01
DEBUG_STATS_RL:          Uvel (THERMODYNAMICS) mean=  2.31046689899423E-03
DEBUG_STATS_RL:          Uvel (THERMODYNAMICS) S.D.=  2.70726992387255E-02
DEBUG_STATS_RL:          Vvel (THERMODYNAMICS)  min= -1.30080913848586E-01
DEBUG_STATS_RL:          Vvel (THERMODYNAMICS)  max=  1.18779415157995E-01
DEBUG_STATS_RL:          Vvel (THERMODYNAMICS) mean= -5.57569784232586E-04
DEBUG_STATS_RL:          Vvel (THERMODYNAMICS) S.D.=  1.70439213285714E-02
DEBUG_STATS_RL:          Wvel (THERMODYNAMICS)  min= -3.51808382780017E-04
DEBUG_STATS_RL:          Wvel (THERMODYNAMICS)  max=  4.29846404516010E-04
DEBUG_STATS_RL:          Wvel (THERMODYNAMICS) mean= -1.82386991230530E-07
DEBUG_STATS_RL:          Wvel (THERMODYNAMICS) S.D.=  2.46632810143789E-05
DEBUG_STATS_RL:         Theta (THERMODYNAMICS)  min= -2.00689958497128E+00
DEBUG_STATS_RL:         Theta (THERMODYNAMICS)  max=  2.98722165884757E+01
DEBUG_STATS_RL:         Theta (THERMODYNAMICS) mean=  3.23616524267746E+00
DEBUG_STATS_RL:         Theta (THERMODYNAMICS) S.D.=  5.85329033234466E+00
DEBUG_STATS_RL:          Salt (THERMODYNAMICS)  min=  3.00000000000000E-02
DEBUG_STATS_RL:          Salt (THERMODYNAMICS)  max=  3.74672553454898E+01
DEBUG_STATS_RL:          Salt (THERMODYNAMICS) mean=  1.88751531715304E+01
DEBUG_STATS_RL:          Salt (THERMODYNAMICS) S.D.=  1.73006352043541E+01
DEBUG_STATS_RL:         GtNm1 (THERMODYNAMICS)  min= -6.59440321212571E-06
DEBUG_STATS_RL:         GtNm1 (THERMODYNAMICS)  max=  5.64331075070858E-06
DEBUG_STATS_RL:         GtNm1 (THERMODYNAMICS) mean=  1.62649932262358E-08
DEBUG_STATS_RL:         GtNm1 (THERMODYNAMICS) S.D.=  2.72705717761859E-07
DEBUG_STATS_RL:         GsNm1 (THERMODYNAMICS)  min= -1.60391677683191E-06
DEBUG_STATS_RL:         GsNm1 (THERMODYNAMICS)  max=  1.61354587726073E-06
DEBUG_STATS_RL:         GsNm1 (THERMODYNAMICS) mean=  2.97029643879762E-12
DEBUG_STATS_RL:         GsNm1 (THERMODYNAMICS) S.D.=  2.74040980593428E-08
DEBUG_STATS_RL:                EtaN (DYNAMICS)  min= -6.18959094587781E+00
DEBUG_STATS_RL:                EtaN (DYNAMICS)  max=  1.38602836974443E+00
DEBUG_STATS_RL:                EtaN (DYNAMICS) mean= -2.31967493647342E-01
DEBUG_STATS_RL:                EtaN (DYNAMICS) S.D.=  1.12706335700700E+00
DEBUG_STATS_RL:                Uvel (DYNAMICS)  min= -1.03487881452599E-01
DEBUG_STATS_RL:                Uvel (DYNAMICS)  max=  1.73946273231727E-01
DEBUG_STATS_RL:                Uvel (DYNAMICS) mean=  2.31046689899423E-03
DEBUG_STATS_RL:                Uvel (DYNAMICS) S.D.=  2.70726992387255E-02
DEBUG_STATS_RL:                Vvel (DYNAMICS)  min= -1.30080913848586E-01
DEBUG_STATS_RL:                Vvel (DYNAMICS)  max=  1.18779415157995E-01
DEBUG_STATS_RL:                Vvel (DYNAMICS) mean= -5.57569784232586E-04
DEBUG_STATS_RL:                Vvel (DYNAMICS) S.D.=  1.70439213285714E-02
DEBUG_STATS_RL:                Wvel (DYNAMICS)  min= -3.51808382780017E-04
DEBUG_STATS_RL:                Wvel (DYNAMICS)  max=  4.29846404516010E-04
DEBUG_STATS_RL:                Wvel (DYNAMICS) mean= -1.82386991230530E-07
DEBUG_STATS_RL:                Wvel (DYNAMICS) S.D.=  2.46632810143789E-05
DEBUG_STATS_RL:               Theta (DYNAMICS)  min= -2.00689958497128E+00
DEBUG_STATS_RL:               Theta (DYNAMICS)  max=  2.98722165884757E+01
DEBUG_STATS_RL:               Theta (DYNAMICS) mean=  3.23616524267746E+00
DEBUG_STATS_RL:               Theta (DYNAMICS) S.D.=  5.85329033234466E+00
DEBUG_STATS_RL:                Salt (DYNAMICS)  min=  3.00000000000000E-02
DEBUG_STATS_RL:                Salt (DYNAMICS)  max=  3.74672553454898E+01
DEBUG_STATS_RL:                Salt (DYNAMICS) mean=  1.88751531715304E+01
DEBUG_STATS_RL:                Salt (DYNAMICS) S.D.=  1.73006352043541E+01
DEBUG_STATS_RL:                  Gu (DYNAMICS)  min= -1.07574548183652E-01
DEBUG_STATS_RL:                  Gu (DYNAMICS)  max=  1.70020310774908E-01
DEBUG_STATS_RL:                  Gu (DYNAMICS) mean= -3.69606443504160E-04
DEBUG_STATS_RL:                  Gu (DYNAMICS) S.D.=  2.76256005978638E-02
DEBUG_STATS_RL:                  Gv (DYNAMICS)  min= -1.27792565889908E-01
DEBUG_STATS_RL:                  Gv (DYNAMICS)  max=  1.14488603790544E-01
DEBUG_STATS_RL:                  Gv (DYNAMICS) mean=  2.46587909932555E-04
DEBUG_STATS_RL:                  Gv (DYNAMICS) S.D.=  1.74998814967784E-02
DEBUG_STATS_RL:               GuNm1 (DYNAMICS)  min= -6.33910844860209E-06
DEBUG_STATS_RL:               GuNm1 (DYNAMICS)  max=  8.22918513670032E-06
DEBUG_STATS_RL:               GuNm1 (DYNAMICS) mean= -3.26322816702181E-08
DEBUG_STATS_RL:               GuNm1 (DYNAMICS) S.D.=  1.12230938372848E-06
DEBUG_STATS_RL:               GvNm1 (DYNAMICS)  min= -8.39010285410840E-06
DEBUG_STATS_RL:               GvNm1 (DYNAMICS)  max=  1.67055082530200E-05
DEBUG_STATS_RL:               GvNm1 (DYNAMICS) mean=  7.68633316720040E-07
DEBUG_STATS_RL:               GvNm1 (DYNAMICS) S.D.=  2.59074432277178E-06
DEBUG_STATS_RL:               GtNm1 (DYNAMICS)  min= -6.59440321212571E-06
DEBUG_STATS_RL:               GtNm1 (DYNAMICS)  max=  5.64331075070858E-06
DEBUG_STATS_RL:               GtNm1 (DYNAMICS) mean=  1.62649932262358E-08
DEBUG_STATS_RL:               GtNm1 (DYNAMICS) S.D.=  2.72705717761859E-07
DEBUG_STATS_RL:               GsNm1 (DYNAMICS)  min= -1.60391677683191E-06
DEBUG_STATS_RL:               GsNm1 (DYNAMICS)  max=  1.61354587726073E-06
DEBUG_STATS_RL:               GsNm1 (DYNAMICS) mean=  2.97029643879762E-12
DEBUG_STATS_RL:               GsNm1 (DYNAMICS) S.D.=  2.74040980593428E-08
DEBUG_STATS_RL:    cg2d_b (SOLVE_FOR_PRESSURE)  min= -1.80915295482812E+04
DEBUG_STATS_RL:    cg2d_b (SOLVE_FOR_PRESSURE)  max=  1.57504465945236E+04
DEBUG_STATS_RL:    cg2d_b (SOLVE_FOR_PRESSURE) mean=  9.40773607949478E-01
DEBUG_STATS_RL:    cg2d_b (SOLVE_FOR_PRESSURE) S.D.=  3.56268961078815E+03
 cg2d: Sum(rhs),rhsMax =   1.20381800587444E-01  1.18830009945749E+00
(PID.TID 0000.0001)  cg2d: iter=     1 ; resid.=  8.00000408135234E-01
(PID.TID 0000.0001)  cg2d: iter=     2 ; resid.=  7.10480474930221E-01
(PID.TID 0000.0001)  cg2d: iter=     3 ; resid.=  6.20988157179259E-01
(PID.TID 0000.0001)  cg2d: iter=     4 ; resid.=  6.72836885825784E-01
(PID.TID 0000.0001)  cg2d: iter=     5 ; resid.=  5.49920138448465E-01
(PID.TID 0000.0001)  cg2d: iter=     6 ; resid.=  4.66578090420274E-01
(PID.TID 0000.0001)  cg2d: iter=     7 ; resid.=  4.23348296471014E-01
(PID.TID 0000.0001)  cg2d: iter=     8 ; resid.=  3.23976420532004E-01
(PID.TID 0000.0001)  cg2d: iter=     9 ; resid.=  2.41410793450366E-01
(PID.TID 0000.0001)  cg2d: iter=    10 ; resid.=  2.22838783686515E-01
(PID.TID 0000.0001)  cg2d: iter=    11 ; resid.=  1.91040392174499E-01
(PID.TID 0000.0001)  cg2d: iter=    12 ; resid.=  1.40715792157056E-01
(PID.TID 0000.0001)  cg2d: iter=    13 ; resid.=  1.17411138227341E-01
(PID.TID 0000.0001)  cg2d: iter=    14 ; resid.=  9.83676472824159E-02
(PID.TID 0000.0001)  cg2d: iter=    15 ; resid.=  7.31280486680376E-02
(PID.TID 0000.0001)  cg2d: iter=    16 ; resid.=  6.19327710668879E-02
(PID.TID 0000.0001)  cg2d: iter=    17 ; resid.=  5.62579179779931E-02
(PID.TID 0000.0001)  cg2d: iter=    18 ; resid.=  4.57432860838495E-02
(PID.TID 0000.0001)  cg2d: iter=    19 ; resid.=  3.26598026981908E-02
(PID.TID 0000.0001)  cg2d: iter=    20 ; resid.=  2.81543709833815E-02
(PID.TID 0000.0001)  cg2d: iter=    21 ; resid.=  2.45419022903373E-02
(PID.TID 0000.0001)  cg2d: iter=    22 ; resid.=  2.25460450826317E-02
(PID.TID 0000.0001)  cg2d: iter=    23 ; resid.=  1.93714417739734E-02
(PID.TID 0000.0001)  cg2d: iter=    24 ; resid.=  1.73852641260638E-02
(PID.TID 0000.0001)  cg2d: iter=    25 ; resid.=  1.45428075592887E-02
(PID.TID 0000.0001)  cg2d: iter=    26 ; resid.=  1.28997097733663E-02
(PID.TID 0000.0001)  cg2d: iter=    27 ; resid.=  1.15381179441199E-02
(PID.TID 0000.0001)  cg2d: iter=    28 ; resid.=  9.72388583008478E-03
(PID.TID 0000.0001)  cg2d: iter=    29 ; resid.=  7.66047949823268E-03
(PID.TID 0000.0001)  cg2d: iter=    30 ; resid.=  6.78179691709925E-03
(PID.TID 0000.0001)  cg2d: iter=    31 ; resid.=  5.28419063684513E-03
(PID.TID 0000.0001)  cg2d: iter=    32 ; resid.=  3.89297286542451E-03
(PID.TID 0000.0001)  cg2d: iter=    33 ; resid.=  3.44012588061304E-03
(PID.TID 0000.0001)  cg2d: iter=    34 ; resid.=  2.89124257173394E-03
(PID.TID 0000.0001)  cg2d: iter=    35 ; resid.=  2.34735391299760E-03
(PID.TID 0000.0001)  cg2d: iter=    36 ; resid.=  1.79257761414100E-03
(PID.TID 0000.0001)  cg2d: iter=    37 ; resid.=  1.44899301112331E-03
(PID.TID 0000.0001)  cg2d: iter=    38 ; resid.=  1.18638150602559E-03
(PID.TID 0000.0001)  cg2d: iter=    39 ; resid.=  9.56338513900099E-04
(PID.TID 0000.0001)  cg2d: iter=    40 ; resid.=  8.25823378291059E-04
(PID.TID 0000.0001)  cg2d: iter=    41 ; resid.=  7.16571541988245E-04
(PID.TID 0000.0001)  cg2d: iter=    42 ; resid.=  7.17551038253336E-04
(PID.TID 0000.0001)  cg2d: iter=    43 ; resid.=  6.13719186652269E-04
(PID.TID 0000.0001)  cg2d: iter=    44 ; resid.=  5.27013234301575E-04
(PID.TID 0000.0001)  cg2d: iter=    45 ; resid.=  4.35116932937411E-04
(PID.TID 0000.0001)  cg2d: iter=    46 ; resid.=  3.65757308334836E-04
(PID.TID 0000.0001)  cg2d: iter=    47 ; resid.=  2.89387693000065E-04
(PID.TID 0000.0001)  cg2d: iter=    48 ; resid.=  2.27626792188726E-04
(PID.TID 0000.0001)  cg2d: iter=    49 ; resid.=  1.77064370370293E-04
(PID.TID 0000.0001)  cg2d: iter=    50 ; resid.=  1.45434087438701E-04
(PID.TID 0000.0001)  cg2d: iter=    51 ; resid.=  1.31590104895392E-04
(PID.TID 0000.0001)  cg2d: iter=    52 ; resid.=  1.05521060031466E-04
(PID.TID 0000.0001)  cg2d: iter=    53 ; resid.=  8.22881081637829E-05
(PID.TID 0000.0001)  cg2d: iter=    54 ; resid.=  6.38263680761661E-05
(PID.TID 0000.0001)  cg2d: iter=    55 ; resid.=  5.15543657009543E-05
(PID.TID 0000.0001)  cg2d: iter=    56 ; resid.=  4.67000628356898E-05
(PID.TID 0000.0001)  cg2d: iter=    57 ; resid.=  3.74510005764338E-05
(PID.TID 0000.0001)  cg2d: iter=    58 ; resid.=  2.79864447782993E-05
(PID.TID 0000.0001)  cg2d: iter=    59 ; resid.=  2.12021016013836E-05
(PID.TID 0000.0001)  cg2d: iter=    60 ; resid.=  1.67582351029642E-05
(PID.TID 0000.0001)  cg2d: iter=    61 ; resid.=  1.41030939466141E-05
(PID.TID 0000.0001)  cg2d: iter=    62 ; resid.=  1.04404565415375E-05
(PID.TID 0000.0001)  cg2d: iter=    63 ; resid.=  8.69860730289529E-06
(PID.TID 0000.0001)  cg2d: iter=    64 ; resid.=  8.93956432358651E-06
(PID.TID 0000.0001)  cg2d: iter=    65 ; resid.=  7.61642055745606E-06
(PID.TID 0000.0001)  cg2d: iter=    66 ; resid.=  6.63994073496832E-06
(PID.TID 0000.0001)  cg2d: iter=    67 ; resid.=  5.62913903008845E-06
(PID.TID 0000.0001)  cg2d: iter=    68 ; resid.=  4.56076286763165E-06
(PID.TID 0000.0001)  cg2d: iter=    69 ; resid.=  3.42794342556057E-06
(PID.TID 0000.0001)  cg2d: iter=    70 ; resid.=  2.91457174684133E-06
(PID.TID 0000.0001)  cg2d: iter=    71 ; resid.=  2.29565160849874E-06
(PID.TID 0000.0001)  cg2d: iter=    72 ; resid.=  1.83147011710376E-06
(PID.TID 0000.0001)  cg2d: iter=    73 ; resid.=  1.57669660742746E-06
(PID.TID 0000.0001)  cg2d: iter=    74 ; resid.=  1.23123658962330E-06
(PID.TID 0000.0001)  cg2d: iter=    75 ; resid.=  9.46243777850444E-07
(PID.TID 0000.0001)  cg2d: iter=    76 ; resid.=  8.26725914583552E-07
(PID.TID 0000.0001)  cg2d: iter=    77 ; resid.=  6.89399923720379E-07
(PID.TID 0000.0001)  cg2d: iter=    78 ; resid.=  5.89615326188490E-07
(PID.TID 0000.0001)  cg2d: iter=    79 ; resid.=  5.46177219532670E-07
(PID.TID 0000.0001)  cg2d: iter=    80 ; resid.=  4.55277273182992E-07
(PID.TID 0000.0001)  cg2d: iter=    81 ; resid.=  3.60780298235461E-07
(PID.TID 0000.0001)  cg2d: iter=    82 ; resid.=  2.85748098119602E-07
(PID.TID 0000.0001)  cg2d: iter=    83 ; resid.=  2.48624191107319E-07
(PID.TID 0000.0001)  cg2d: iter=    84 ; resid.=  1.84977046844272E-07
(PID.TID 0000.0001)  cg2d: iter=    85 ; resid.=  1.57591636074839E-07
(PID.TID 0000.0001)  cg2d: iter=    86 ; resid.=  1.16931901562745E-07
(PID.TID 0000.0001)  cg2d: iter=    87 ; resid.=  8.26906211607629E-08
(PID.TID 0000.0001)  cg2d: iter=    88 ; resid.=  6.94468738347248E-08
(PID.TID 0000.0001)  cg2d: iter=    89 ; resid.=  5.81744549618816E-08
(PID.TID 0000.0001)  cg2d: iter=    90 ; resid.=  5.20428988087466E-08
(PID.TID 0000.0001)  cg2d: iter=    91 ; resid.=  4.59760762549716E-08
(PID.TID 0000.0001)  cg2d: iter=    92 ; resid.=  3.60443437886625E-08
(PID.TID 0000.0001)  cg2d: iter=    93 ; resid.=  2.72783232564516E-08
(PID.TID 0000.0001)  cg2d: iter=    94 ; resid.=  2.10081033195656E-08
(PID.TID 0000.0001)  cg2d: iter=    95 ; resid.=  1.59039702703050E-08
(PID.TID 0000.0001)  cg2d: iter=    96 ; resid.=  1.12500933628545E-08
(PID.TID 0000.0001)  cg2d: iter=    97 ; resid.=  8.32883174714622E-09
(PID.TID 0000.0001)  cg2d: iter=    98 ; resid.=  7.04255085255660E-09
(PID.TID 0000.0001)  cg2d: iter=    99 ; resid.=  6.17820683743412E-09
(PID.TID 0000.0001)  cg2d: iter=   100 ; resid.=  5.11591276495942E-09
(PID.TID 0000.0001)  cg2d: iter=   101 ; resid.=  3.56221178156949E-09
(PID.TID 0000.0001)  cg2d: iter=   102 ; resid.=  2.83880753980855E-09
(PID.TID 0000.0001)  cg2d: iter=   103 ; resid.=  2.34437303958230E-09
(PID.TID 0000.0001)  cg2d: iter=   104 ; resid.=  2.06430909034725E-09
(PID.TID 0000.0001)  cg2d: iter=   105 ; resid.=  1.71955111952052E-09
(PID.TID 0000.0001)  cg2d: iter=   106 ; resid.=  1.37902117217422E-09
(PID.TID 0000.0001)  cg2d: iter=   107 ; resid.=  1.09284172058069E-09
(PID.TID 0000.0001)  cg2d: iter=   108 ; resid.=  8.44057558083125E-10
(PID.TID 0000.0001)  cg2d: iter=   109 ; resid.=  6.71628244658023E-10
(PID.TID 0000.0001)  cg2d: iter=   110 ; resid.=  4.80889028041729E-10
(PID.TID 0000.0001)  cg2d: iter=   111 ; resid.=  3.50567287143002E-10
(PID.TID 0000.0001)  cg2d: iter=   112 ; resid.=  2.41755863206113E-10
(PID.TID 0000.0001)  cg2d: iter=   113 ; resid.=  1.78897609829898E-10
(PID.TID 0000.0001)  cg2d: iter=   114 ; resid.=  1.24472336109367E-10
(PID.TID 0000.0001)  cg2d: iter=   115 ; resid.=  9.06043934759963E-11
(PID.TID 0000.0001)  cg2d: iter=   116 ; resid.=  6.72519242218124E-11
(PID.TID 0000.0001)  cg2d: iter=   117 ; resid.=  5.29664489723013E-11
(PID.TID 0000.0001)  cg2d: iter=   118 ; resid.=  4.25057462650383E-11
(PID.TID 0000.0001)  cg2d: iter=   119 ; resid.=  3.25627435024100E-11
(PID.TID 0000.0001)  cg2d: iter=   120 ; resid.=  2.49157108298746E-11
(PID.TID 0000.0001)  cg2d: iter=   121 ; resid.=  1.98776492692812E-11
(PID.TID 0000.0001)  cg2d: iter=   122 ; resid.=  1.57052154748902E-11
(PID.TID 0000.0001)  cg2d: iter=   123 ; resid.=  1.25063295044156E-11
(PID.TID 0000.0001)  cg2d: iter=   124 ; resid.=  9.49020830063291E-12
(PID.TID 0000.0001)  cg2d: iter=   125 ; resid.=  7.06774680491071E-12
(PID.TID 0000.0001)  cg2d: iter=   126 ; resid.=  5.22512842511456E-12
(PID.TID 0000.0001)  cg2d: iter=   127 ; resid.=  3.53805670673551E-12
(PID.TID 0000.0001)  cg2d: iter=   128 ; resid.=  2.63345438125443E-12
(PID.TID 0000.0001)  cg2d: iter=   129 ; resid.=  1.68367679249436E-12
(PID.TID 0000.0001)  cg2d: iter=   130 ; resid.=  1.16234577446828E-12
(PID.TID 0000.0001)  cg2d: iter=   131 ; resid.=  9.07699447898903E-13
(PID.TID 0000.0001)  cg2d: iter=   132 ; resid.=  6.83061438296862E-13
(PID.TID 0000.0001)  cg2d: iter=   133 ; resid.=  4.85733682631518E-13
(PID.TID 0000.0001)  cg2d: iter=   134 ; resid.=  3.40582120563346E-13
(PID.TID 0000.0001)  cg2d: iter=   135 ; resid.=  2.43130608899954E-13
(PID.TID 0000.0001)  cg2d: iter=   136 ; resid.=  1.58940914311544E-13
(PID.TID 0000.0001)  cg2d: iter=   137 ; resid.=  1.18167221435999E-13
(PID.TID 0000.0001)  cg2d: iter=   138 ; resid.=  9.46148353412199E-14
DEBUG_STATS_RL:    cg2d_x (SOLVE_FOR_PRESSURE)  min= -6.42749019820027E+01
DEBUG_STATS_RL:    cg2d_x (SOLVE_FOR_PRESSURE)  max=  1.32101664016337E+01
DEBUG_STATS_RL:    cg2d_x (SOLVE_FOR_PRESSURE) mean= -2.15635202740091E+00
DEBUG_STATS_RL:    cg2d_x (SOLVE_FOR_PRESSURE) S.D.=  1.05525203061205E+01
(PID.TID 0000.0001)      cg2d_init_res =   9.91331476522069E-01
(PID.TID 0000.0001)      cg2d_iters(min,last) =      -1     138
(PID.TID 0000.0001)      cg2d_last_res =   9.46148353412199E-14
(PID.TID 0000.0001) // =======================================================
(PID.TID 0000.0001) // Begin MONITOR dynamic field statistics
(PID.TID 0000.0001) // =======================================================
(PID.TID 0000.0001) %MON time_tsnumber                =                    14
(PID.TID 0000.0001) %MON time_secondsf                =   1.2096000000000E+06
(PID.TID 0000.0001) %MON dynstat_eta_max              =   1.3466020796773E+00
(PID.TID 0000.0001) %MON dynstat_eta_min              =  -6.5519777759433E+00
(PID.TID 0000.0001) %MON dynstat_eta_mean             =  -9.8158060781909E-04
(PID.TID 0000.0001) %MON dynstat_eta_sd               =   8.0799817910392E-01
(PID.TID 0000.0001) %MON dynstat_eta_del2             =   2.0034344901974E-03
(PID.TID 0000.0001) %MON dynstat_uvel_max             =   1.7212534590891E-01
(PID.TID 0000.0001) %MON dynstat_uvel_min             =  -1.1401312721675E-01
(PID.TID 0000.0001) %MON dynstat_uvel_mean            =  -1.8878305216623E-03
(PID.TID 0000.0001) %MON dynstat_uvel_sd              =   2.2162406167334E-02
(PID.TID 0000.0001) %MON dynstat_uvel_del2            =   1.2366611587572E-04
(PID.TID 0000.0001) %MON dynstat_vvel_max             =   1.2269605698640E-01
(PID.TID 0000.0001) %MON dynstat_vvel_min             =  -1.3363159529062E-01
(PID.TID 0000.0001) %MON dynstat_vvel_mean            =  -6.4810517933665E-04
(PID.TID 0000.0001) %MON dynstat_vvel_sd              =   1.2493740992684E-02
(PID.TID 0000.0001) %MON dynstat_vvel_del2            =   1.0734192940247E-04
(PID.TID 0000.0001) %MON dynstat_wvel_max             =   4.4165407193168E-04
(PID.TID 0000.0001) %MON dynstat_wvel_min             =  -3.8708980239029E-04
(PID.TID 0000.0001) %MON dynstat_wvel_mean            =  -1.9113337838632E-22
(PID.TID 0000.0001) %MON dynstat_wvel_sd              =   2.7677971877091E-05
(PID.TID 0000.0001) %MON dynstat_wvel_del2            =   3.1609840337614E-07
(PID.TID 0000.0001) %MON dynstat_theta_max            =   2.9872216588476E+01
(PID.TID 0000.0001) %MON dynstat_theta_min            =  -2.0068995849713E+00
(PID.TID 0000.0001) %MON dynstat_theta_mean           =   3.6493470338256E+00
(PID.TID 0000.0001) %MON dynstat_theta_sd             =   4.4148323804497E+00
(PID.TID 0000.0001) %MON dynstat_theta_del2           =   4.9697135993623E-03
(PID.TID 0000.0001) %MON dynstat_salt_max             =   3.7467255345490E+01
(PID.TID 0000.0001) %MON dynstat_salt_min             =   2.9756562953534E+01
(PID.TID 0000.0001) %MON dynstat_salt_mean            =   3.4747960418116E+01
(PID.TID 0000.0001) %MON dynstat_salt_sd              =   2.9620264878427E-01
(PID.TID 0000.0001) %MON dynstat_salt_del2            =   1.0127018974585E-03
(PID.TID 0000.0001) %MON dynstat_sst_max              =   2.9872216588476E+01
(PID.TID 0000.0001) %MON dynstat_sst_min              =  -2.0068995849713E+00
(PID.TID 0000.0001) %MON dynstat_sst_mean             =   1.8670765313346E+01
(PID.TID 0000.0001) %MON dynstat_sst_sd               =   9.0655155898210E+00
(PID.TID 0000.0001) %MON dynstat_sst_del2             =   2.6285723412785E-02
(PID.TID 0000.0001) %MON dynstat_sss_max              =   3.7459776662350E+01
(PID.TID 0000.0001) %MON dynstat_sss_min              =   2.9756562953534E+01
(PID.TID 0000.0001) %MON dynstat_sss_mean             =   3.4884819496943E+01
(PID.TID 0000.0001) %MON dynstat_sss_sd               =   9.6963966842707E-01
(PID.TID 0000.0001) %MON dynstat_sss_del2             =   7.9909054069390E-03
(PID.TID 0000.0001) %MON forcing_qnet_max             =   4.3951724243164E+02
(PID.TID 0000.0001) %MON forcing_qnet_min             =  -1.8160680541992E+02
(PID.TID 0000.0001) %MON forcing_qnet_mean            =  -1.6537549912690E+01
(PID.TID 0000.0001) %MON forcing_qnet_sd              =   1.1023602940575E+02
(PID.TID 0000.0001) %MON forcing_qnet_del2            =   1.0178724043875E+00
(PID.TID 0000.0001) %MON forcing_qsw_max              =   0.0000000000000E+00
(PID.TID 0000.0001) %MON forcing_qsw_min              =   0.0000000000000E+00
(PID.TID 0000.0001) %MON forcing_qsw_mean             =   0.0000000000000E+00
(PID.TID 0000.0001) %MON forcing_qsw_sd               =   0.0000000000000E+00
(PID.TID 0000.0001) %MON forcing_qsw_del2             =   0.0000000000000E+00
(PID.TID 0000.0001) %MON forcing_empmr_max            =   8.1966015841317E-05
(PID.TID 0000.0001) %MON forcing_empmr_min            =  -7.4627556045925E-05
(PID.TID 0000.0001) %MON forcing_empmr_mean           =   9.0339754661961E-07
(PID.TID 0000.0001) %MON forcing_empmr_sd             =   2.8612540665613E-05
(PID.TID 0000.0001) %MON forcing_empmr_del2           =   3.6568031492728E-07
(PID.TID 0000.0001) %MON forcing_fu_max               =   2.7213588953018E-01
(PID.TID 0000.0001) %MON forcing_fu_min               =  -1.6925373077393E-01
(PID.TID 0000.0001) %MON forcing_fu_mean              =   1.6017120794640E-02
(PID.TID 0000.0001) %MON forcing_fu_sd                =   9.0801548316031E-02
(PID.TID 0000.0001) %MON forcing_fu_del2              =   7.0931845625836E-04
(PID.TID 0000.0001) %MON forcing_fv_max               =   2.2936151027679E-01
(PID.TID 0000.0001) %MON forcing_fv_min               =  -1.7930621504784E-01
(PID.TID 0000.0001) %MON forcing_fv_mean              =  -5.4064227932267E-03
(PID.TID 0000.0001) %MON forcing_fv_sd                =   4.7655349358660E-02
(PID.TID 0000.0001) %MON forcing_fv_del2              =   4.8616958739333E-04
(PID.TID 0000.0001) %MON trAdv_CFL_u_max              =   6.7103992135778E-02
(PID.TID 0000.0001) %MON trAdv_CFL_v_max              =   2.5482322358274E-02
(PID.TID 0000.0001) %MON trAdv_CFL_w_max              =   8.9400718447628E-02
(PID.TID 0000.0001) %MON advcfl_uvel_max              =   5.6184742414027E-02
(PID.TID 0000.0001) %MON advcfl_vvel_max              =   2.5962475771845E-02
(PID.TID 0000.0001) %MON advcfl_wvel_max              =   9.1949185096138E-02
(PID.TID 0000.0001) %MON advcfl_W_hf_max              =   9.8366349783884E-02
(PID.TID 0000.0001) %MON pe_b_mean                    =   8.3541564709479E-04
(PID.TID 0000.0001) %MON ke_max                       =   1.4468201261332E-02
(PID.TID 0000.0001) %MON ke_mean                      =   2.9503193831055E-04
(PID.TID 0000.0001) %MON ke_vol                       =   1.3226782436723E+18
(PID.TID 0000.0001) %MON vort_r_min                   =  -5.9403419376088E-07
(PID.TID 0000.0001) %MON vort_r_max                   =   7.4581634957655E-07
(PID.TID 0000.0001) %MON vort_a_mean                  =  -2.5274806525403E-05
(PID.TID 0000.0001) %MON vort_a_sd                    =   7.3604433092562E-05
(PID.TID 0000.0001) %MON vort_p_mean                  =  -3.1845654700712E-05
(PID.TID 0000.0001) %MON vort_p_sd                    =   1.3161940586180E-04
(PID.TID 0000.0001) %MON surfExpan_theta_mean         =  -1.4673393829482E-06
(PID.TID 0000.0001) %MON surfExpan_salt_mean          =   2.5374043961153E-07
(PID.TID 0000.0001) // =======================================================
(PID.TID 0000.0001) // End MONITOR dynamic field statistics
(PID.TID 0000.0001) // =======================================================
 EXTERNAL_FIELDS_LOAD,        14 : iP,iLd,i0,i1=   12    1   12    1 ; Wght=  0.0333333333  0.9666666667
 EXTERNAL_FIELDS_LOAD: (fu0,1),fu,fv= -4.5368E-02 -3.5633E-02 -3.5957E-02 -5.7690E-02
 EXTERNAL_FIELDS_LOAD: SST,SSS,Q,E-P=  8.9807E-01  3.4691E+01  2.6573E+02  1.1584E-05
DEBUG_STATS_RL:          Uvel (THERMODYNAMICS)  min= -1.14013127216749E-01
DEBUG_STATS_RL:          Uvel (THERMODYNAMICS)  max=  1.72125345908906E-01
DEBUG_STATS_RL:          Uvel (THERMODYNAMICS) mean=  8.86400949834408E-04
DEBUG_STATS_RL:          Uvel (THERMODYNAMICS) S.D.=  2.76443827479562E-02
DEBUG_STATS_RL:          Vvel (THERMODYNAMICS)  min= -1.33631595290615E-01
DEBUG_STATS_RL:          Vvel (THERMODYNAMICS)  max=  1.22696056986398E-01
DEBUG_STATS_RL:          Vvel (THERMODYNAMICS) mean= -1.61170025592906E-04
DEBUG_STATS_RL:          Vvel (THERMODYNAMICS) S.D.=  1.70096018232792E-02
DEBUG_STATS_RL:          Wvel (THERMODYNAMICS)  min= -3.87089802390286E-04
DEBUG_STATS_RL:          Wvel (THERMODYNAMICS)  max=  4.41654071931682E-04
DEBUG_STATS_RL:          Wvel (THERMODYNAMICS) mean= -4.89902440355197E-09
DEBUG_STATS_RL:          Wvel (THERMODYNAMICS) S.D.=  2.51292822399691E-05
DEBUG_STATS_RL:         Theta (THERMODYNAMICS)  min= -2.02539394643813E+00
DEBUG_STATS_RL:         Theta (THERMODYNAMICS)  max=  2.98603708455946E+01
DEBUG_STATS_RL:         Theta (THERMODYNAMICS) mean=  3.23678628526806E+00
DEBUG_STATS_RL:         Theta (THERMODYNAMICS) S.D.=  5.85406915949031E+00
DEBUG_STATS_RL:          Salt (THERMODYNAMICS)  min=  3.00000000000000E-02
DEBUG_STATS_RL:          Salt (THERMODYNAMICS)  max=  3.74676742253745E+01
DEBUG_STATS_RL:          Salt (THERMODYNAMICS) mean=  1.88751594772247E+01
DEBUG_STATS_RL:          Salt (THERMODYNAMICS) S.D.=  1.73006428713992E+01
DEBUG_STATS_RL:         GtNm1 (THERMODYNAMICS)  min= -6.05888785483240E-06
DEBUG_STATS_RL:         GtNm1 (THERMODYNAMICS)  max=  5.31931555730367E-06
DEBUG_STATS_RL:         GtNm1 (THERMODYNAMICS) mean=  1.50627820251780E-08
DEBUG_STATS_RL:         GtNm1 (THERMODYNAMICS) S.D.=  2.66435813221997E-07
DEBUG_STATS_RL:         GsNm1 (THERMODYNAMICS)  min= -1.44654384140828E-06
DEBUG_STATS_RL:         GsNm1 (THERMODYNAMICS)  max=  1.52007335207350E-06
DEBUG_STATS_RL:         GsNm1 (THERMODYNAMICS) mean=  8.42397761037804E-11
DEBUG_STATS_RL:         GsNm1 (THERMODYNAMICS) S.D.=  2.66856338207862E-08
DEBUG_STATS_RL:                EtaN (DYNAMICS)  min= -6.55197777594329E+00
DEBUG_STATS_RL:                EtaN (DYNAMICS)  max=  1.34660207967726E+00
DEBUG_STATS_RL:                EtaN (DYNAMICS) mean= -2.19811623588269E-01
DEBUG_STATS_RL:                EtaN (DYNAMICS) S.D.=  1.07569014333542E+00
DEBUG_STATS_RL:                Uvel (DYNAMICS)  min= -1.14013127216749E-01
DEBUG_STATS_RL:                Uvel (DYNAMICS)  max=  1.72125345908906E-01
DEBUG_STATS_RL:                Uvel (DYNAMICS) mean=  8.86400949834408E-04
DEBUG_STATS_RL:                Uvel (DYNAMICS) S.D.=  2.76443827479562E-02
DEBUG_STATS_RL:                Vvel (DYNAMICS)  min= -1.33631595290615E-01
DEBUG_STATS_RL:                Vvel (DYNAMICS)  max=  1.22696056986398E-01
DEBUG_STATS_RL:                Vvel (DYNAMICS) mean= -1.61170025592906E-04
DEBUG_STATS_RL:                Vvel (DYNAMICS) S.D.=  1.70096018232792E-02
DEBUG_STATS_RL:                Wvel (DYNAMICS)  min= -3.87089802390286E-04
DEBUG_STATS_RL:                Wvel (DYNAMICS)  max=  4.41654071931682E-04
DEBUG_STATS_RL:                Wvel (DYNAMICS) mean= -4.89902440355197E-09
DEBUG_STATS_RL:                Wvel (DYNAMICS) S.D.=  2.51292822399691E-05
DEBUG_STATS_RL:               Theta (DYNAMICS)  min= -2.02539394643813E+00
DEBUG_STATS_RL:               Theta (DYNAMICS)  max=  2.98603708455946E+01
DEBUG_STATS_RL:               Theta (DYNAMICS) mean=  3.23678628526806E+00
DEBUG_STATS_RL:               Theta (DYNAMICS) S.D.=  5.85406915949031E+00
DEBUG_STATS_RL:                Salt (DYNAMICS)  min=  3.00000000000000E-02
DEBUG_STATS_RL:                Salt (DYNAMICS)  max=  3.74676742253745E+01
DEBUG_STATS_RL:                Salt (DYNAMICS) mean=  1.88751594772247E+01
DEBUG_STATS_RL:                Salt (DYNAMICS) S.D.=  1.73006428713992E+01
DEBUG_STATS_RL:                  Gu (DYNAMICS)  min= -1.11127560973020E-01
DEBUG_STATS_RL:                  Gu (DYNAMICS)  max=  1.67171438134269E-01
DEBUG_STATS_RL:                  Gu (DYNAMICS) mean= -1.44400805858373E-03
DEBUG_STATS_RL:                  Gu (DYNAMICS) S.D.=  2.80188261523171E-02
DEBUG_STATS_RL:                  Gv (DYNAMICS)  min= -1.30980840269239E-01
DEBUG_STATS_RL:                  Gv (DYNAMICS)  max=  1.18140028570418E-01
DEBUG_STATS_RL:                  Gv (DYNAMICS) mean=  7.23355841349131E-04
DEBUG_STATS_RL:                  Gv (DYNAMICS) S.D.=  1.78381262278565E-02
DEBUG_STATS_RL:               GuNm1 (DYNAMICS)  min= -6.34898478288992E-06
DEBUG_STATS_RL:               GuNm1 (DYNAMICS)  max=  8.28568115091058E-06
DEBUG_STATS_RL:               GuNm1 (DYNAMICS) mean= -2.94347830492570E-08
DEBUG_STATS_RL:               GuNm1 (DYNAMICS) S.D.=  1.11946627838863E-06
DEBUG_STATS_RL:               GvNm1 (DYNAMICS)  min= -8.25118322369813E-06
DEBUG_STATS_RL:               GvNm1 (DYNAMICS)  max=  1.67733493008276E-05
DEBUG_STATS_RL:               GvNm1 (DYNAMICS) mean=  7.68209687609835E-07
DEBUG_STATS_RL:               GvNm1 (DYNAMICS) S.D.=  2.58479372178994E-06
DEBUG_STATS_RL:               GtNm1 (DYNAMICS)  min= -6.05888785483240E-06
DEBUG_STATS_RL:               GtNm1 (DYNAMICS)  max=  5.31931555730367E-06
DEBUG_STATS_RL:               GtNm1 (DYNAMICS) mean=  1.50627820251780E-08
DEBUG_STATS_RL:               GtNm1 (DYNAMICS) S.D.=  2.66435813221997E-07
DEBUG_STATS_RL:               GsNm1 (DYNAMICS)  min= -1.44654384140828E-06
DEBUG_STATS_RL:               GsNm1 (DYNAMICS)  max=  1.52007335207350E-06
DEBUG_STATS_RL:               GsNm1 (DYNAMICS) mean=  8.42397761037804E-11
DEBUG_STATS_RL:               GsNm1 (DYNAMICS) S.D.=  2.66856338207862E-08
DEBUG_STATS_RL:    cg2d_b (SOLVE_FOR_PRESSURE)  min= -1.80670203209115E+04
DEBUG_STATS_RL:    cg2d_b (SOLVE_FOR_PRESSURE)  max=  1.53078784375156E+04
DEBUG_STATS_RL:    cg2d_b (SOLVE_FOR_PRESSURE) mean=  1.01383415194528E+00
DEBUG_STATS_RL:    cg2d_b (SOLVE_FOR_PRESSURE) S.D.=  3.55167671478607E+03
 cg2d: Sum(rhs),rhsMax =   1.29906648692796E-01  1.18669026778221E+00
(PID.TID 0000.0001)  cg2d: iter=     1 ; resid.=  8.47686215845540E-01
(PID.TID 0000.0001)  cg2d: iter=     2 ; resid.=  7.62051881155736E-01
(PID.TID 0000.0001)  cg2d: iter=     3 ; resid.=  6.73278010276698E-01
(PID.TID 0000.0001)  cg2d: iter=     4 ; resid.=  6.49718918777249E-01
(PID.TID 0000.0001)  cg2d: iter=     5 ; resid.=  5.29352391026587E-01
(PID.TID 0000.0001)  cg2d: iter=     6 ; resid.=  4.41524171330435E-01
(PID.TID 0000.0001)  cg2d: iter=     7 ; resid.=  3.83643048544093E-01
(PID.TID 0000.0001)  cg2d: iter=     8 ; resid.=  3.34338738861874E-01
(PID.TID 0000.0001)  cg2d: iter=     9 ; resid.=  2.84008902438273E-01
(PID.TID 0000.0001)  cg2d: iter=    10 ; resid.=  2.57860707103234E-01
(PID.TID 0000.0001)  cg2d: iter=    11 ; resid.=  1.86835414178034E-01
(PID.TID 0000.0001)  cg2d: iter=    12 ; resid.=  1.25152753164050E-01
(PID.TID 0000.0001)  cg2d: iter=    13 ; resid.=  1.02931928540125E-01
(PID.TID 0000.0001)  cg2d: iter=    14 ; resid.=  8.75807532583925E-02
(PID.TID 0000.0001)  cg2d: iter=    15 ; resid.=  6.29516984412717E-02
(PID.TID 0000.0001)  cg2d: iter=    16 ; resid.=  5.34345890802113E-02
(PID.TID 0000.0001)  cg2d: iter=    17 ; resid.=  4.75034000422203E-02
(PID.TID 0000.0001)  cg2d: iter=    18 ; resid.=  3.86577080687720E-02
(PID.TID 0000.0001)  cg2d: iter=    19 ; resid.=  2.62162582952543E-02
(PID.TID 0000.0001)  cg2d: iter=    20 ; resid.=  2.18989766228142E-02
(PID.TID 0000.0001)  cg2d: iter=    21 ; resid.=  1.92935836430502E-02
(PID.TID 0000.0001)  cg2d: iter=    22 ; resid.=  1.84328327141207E-02
(PID.TID 0000.0001)  cg2d: iter=    23 ; resid.=  1.62345811448455E-02
(PID.TID 0000.0001)  cg2d: iter=    24 ; resid.=  1.45009803416665E-02
(PID.TID 0000.0001)  cg2d: iter=    25 ; resid.=  1.15380109739237E-02
(PID.TID 0000.0001)  cg2d: iter=    26 ; resid.=  9.93428103523332E-03
(PID.TID 0000.0001)  cg2d: iter=    27 ; resid.=  8.50995039854462E-03
(PID.TID 0000.0001)  cg2d: iter=    28 ; resid.=  6.99284514785093E-03
(PID.TID 0000.0001)  cg2d: iter=    29 ; resid.=  5.38094061593957E-03
(PID.TID 0000.0001)  cg2d: iter=    30 ; resid.=  4.62601500301646E-03
(PID.TID 0000.0001)  cg2d: iter=    31 ; resid.=  3.74423646828861E-03
(PID.TID 0000.0001)  cg2d: iter=    32 ; resid.=  2.83367024927859E-03
(PID.TID 0000.0001)  cg2d: iter=    33 ; resid.=  2.62398792282492E-03
(PID.TID 0000.0001)  cg2d: iter=    34 ; resid.=  2.13488116175126E-03
(PID.TID 0000.0001)  cg2d: iter=    35 ; resid.=  1.75895473999156E-03
(PID.TID 0000.0001)  cg2d: iter=    36 ; resid.=  1.36405371706127E-03
(PID.TID 0000.0001)  cg2d: iter=    37 ; resid.=  1.13661185813999E-03
(PID.TID 0000.0001)  cg2d: iter=    38 ; resid.=  9.54221159035190E-04
(PID.TID 0000.0001)  cg2d: iter=    39 ; resid.=  8.36542996924250E-04
(PID.TID 0000.0001)  cg2d: iter=    40 ; resid.=  7.03439770459672E-04
(PID.TID 0000.0001)  cg2d: iter=    41 ; resid.=  6.15656891666483E-04
(PID.TID 0000.0001)  cg2d: iter=    42 ; resid.=  6.11270442143850E-04
(PID.TID 0000.0001)  cg2d: iter=    43 ; resid.=  5.28080996874478E-04
(PID.TID 0000.0001)  cg2d: iter=    44 ; resid.=  4.55665242638442E-04
(PID.TID 0000.0001)  cg2d: iter=    45 ; resid.=  3.67863885982560E-04
(PID.TID 0000.0001)  cg2d: iter=    46 ; resid.=  3.25499446749802E-04
(PID.TID 0000.0001)  cg2d: iter=    47 ; resid.=  2.76060006134164E-04
(PID.TID 0000.0001)  cg2d: iter=    48 ; resid.=  2.21850041149426E-04
(PID.TID 0000.0001)  cg2d: iter=    49 ; resid.=  1.56863808116741E-04
(PID.TID 0000.0001)  cg2d: iter=    50 ; resid.=  1.11760186045781E-04
(PID.TID 0000.0001)  cg2d: iter=    51 ; resid.=  8.50902991378524E-05
(PID.TID 0000.0001)  cg2d: iter=    52 ; resid.=  6.61417918786026E-05
(PID.TID 0000.0001)  cg2d: iter=    53 ; resid.=  5.41849590403204E-05
(PID.TID 0000.0001)  cg2d: iter=    54 ; resid.=  4.32060914154616E-05
(PID.TID 0000.0001)  cg2d: iter=    55 ; resid.=  3.22807994198107E-05
(PID.TID 0000.0001)  cg2d: iter=    56 ; resid.=  2.93247140878384E-05
(PID.TID 0000.0001)  cg2d: iter=    57 ; resid.=  2.42183428101262E-05
(PID.TID 0000.0001)  cg2d: iter=    58 ; resid.=  1.94444510253616E-05
(PID.TID 0000.0001)  cg2d: iter=    59 ; resid.=  1.54153573093980E-05
(PID.TID 0000.0001)  cg2d: iter=    60 ; resid.=  1.18889768995759E-05
(PID.TID 0000.0001)  cg2d: iter=    61 ; resid.=  9.49075338154902E-06
(PID.TID 0000.0001)  cg2d: iter=    62 ; resid.=  7.30672400153097E-06
(PID.TID 0000.0001)  cg2d: iter=    63 ; resid.=  6.22453964387749E-06
(PID.TID 0000.0001)  cg2d: iter=    64 ; resid.=  5.97904239702184E-06
(PID.TID 0000.0001)  cg2d: iter=    65 ; resid.=  4.50000119989673E-06
(PID.TID 0000.0001)  cg2d: iter=    66 ; resid.=  3.35941816530029E-06
(PID.TID 0000.0001)  cg2d: iter=    67 ; resid.=  2.78126603919093E-06
(PID.TID 0000.0001)  cg2d: iter=    68 ; resid.=  2.40674487681451E-06
(PID.TID 0000.0001)  cg2d: iter=    69 ; resid.=  1.91224444346931E-06
(PID.TID 0000.0001)  cg2d: iter=    70 ; resid.=  1.68258211440972E-06
(PID.TID 0000.0001)  cg2d: iter=    71 ; resid.=  1.32510397113516E-06
(PID.TID 0000.0001)  cg2d: iter=    72 ; resid.=  1.03441048804225E-06
(PID.TID 0000.0001)  cg2d: iter=    73 ; resid.=  8.06833514234469E-07
(PID.TID 0000.0001)  cg2d: iter=    74 ; resid.=  5.89204842663603E-07
(PID.TID 0000.0001)  cg2d: iter=    75 ; resid.=  4.03260730261894E-07
(PID.TID 0000.0001)  cg2d: iter=    76 ; resid.=  3.16543067727575E-07
(PID.TID 0000.0001)  cg2d: iter=    77 ; resid.=  2.51607319075864E-07
(PID.TID 0000.0001)  cg2d: iter=    78 ; resid.=  2.08034168823953E-07
(PID.TID 0000.0001)  cg2d: iter=    79 ; resid.=  1.70038050635834E-07
(PID.TID 0000.0001)  cg2d: iter=    80 ; resid.=  1.33221346189595E-07
(PID.TID 0000.0001)  cg2d: iter=    81 ; resid.=  1.07409773157068E-07
(PID.TID 0000.0001)  cg2d: iter=    82 ; resid.=  9.10115674370900E-08
(PID.TID 0000.0001)  cg2d: iter=    83 ; resid.=  9.31352949910646E-08
(PID.TID 0000.0001)  cg2d: iter=    84 ; resid.=  7.44546218292076E-08
(PID.TID 0000.0001)  cg2d: iter=    85 ; resid.=  6.66424158167082E-08
(PID.TID 0000.0001)  cg2d: iter=    86 ; resid.=  5.31940896030598E-08
(PID.TID 0000.0001)  cg2d: iter=    87 ; resid.=  3.78374705947965E-08
(PID.TID 0000.0001)  cg2d: iter=    88 ; resid.=  2.98013177540853E-08
(PID.TID 0000.0001)  cg2d: iter=    89 ; resid.=  2.31787607498885E-08
(PID.TID 0000.0001)  cg2d: iter=    90 ; resid.=  2.01567933904979E-08
(PID.TID 0000.0001)  cg2d: iter=    91 ; resid.=  1.64604306694677E-08
(PID.TID 0000.0001)  cg2d: iter=    92 ; resid.=  1.39036539030930E-08
(PID.TID 0000.0001)  cg2d: iter=    93 ; resid.=  1.23309433943459E-08
(PID.TID 0000.0001)  cg2d: iter=    94 ; resid.=  1.11089554977583E-08
(PID.TID 0000.0001)  cg2d: iter=    95 ; resid.=  1.04499133961035E-08
(PID.TID 0000.0001)  cg2d: iter=    96 ; resid.=  8.48741449771817E-09
(PID.TID 0000.0001)  cg2d: iter=    97 ; resid.=  6.84718656436614E-09
(PID.TID 0000.0001)  cg2d: iter=    98 ; resid.=  5.59263751489404E-09
(PID.TID 0000.0001)  cg2d: iter=    99 ; resid.=  4.65181167757544E-09
(PID.TID 0000.0001)  cg2d: iter=   100 ; resid.=  3.83232928998704E-09
(PID.TID 0000.0001)  cg2d: iter=   101 ; resid.=  2.79699075197240E-09
(PID.TID 0000.0001)  cg2d: iter=   102 ; resid.=  2.18102877348651E-09
(PID.TID 0000.0001)  cg2d: iter=   103 ; resid.=  1.67489997659404E-09
(PID.TID 0000.0001)  cg2d: iter=   104 ; resid.=  1.24505370872858E-09
(PID.TID 0000.0001)  cg2d: iter=   105 ; resid.=  9.23819143728067E-10
(PID.TID 0000.0001)  cg2d: iter=   106 ; resid.=  6.74228578998816E-10
(PID.TID 0000.0001)  cg2d: iter=   107 ; resid.=  5.20199697243883E-10
(PID.TID 0000.0001)  cg2d: iter=   108 ; resid.=  4.30900244268225E-10
(PID.TID 0000.0001)  cg2d: iter=   109 ; resid.=  3.54923222486581E-10
(PID.TID 0000.0001)  cg2d: iter=   110 ; resid.=  2.93483858980973E-10
(PID.TID 0000.0001)  cg2d: iter=   111 ; resid.=  2.37219344997000E-10
(PID.TID 0000.0001)  cg2d: iter=   112 ; resid.=  1.88485966400936E-10
(PID.TID 0000.0001)  cg2d: iter=   113 ; resid.=  1.42480973992181E-10
(PID.TID 0000.0001)  cg2d: iter=   114 ; resid.=  1.01170609890015E-10
(PID.TID 0000.0001)  cg2d: iter=   115 ; resid.=  7.33624590823882E-11
(PID.TID 0000.0001)  cg2d: iter=   116 ; resid.=  5.06437539832145E-11
(PID.TID 0000.0001)  cg2d: iter=   117 ; resid.=  3.52213226931699E-11
(PID.TID 0000.0001)  cg2d: iter=   118 ; resid.=  2.53459039111882E-11
(PID.TID 0000.0001)  cg2d: iter=   119 ; resid.=  1.90029079924673E-11
(PID.TID 0000.0001)  cg2d: iter=   120 ; resid.=  1.44214243447385E-11
(PID.TID 0000.0001)  cg2d: iter=   121 ; resid.=  1.14448309771034E-11
(PID.TID 0000.0001)  cg2d: iter=   122 ; resid.=  9.29241056700960E-12
(PID.TID 0000.0001)  cg2d: iter=   123 ; resid.=  7.45844536225220E-12
(PID.TID 0000.0001)  cg2d: iter=   124 ; resid.=  5.77807802893627E-12
(PID.TID 0000.0001)  cg2d: iter=   125 ; resid.=  4.62624249981846E-12
(PID.TID 0000.0001)  cg2d: iter=   126 ; resid.=  3.56230093287558E-12
(PID.TID 0000.0001)  cg2d: iter=   127 ; resid.=  2.60782884922094E-12
(PID.TID 0000.0001)  cg2d: iter=   128 ; resid.=  2.07779841667625E-12
(PID.TID 0000.0001)  cg2d: iter=   129 ; resid.=  1.54253750452149E-12
(PID.TID 0000.0001)  cg2d: iter=   130 ; resid.=  1.19841837879682E-12
(PID.TID 0000.0001)  cg2d: iter=   131 ; resid.=  8.96220037341128E-13
(PID.TID 0000.0001)  cg2d: iter=   132 ; resid.=  6.32294735447500E-13
(PID.TID 0000.0001)  cg2d: iter=   133 ; resid.=  4.59664998068326E-13
(PID.TID 0000.0001)  cg2d: iter=   134 ; resid.=  3.39265506519064E-13
(PID.TID 0000.0001)  cg2d: iter=   135 ; resid.=  2.36121470210778E-13
(PID.TID 0000.0001)  cg2d: iter=   136 ; resid.=  1.49632502424985E-13
(PID.TID 0000.0001)  cg2d: iter=   137 ; resid.=  1.01822336988382E-13
(PID.TID 0000.0001)  cg2d: iter=   138 ; resid.=  7.22719501956002E-14
DEBUG_STATS_RL:    cg2d_x (SOLVE_FOR_PRESSURE)  min= -6.09272452020338E+01
DEBUG_STATS_RL:    cg2d_x (SOLVE_FOR_PRESSURE)  max=  1.34893768844093E+01
DEBUG_STATS_RL:    cg2d_x (SOLVE_FOR_PRESSURE) mean= -1.99082687889178E+00
DEBUG_STATS_RL:    cg2d_x (SOLVE_FOR_PRESSURE) S.D.=  9.79615858732250E+00
(PID.TID 0000.0001)      cg2d_init_res =   9.33252940241575E-01
(PID.TID 0000.0001)      cg2d_iters(min,last) =      -1     138
(PID.TID 0000.0001)      cg2d_last_res =   7.22719501956002E-14
(PID.TID 0000.0001) // =======================================================
(PID.TID 0000.0001) // Begin MONITOR dynamic field statistics
(PID.TID 0000.0001) // =======================================================
(PID.TID 0000.0001) %MON time_tsnumber                =                    15
(PID.TID 0000.0001) %MON time_secondsf                =   1.2960000000000E+06
(PID.TID 0000.0001) %MON dynstat_eta_max              =   1.3750639025902E+00
(PID.TID 0000.0001) %MON dynstat_eta_min              =  -6.2107283590248E+00
(PID.TID 0000.0001) %MON dynstat_eta_mean             =  -1.0578102262701E-03
(PID.TID 0000.0001) %MON dynstat_eta_sd               =   7.7024391080359E-01
(PID.TID 0000.0001) %MON dynstat_eta_del2             =   1.9821436366823E-03
(PID.TID 0000.0001) %MON dynstat_uvel_max             =   1.6691352702821E-01
(PID.TID 0000.0001) %MON dynstat_uvel_min             =  -1.1688006537224E-01
(PID.TID 0000.0001) %MON dynstat_uvel_mean            =  -3.0902176520678E-03
(PID.TID 0000.0001) %MON dynstat_uvel_sd              =   2.2848959283921E-02
(PID.TID 0000.0001) %MON dynstat_uvel_del2            =   1.2473606142002E-04
(PID.TID 0000.0001) %MON dynstat_vvel_max             =   1.2635935085597E-01
(PID.TID 0000.0001) %MON dynstat_vvel_min             =  -1.3683278518176E-01
(PID.TID 0000.0001) %MON dynstat_vvel_mean            =  -4.3887886600455E-04
(PID.TID 0000.0001) %MON dynstat_vvel_sd              =   1.2398624749302E-02
(PID.TID 0000.0001) %MON dynstat_vvel_del2            =   1.0762553011065E-04
(PID.TID 0000.0001) %MON dynstat_wvel_max             =   4.2790389028526E-04
(PID.TID 0000.0001) %MON dynstat_wvel_min             =  -3.9631360713351E-04
(PID.TID 0000.0001) %MON dynstat_wvel_mean            =  -2.9467064828142E-22
(PID.TID 0000.0001) %MON dynstat_wvel_sd              =   2.8135663647558E-05
(PID.TID 0000.0001) %MON dynstat_wvel_del2            =   3.1994328996006E-07
(PID.TID 0000.0001) %MON dynstat_theta_max            =   2.9860370845595E+01
(PID.TID 0000.0001) %MON dynstat_theta_min            =  -2.0253939464381E+00
(PID.TID 0000.0001) %MON dynstat_theta_mean           =   3.6494962137314E+00
(PID.TID 0000.0001) %MON dynstat_theta_sd             =   4.4150725078412E+00
(PID.TID 0000.0001) %MON dynstat_theta_del2           =   4.9458757844973E-03
(PID.TID 0000.0001) %MON dynstat_salt_max             =   3.7467674225374E+01
(PID.TID 0000.0001) %MON dynstat_salt_min             =   2.9746228333916E+01
(PID.TID 0000.0001) %MON dynstat_salt_mean            =   3.4747956749210E+01
(PID.TID 0000.0001) %MON dynstat_salt_sd              =   2.9622897685965E-01
(PID.TID 0000.0001) %MON dynstat_salt_del2            =   1.0129864226514E-03
(PID.TID 0000.0001) %MON dynstat_sst_max              =   2.9860370845595E+01
(PID.TID 0000.0001) %MON dynstat_sst_min              =  -2.0253939464381E+00
(PID.TID 0000.0001) %MON dynstat_sst_mean             =   1.8679458846239E+01
(PID.TID 0000.0001) %MON dynstat_sst_sd               =   9.0631858121440E+00
(PID.TID 0000.0001) %MON dynstat_sst_del2             =   2.6295601291398E-02
(PID.TID 0000.0001) %MON dynstat_sss_max              =   3.7459542443643E+01
(PID.TID 0000.0001) %MON dynstat_sss_min              =   2.9746228333916E+01
(PID.TID 0000.0001) %MON dynstat_sss_mean             =   3.4884731513367E+01
(PID.TID 0000.0001) %MON dynstat_sss_sd               =   9.7027795483083E-01
(PID.TID 0000.0001) %MON dynstat_sss_del2             =   7.9896615590494E-03
(PID.TID 0000.0001) %MON forcing_qnet_max             =   4.4056542968750E+02
(PID.TID 0000.0001) %MON forcing_qnet_min             =  -1.8146606140137E+02
(PID.TID 0000.0001) %MON forcing_qnet_mean            =  -1.6525037956867E+01
(PID.TID 0000.0001) %MON forcing_qnet_sd              =   1.1005308947553E+02
(PID.TID 0000.0001) %MON forcing_qnet_del2            =   1.0211400522004E+00
(PID.TID 0000.0001) %MON forcing_qsw_max              =   0.0000000000000E+00
(PID.TID 0000.0001) %MON forcing_qsw_min              =   0.0000000000000E+00
(PID.TID 0000.0001) %MON forcing_qsw_mean             =   0.0000000000000E+00
(PID.TID 0000.0001) %MON forcing_qsw_sd               =   0.0000000000000E+00
(PID.TID 0000.0001) %MON forcing_qsw_del2             =   0.0000000000000E+00
(PID.TID 0000.0001) %MON forcing_empmr_max            =   8.2070127405132E-05
(PID.TID 0000.0001) %MON forcing_empmr_min            =  -7.5009903355294E-05
(PID.TID 0000.0001) %MON forcing_empmr_mean           =   9.1316730436512E-07
(PID.TID 0000.0001) %MON forcing_empmr_sd             =   2.8704317606931E-05
(PID.TID 0000.0001) %MON forcing_empmr_del2           =   3.6657303344582E-07
(PID.TID 0000.0001) %MON forcing_fu_max               =   2.7545738518238E-01
(PID.TID 0000.0001) %MON forcing_fu_min               =  -1.7006715089083E-01
(PID.TID 0000.0001) %MON forcing_fu_mean              =   1.6009427973603E-02
(PID.TID 0000.0001) %MON forcing_fu_sd                =   9.0926657900263E-02
(PID.TID 0000.0001) %MON forcing_fu_del2              =   7.1687269957315E-04
(PID.TID 0000.0001) %MON forcing_fv_max               =   2.3124141544104E-01
(PID.TID 0000.0001) %MON forcing_fv_min               =  -1.7872155755758E-01
(PID.TID 0000.0001) %MON forcing_fv_mean              =  -5.3326602663659E-03
(PID.TID 0000.0001) %MON forcing_fv_sd                =   4.7945514242523E-02
(PID.TID 0000.0001) %MON forcing_fv_del2              =   4.9262259263652E-04
(PID.TID 0000.0001) %MON trAdv_CFL_u_max              =   5.6196153937051E-02
(PID.TID 0000.0001) %MON trAdv_CFL_v_max              =   2.6177886422365E-02
(PID.TID 0000.0001) %MON trAdv_CFL_w_max              =   9.8366349783884E-02
(PID.TID 0000.0001) %MON advcfl_uvel_max              =   6.3255913814054E-02
(PID.TID 0000.0001) %MON advcfl_vvel_max              =   2.6584415626782E-02
(PID.TID 0000.0001) %MON advcfl_wvel_max              =   9.3812316866672E-02
(PID.TID 0000.0001) %MON advcfl_W_hf_max              =   1.0071028134216E-01
(PID.TID 0000.0001) %MON pe_b_mean                    =   7.5916917633012E-04
(PID.TID 0000.0001) %MON ke_max                       =   1.4069183127692E-02
(PID.TID 0000.0001) %MON ke_mean                      =   3.1062576984957E-04
(PID.TID 0000.0001) %MON ke_vol                       =   1.3226782436723E+18
(PID.TID 0000.0001) %MON vort_r_min                   =  -5.7081623652906E-07
(PID.TID 0000.0001) %MON vort_r_max                   =   8.8740716134469E-07
(PID.TID 0000.0001) %MON vort_a_mean                  =  -2.5274807245081E-05
(PID.TID 0000.0001) %MON vort_a_sd                    =   7.3604182226452E-05
(PID.TID 0000.0001) %MON vort_p_mean                  =  -3.1845655607490E-05
(PID.TID 0000.0001) %MON vort_p_sd                    =   1.3161929066100E-04
(PID.TID 0000.0001) %MON surfExpan_theta_mean         =  -1.9512772750513E-06
(PID.TID 0000.0001) %MON surfExpan_salt_mean          =   2.1243681960108E-07
(PID.TID 0000.0001) // =======================================================
(PID.TID 0000.0001) // End MONITOR dynamic field statistics
(PID.TID 0000.0001) // =======================================================
 EXTERNAL_FIELDS_LOAD,        15 : iP,iLd,i0,i1=   12    1    1    2 ; Wght=  1.0000000000  0.0000000000
 EXTERNAL_FIELDS_LOAD, it=        15 : Reading new data, i0,i1=    1    2 (prev=   12    1 )
(PID.TID 0000.0001)  MDS_READ_FIELD: opening global file: trenberth_taux.bin
(PID.TID 0000.0001)  MDS_READ_FIELD: opening global file: trenberth_taux.bin
(PID.TID 0000.0001)  MDS_READ_FIELD: opening global file: trenberth_tauy.bin
(PID.TID 0000.0001)  MDS_READ_FIELD: opening global file: trenberth_tauy.bin
(PID.TID 0000.0001)  MDS_READ_FIELD: opening global file: ncep_qnet.bin
(PID.TID 0000.0001)  MDS_READ_FIELD: opening global file: ncep_qnet.bin
(PID.TID 0000.0001)  MDS_READ_FIELD: opening global file: ncep_emp.bin
(PID.TID 0000.0001)  MDS_READ_FIELD: opening global file: ncep_emp.bin
(PID.TID 0000.0001)  MDS_READ_FIELD: opening global file: lev_sst.bin
(PID.TID 0000.0001)  MDS_READ_FIELD: opening global file: lev_sst.bin
(PID.TID 0000.0001)  MDS_READ_FIELD: opening global file: lev_sss.bin
(PID.TID 0000.0001)  MDS_READ_FIELD: opening global file: lev_sss.bin
 EXTERNAL_FIELDS_LOAD: (fu0,1),fu,fv= -3.5633E-02 -1.4435E-02 -3.5633E-02 -5.7257E-02
 EXTERNAL_FIELDS_LOAD: SST,SSS,Q,E-P=  9.5843E-01  3.4715E+01  2.6577E+02  1.1637E-05
DEBUG_STATS_RL:          Uvel (THERMODYNAMICS)  min= -1.16880065372235E-01
DEBUG_STATS_RL:          Uvel (THERMODYNAMICS)  max=  1.66913527028215E-01
DEBUG_STATS_RL:          Uvel (THERMODYNAMICS) mean= -3.24854356106507E-04
DEBUG_STATS_RL:          Uvel (THERMODYNAMICS) S.D.=  2.80615532595875E-02
DEBUG_STATS_RL:          Vvel (THERMODYNAMICS)  min= -1.36832785181761E-01
DEBUG_STATS_RL:          Vvel (THERMODYNAMICS)  max=  1.26359350855968E-01
DEBUG_STATS_RL:          Vvel (THERMODYNAMICS) mean=  4.12833271981231E-04
DEBUG_STATS_RL:          Vvel (THERMODYNAMICS) S.D.=  1.71913220288177E-02
DEBUG_STATS_RL:          Wvel (THERMODYNAMICS)  min= -3.96313607133509E-04
DEBUG_STATS_RL:          Wvel (THERMODYNAMICS)  max=  4.27903890285258E-04
DEBUG_STATS_RL:          Wvel (THERMODYNAMICS) mean=  1.20301191021918E-07
DEBUG_STATS_RL:          Wvel (THERMODYNAMICS) S.D.=  2.55708252190905E-05
DEBUG_STATS_RL:         Theta (THERMODYNAMICS)  min= -2.02572878452547E+00
DEBUG_STATS_RL:         Theta (THERMODYNAMICS)  max=  2.98516592367981E+01
DEBUG_STATS_RL:         Theta (THERMODYNAMICS) mean=  3.23729400483141E+00
DEBUG_STATS_RL:         Theta (THERMODYNAMICS) S.D.=  5.85473789936005E+00
DEBUG_STATS_RL:          Salt (THERMODYNAMICS)  min=  3.00000000000000E-02
DEBUG_STATS_RL:          Salt (THERMODYNAMICS)  max=  3.74682243899550E+01
DEBUG_STATS_RL:          Salt (THERMODYNAMICS) mean=  1.88751637288455E+01
DEBUG_STATS_RL:          Salt (THERMODYNAMICS) S.D.=  1.73006481794442E+01
DEBUG_STATS_RL:         GtNm1 (THERMODYNAMICS)  min= -4.24845198353559E-06
DEBUG_STATS_RL:         GtNm1 (THERMODYNAMICS)  max=  4.31645647411631E-06
DEBUG_STATS_RL:         GtNm1 (THERMODYNAMICS) mean=  1.29489355950220E-08
DEBUG_STATS_RL:         GtNm1 (THERMODYNAMICS) S.D.=  2.59556221988072E-07
DEBUG_STATS_RL:         GsNm1 (THERMODYNAMICS)  min= -9.15507736790464E-07
DEBUG_STATS_RL:         GsNm1 (THERMODYNAMICS)  max=  1.15155202045130E-06
DEBUG_STATS_RL:         GsNm1 (THERMODYNAMICS) mean=  7.61695539058519E-11
DEBUG_STATS_RL:         GsNm1 (THERMODYNAMICS) S.D.=  2.48930165015700E-08
DEBUG_STATS_RL:                EtaN (DYNAMICS)  min= -6.21072835902483E+00
DEBUG_STATS_RL:                EtaN (DYNAMICS)  max=  1.37506390259018E+00
DEBUG_STATS_RL:                EtaN (DYNAMICS) mean= -2.02938519764708E-01
DEBUG_STATS_RL:                EtaN (DYNAMICS) S.D.=  9.98589050695463E-01
DEBUG_STATS_RL:                Uvel (DYNAMICS)  min= -1.16880065372235E-01
DEBUG_STATS_RL:                Uvel (DYNAMICS)  max=  1.66913527028215E-01
DEBUG_STATS_RL:                Uvel (DYNAMICS) mean= -3.24854356106507E-04
DEBUG_STATS_RL:                Uvel (DYNAMICS) S.D.=  2.80615532595875E-02
DEBUG_STATS_RL:                Vvel (DYNAMICS)  min= -1.36832785181761E-01
DEBUG_STATS_RL:                Vvel (DYNAMICS)  max=  1.26359350855968E-01
DEBUG_STATS_RL:                Vvel (DYNAMICS) mean=  4.12833271981231E-04
DEBUG_STATS_RL:                Vvel (DYNAMICS) S.D.=  1.71913220288177E-02
DEBUG_STATS_RL:                Wvel (DYNAMICS)  min= -3.96313607133509E-04
DEBUG_STATS_RL:                Wvel (DYNAMICS)  max=  4.27903890285258E-04
DEBUG_STATS_RL:                Wvel (DYNAMICS) mean=  1.20301191021918E-07
DEBUG_STATS_RL:                Wvel (DYNAMICS) S.D.=  2.55708252190905E-05
DEBUG_STATS_RL:               Theta (DYNAMICS)  min= -2.02572878452547E+00
DEBUG_STATS_RL:               Theta (DYNAMICS)  max=  2.98516592367981E+01
DEBUG_STATS_RL:               Theta (DYNAMICS) mean=  3.23729400483141E+00
DEBUG_STATS_RL:               Theta (DYNAMICS) S.D.=  5.85473789936005E+00
DEBUG_STATS_RL:                Salt (DYNAMICS)  min=  3.00000000000000E-02
DEBUG_STATS_RL:                Salt (DYNAMICS)  max=  3.74682243899550E+01
DEBUG_STATS_RL:                Salt (DYNAMICS) mean=  1.88751637288455E+01
DEBUG_STATS_RL:                Salt (DYNAMICS) S.D.=  1.73006481794442E+01
DEBUG_STATS_RL:                  Gu (DYNAMICS)  min= -1.14131313254166E-01
DEBUG_STATS_RL:                  Gu (DYNAMICS)  max=  1.66189116341416E-01
DEBUG_STATS_RL:                  Gu (DYNAMICS) mean= -2.27899273244673E-03
DEBUG_STATS_RL:                  Gu (DYNAMICS) S.D.=  2.82531470515993E-02
DEBUG_STATS_RL:                  Gv (DYNAMICS)  min= -1.33281582104701E-01
DEBUG_STATS_RL:                  Gv (DYNAMICS)  max=  1.21496139149325E-01
DEBUG_STATS_RL:                  Gv (DYNAMICS) mean=  1.38773791546614E-03
DEBUG_STATS_RL:                  Gv (DYNAMICS) S.D.=  1.83633408553993E-02
DEBUG_STATS_RL:               GuNm1 (DYNAMICS)  min= -6.37941656594279E-06
DEBUG_STATS_RL:               GuNm1 (DYNAMICS)  max=  8.29581177735004E-06
DEBUG_STATS_RL:               GuNm1 (DYNAMICS) mean= -2.60341971339596E-08
DEBUG_STATS_RL:               GuNm1 (DYNAMICS) S.D.=  1.12107203846042E-06
DEBUG_STATS_RL:               GvNm1 (DYNAMICS)  min= -8.76842322014905E-06
DEBUG_STATS_RL:               GvNm1 (DYNAMICS)  max=  1.68374687562843E-05
DEBUG_STATS_RL:               GvNm1 (DYNAMICS) mean=  7.68575519148831E-07
DEBUG_STATS_RL:               GvNm1 (DYNAMICS) S.D.=  2.58306975510456E-06
DEBUG_STATS_RL:               GtNm1 (DYNAMICS)  min= -4.24845198353559E-06
DEBUG_STATS_RL:               GtNm1 (DYNAMICS)  max=  4.31645647411631E-06
DEBUG_STATS_RL:               GtNm1 (DYNAMICS) mean=  1.29489355950220E-08
DEBUG_STATS_RL:               GtNm1 (DYNAMICS) S.D.=  2.59556221988072E-07
DEBUG_STATS_RL:               GsNm1 (DYNAMICS)  min= -9.15507736790464E-07
DEBUG_STATS_RL:               GsNm1 (DYNAMICS)  max=  1.15155202045130E-06
DEBUG_STATS_RL:               GsNm1 (DYNAMICS) mean=  7.61695539058519E-11
DEBUG_STATS_RL:               GsNm1 (DYNAMICS) S.D.=  2.48930165015700E-08
DEBUG_STATS_RL:    cg2d_b (SOLVE_FOR_PRESSURE)  min= -1.80293890334340E+04
DEBUG_STATS_RL:    cg2d_b (SOLVE_FOR_PRESSURE)  max=  1.59589144136130E+04
DEBUG_STATS_RL:    cg2d_b (SOLVE_FOR_PRESSURE) mean=  1.08767635315948E+00
DEBUG_STATS_RL:    cg2d_b (SOLVE_FOR_PRESSURE) S.D.=  3.56618413910098E+03
 cg2d: Sum(rhs),rhsMax =   1.39659239306279E-01  1.18421854406571E+00
(PID.TID 0000.0001)  cg2d: iter=     1 ; resid.=  8.26820531819141E-01
(PID.TID 0000.0001)  cg2d: iter=     2 ; resid.=  7.35003384347054E-01
(PID.TID 0000.0001)  cg2d: iter=     3 ; resid.=  6.15898829900222E-01
(PID.TID 0000.0001)  cg2d: iter=     4 ; resid.=  5.28627145911063E-01
(PID.TID 0000.0001)  cg2d: iter=     5 ; resid.=  4.80874072236214E-01
(PID.TID 0000.0001)  cg2d: iter=     6 ; resid.=  3.91034115353567E-01
(PID.TID 0000.0001)  cg2d: iter=     7 ; resid.=  3.44222000949891E-01
(PID.TID 0000.0001)  cg2d: iter=     8 ; resid.=  3.14664142733287E-01
(PID.TID 0000.0001)  cg2d: iter=     9 ; resid.=  2.97960441173602E-01
(PID.TID 0000.0001)  cg2d: iter=    10 ; resid.=  2.57365452449861E-01
(PID.TID 0000.0001)  cg2d: iter=    11 ; resid.=  1.91084665158881E-01
(PID.TID 0000.0001)  cg2d: iter=    12 ; resid.=  1.33871420410227E-01
(PID.TID 0000.0001)  cg2d: iter=    13 ; resid.=  1.06173317031673E-01
(PID.TID 0000.0001)  cg2d: iter=    14 ; resid.=  8.51432877344951E-02
(PID.TID 0000.0001)  cg2d: iter=    15 ; resid.=  6.36692668251484E-02
(PID.TID 0000.0001)  cg2d: iter=    16 ; resid.=  5.83021234552235E-02
(PID.TID 0000.0001)  cg2d: iter=    17 ; resid.=  5.27570189721807E-02
(PID.TID 0000.0001)  cg2d: iter=    18 ; resid.=  4.02315775325372E-02
(PID.TID 0000.0001)  cg2d: iter=    19 ; resid.=  2.67976433702398E-02
(PID.TID 0000.0001)  cg2d: iter=    20 ; resid.=  2.07515512084033E-02
(PID.TID 0000.0001)  cg2d: iter=    21 ; resid.=  1.85029042852766E-02
(PID.TID 0000.0001)  cg2d: iter=    22 ; resid.=  1.69695637130295E-02
(PID.TID 0000.0001)  cg2d: iter=    23 ; resid.=  1.52038194899270E-02
(PID.TID 0000.0001)  cg2d: iter=    24 ; resid.=  1.42006495126298E-02
(PID.TID 0000.0001)  cg2d: iter=    25 ; resid.=  1.12309182031155E-02
(PID.TID 0000.0001)  cg2d: iter=    26 ; resid.=  9.29720339682960E-03
(PID.TID 0000.0001)  cg2d: iter=    27 ; resid.=  7.46499111372012E-03
(PID.TID 0000.0001)  cg2d: iter=    28 ; resid.=  5.99986617379378E-03
(PID.TID 0000.0001)  cg2d: iter=    29 ; resid.=  4.65600161661268E-03
(PID.TID 0000.0001)  cg2d: iter=    30 ; resid.=  4.04723067349143E-03
(PID.TID 0000.0001)  cg2d: iter=    31 ; resid.=  3.40645044386437E-03
(PID.TID 0000.0001)  cg2d: iter=    32 ; resid.=  2.44107955898570E-03
(PID.TID 0000.0001)  cg2d: iter=    33 ; resid.=  2.23852005973475E-03
(PID.TID 0000.0001)  cg2d: iter=    34 ; resid.=  1.75873536262040E-03
(PID.TID 0000.0001)  cg2d: iter=    35 ; resid.=  1.39703103579547E-03
(PID.TID 0000.0001)  cg2d: iter=    36 ; resid.=  1.10419122407440E-03
(PID.TID 0000.0001)  cg2d: iter=    37 ; resid.=  8.89285205616244E-04
(PID.TID 0000.0001)  cg2d: iter=    38 ; resid.=  7.18981112843219E-04
(PID.TID 0000.0001)  cg2d: iter=    39 ; resid.=  5.99539244793782E-04
(PID.TID 0000.0001)  cg2d: iter=    40 ; resid.=  4.90927881698929E-04
(PID.TID 0000.0001)  cg2d: iter=    41 ; resid.=  4.13253527953224E-04
(PID.TID 0000.0001)  cg2d: iter=    42 ; resid.=  3.94733966006722E-04
(PID.TID 0000.0001)  cg2d: iter=    43 ; resid.=  3.44555381584061E-04
(PID.TID 0000.0001)  cg2d: iter=    44 ; resid.=  3.11981312874132E-04
(PID.TID 0000.0001)  cg2d: iter=    45 ; resid.=  2.64640633631838E-04
(PID.TID 0000.0001)  cg2d: iter=    46 ; resid.=  2.50067297708824E-04
(PID.TID 0000.0001)  cg2d: iter=    47 ; resid.=  2.18189612614332E-04
(PID.TID 0000.0001)  cg2d: iter=    48 ; resid.=  1.80930416067905E-04
(PID.TID 0000.0001)  cg2d: iter=    49 ; resid.=  1.37047282237337E-04
(PID.TID 0000.0001)  cg2d: iter=    50 ; resid.=  1.02095573765448E-04
(PID.TID 0000.0001)  cg2d: iter=    51 ; resid.=  7.55772968232981E-05
(PID.TID 0000.0001)  cg2d: iter=    52 ; resid.=  5.57873627732407E-05
(PID.TID 0000.0001)  cg2d: iter=    53 ; resid.=  4.40998569590329E-05
(PID.TID 0000.0001)  cg2d: iter=    54 ; resid.=  3.66921668636976E-05
(PID.TID 0000.0001)  cg2d: iter=    55 ; resid.=  2.94264749667733E-05
(PID.TID 0000.0001)  cg2d: iter=    56 ; resid.=  2.71537427553928E-05
(PID.TID 0000.0001)  cg2d: iter=    57 ; resid.=  2.28696826094798E-05
(PID.TID 0000.0001)  cg2d: iter=    58 ; resid.=  1.90580142520755E-05
(PID.TID 0000.0001)  cg2d: iter=    59 ; resid.=  1.67601551090177E-05
(PID.TID 0000.0001)  cg2d: iter=    60 ; resid.=  1.46187178381059E-05
(PID.TID 0000.0001)  cg2d: iter=    61 ; resid.=  1.22662634956547E-05
(PID.TID 0000.0001)  cg2d: iter=    62 ; resid.=  9.99022862047792E-06
(PID.TID 0000.0001)  cg2d: iter=    63 ; resid.=  8.77734049910177E-06
(PID.TID 0000.0001)  cg2d: iter=    64 ; resid.=  8.44517011233258E-06
(PID.TID 0000.0001)  cg2d: iter=    65 ; resid.=  6.34986310272064E-06
(PID.TID 0000.0001)  cg2d: iter=    66 ; resid.=  4.82402630801095E-06
(PID.TID 0000.0001)  cg2d: iter=    67 ; resid.=  3.96255822573592E-06
(PID.TID 0000.0001)  cg2d: iter=    68 ; resid.=  3.40307698838683E-06
(PID.TID 0000.0001)  cg2d: iter=    69 ; resid.=  2.82542962105899E-06
(PID.TID 0000.0001)  cg2d: iter=    70 ; resid.=  2.55433015345041E-06
(PID.TID 0000.0001)  cg2d: iter=    71 ; resid.=  2.10782415970132E-06
(PID.TID 0000.0001)  cg2d: iter=    72 ; resid.=  1.74146878825721E-06
(PID.TID 0000.0001)  cg2d: iter=    73 ; resid.=  1.36244706200953E-06
(PID.TID 0000.0001)  cg2d: iter=    74 ; resid.=  1.12690687374935E-06
(PID.TID 0000.0001)  cg2d: iter=    75 ; resid.=  8.75675929532183E-07
(PID.TID 0000.0001)  cg2d: iter=    76 ; resid.=  7.52072320019157E-07
(PID.TID 0000.0001)  cg2d: iter=    77 ; resid.=  6.17783252553070E-07
(PID.TID 0000.0001)  cg2d: iter=    78 ; resid.=  5.14793544187489E-07
(PID.TID 0000.0001)  cg2d: iter=    79 ; resid.=  3.99788591684733E-07
(PID.TID 0000.0001)  cg2d: iter=    80 ; resid.=  3.35709873277932E-07
(PID.TID 0000.0001)  cg2d: iter=    81 ; resid.=  2.93605272660150E-07
(PID.TID 0000.0001)  cg2d: iter=    82 ; resid.=  2.38033599483650E-07
(PID.TID 0000.0001)  cg2d: iter=    83 ; resid.=  2.03115924960912E-07
(PID.TID 0000.0001)  cg2d: iter=    84 ; resid.=  1.45554074519129E-07
(PID.TID 0000.0001)  cg2d: iter=    85 ; resid.=  1.22650553073062E-07
(PID.TID 0000.0001)  cg2d: iter=    86 ; resid.=  9.35132821958317E-08
(PID.TID 0000.0001)  cg2d: iter=    87 ; resid.=  6.65933929830961E-08
(PID.TID 0000.0001)  cg2d: iter=    88 ; resid.=  5.10072982004520E-08
(PID.TID 0000.0001)  cg2d: iter=    89 ; resid.=  3.96525740405197E-08
(PID.TID 0000.0001)  cg2d: iter=    90 ; resid.=  3.41387407823911E-08
(PID.TID 0000.0001)  cg2d: iter=    91 ; resid.=  2.64229625195381E-08
(PID.TID 0000.0001)  cg2d: iter=    92 ; resid.=  2.16197910463521E-08
(PID.TID 0000.0001)  cg2d: iter=    93 ; resid.=  1.82841053292670E-08
(PID.TID 0000.0001)  cg2d: iter=    94 ; resid.=  1.54464157397183E-08
(PID.TID 0000.0001)  cg2d: iter=    95 ; resid.=  1.36008890122598E-08
(PID.TID 0000.0001)  cg2d: iter=    96 ; resid.=  1.05709525526053E-08
(PID.TID 0000.0001)  cg2d: iter=    97 ; resid.=  7.86699671498105E-09
(PID.TID 0000.0001)  cg2d: iter=    98 ; resid.=  6.02046130301641E-09
(PID.TID 0000.0001)  cg2d: iter=    99 ; resid.=  4.66999674483204E-09
(PID.TID 0000.0001)  cg2d: iter=   100 ; resid.=  3.90137728993516E-09
(PID.TID 0000.0001)  cg2d: iter=   101 ; resid.=  3.12863234551280E-09
(PID.TID 0000.0001)  cg2d: iter=   102 ; resid.=  2.49540192155834E-09
(PID.TID 0000.0001)  cg2d: iter=   103 ; resid.=  1.91450631675516E-09
(PID.TID 0000.0001)  cg2d: iter=   104 ; resid.=  1.37813979881592E-09
(PID.TID 0000.0001)  cg2d: iter=   105 ; resid.=  1.08358155039872E-09
(PID.TID 0000.0001)  cg2d: iter=   106 ; resid.=  8.02020409194198E-10
(PID.TID 0000.0001)  cg2d: iter=   107 ; resid.=  6.15350182944465E-10
(PID.TID 0000.0001)  cg2d: iter=   108 ; resid.=  5.11705709668656E-10
(PID.TID 0000.0001)  cg2d: iter=   109 ; resid.=  3.91666925418145E-10
(PID.TID 0000.0001)  cg2d: iter=   110 ; resid.=  3.21922392572660E-10
(PID.TID 0000.0001)  cg2d: iter=   111 ; resid.=  2.52503008755606E-10
(PID.TID 0000.0001)  cg2d: iter=   112 ; resid.=  1.90538463955466E-10
(PID.TID 0000.0001)  cg2d: iter=   113 ; resid.=  1.29452599806918E-10
(PID.TID 0000.0001)  cg2d: iter=   114 ; resid.=  8.93383897970468E-11
(PID.TID 0000.0001)  cg2d: iter=   115 ; resid.=  6.42656506147046E-11
(PID.TID 0000.0001)  cg2d: iter=   116 ; resid.=  4.58668629428694E-11
(PID.TID 0000.0001)  cg2d: iter=   117 ; resid.=  3.30767453665998E-11
(PID.TID 0000.0001)  cg2d: iter=   118 ; resid.=  2.35083848434984E-11
(PID.TID 0000.0001)  cg2d: iter=   119 ; resid.=  1.67984683233219E-11
(PID.TID 0000.0001)  cg2d: iter=   120 ; resid.=  1.22153457121184E-11
(PID.TID 0000.0001)  cg2d: iter=   121 ; resid.=  9.95723659474934E-12
(PID.TID 0000.0001)  cg2d: iter=   122 ; resid.=  8.43365993242935E-12
(PID.TID 0000.0001)  cg2d: iter=   123 ; resid.=  7.01846579105359E-12
(PID.TID 0000.0001)  cg2d: iter=   124 ; resid.=  5.35904537417507E-12
(PID.TID 0000.0001)  cg2d: iter=   125 ; resid.=  4.26626082375156E-12
(PID.TID 0000.0001)  cg2d: iter=   126 ; resid.=  3.22394541141999E-12
(PID.TID 0000.0001)  cg2d: iter=   127 ; resid.=  2.22915134826347E-12
(PID.TID 0000.0001)  cg2d: iter=   128 ; resid.=  1.73948003514069E-12
(PID.TID 0000.0001)  cg2d: iter=   129 ; resid.=  1.29643929767471E-12
(PID.TID 0000.0001)  cg2d: iter=   130 ; resid.=  1.00217996878529E-12
(PID.TID 0000.0001)  cg2d: iter=   131 ; resid.=  7.75966110765196E-13
(PID.TID 0000.0001)  cg2d: iter=   132 ; resid.=  5.78311601881876E-13
(PID.TID 0000.0001)  cg2d: iter=   133 ; resid.=  4.42038235321623E-13
(PID.TID 0000.0001)  cg2d: iter=   134 ; resid.=  3.51130303843375E-13
(PID.TID 0000.0001)  cg2d: iter=   135 ; resid.=  2.50952031122408E-13
(PID.TID 0000.0001)  cg2d: iter=   136 ; resid.=  1.81771337355563E-13
(PID.TID 0000.0001)  cg2d: iter=   137 ; resid.=  1.44822958933412E-13
(PID.TID 0000.0001)  cg2d: iter=   138 ; resid.=  1.14926273768183E-13
(PID.TID 0000.0001)  cg2d: iter=   139 ; resid.=  9.30031011549781E-14
DEBUG_STATS_RL:    cg2d_x (SOLVE_FOR_PRESSURE)  min= -5.09389696512316E+01
DEBUG_STATS_RL:    cg2d_x (SOLVE_FOR_PRESSURE)  max=  1.37914714931289E+01
DEBUG_STATS_RL:    cg2d_x (SOLVE_FOR_PRESSURE) mean= -1.82578894648457E+00
DEBUG_STATS_RL:    cg2d_x (SOLVE_FOR_PRESSURE) S.D.=  8.93183856671966E+00
(PID.TID 0000.0001)      cg2d_init_res =   8.95231320812593E-01
(PID.TID 0000.0001)      cg2d_iters(min,last) =      -1     139
(PID.TID 0000.0001)      cg2d_last_res =   9.30031011549781E-14
(PID.TID 0000.0001) // =======================================================
(PID.TID 0000.0001) // Begin MONITOR dynamic field statistics
(PID.TID 0000.0001) // =======================================================
(PID.TID 0000.0001) %MON time_tsnumber                =                    16
(PID.TID 0000.0001) %MON time_secondsf                =   1.3824000000000E+06
(PID.TID 0000.0001) %MON dynstat_eta_max              =   1.4058584600540E+00
(PID.TID 0000.0001) %MON dynstat_eta_min              =  -5.1925555200032E+00
(PID.TID 0000.0001) %MON dynstat_eta_mean             =  -1.1348554071074E-03
(PID.TID 0000.0001) %MON dynstat_eta_sd               =   7.3477944396723E-01
(PID.TID 0000.0001) %MON dynstat_eta_del2             =   1.9556961158648E-03
(PID.TID 0000.0001) %MON dynstat_uvel_max             =   1.6449006112625E-01
(PID.TID 0000.0001) %MON dynstat_uvel_min             =  -1.2085252924450E-01
(PID.TID 0000.0001) %MON dynstat_uvel_mean            =  -4.0322887449342E-03
(PID.TID 0000.0001) %MON dynstat_uvel_sd              =   2.3248219154711E-02
(PID.TID 0000.0001) %MON dynstat_uvel_del2            =   1.2476044651311E-04
(PID.TID 0000.0001) %MON dynstat_vvel_max             =   1.2976383974680E-01
(PID.TID 0000.0001) %MON dynstat_vvel_min             =  -1.3825953780698E-01
(PID.TID 0000.0001) %MON dynstat_vvel_mean            =  -7.1084629064233E-05
(PID.TID 0000.0001) %MON dynstat_vvel_sd              =   1.2385497636343E-02
(PID.TID 0000.0001) %MON dynstat_vvel_del2            =   1.0843802358617E-04
(PID.TID 0000.0001) %MON dynstat_wvel_max             =   3.9469906746524E-04
(PID.TID 0000.0001) %MON dynstat_wvel_min             =  -3.8497583281861E-04
(PID.TID 0000.0001) %MON dynstat_wvel_mean            =   1.2953627198329E-22
(PID.TID 0000.0001) %MON dynstat_wvel_sd              =   2.8418681933596E-05
(PID.TID 0000.0001) %MON dynstat_wvel_del2            =   3.2160426288346E-07
(PID.TID 0000.0001) %MON dynstat_theta_max            =   2.9851659236798E+01
(PID.TID 0000.0001) %MON dynstat_theta_min            =  -2.0257287845255E+00
(PID.TID 0000.0001) %MON dynstat_theta_mean           =   3.6496379988964E+00
(PID.TID 0000.0001) %MON dynstat_theta_sd             =   4.4152878260635E+00
(PID.TID 0000.0001) %MON dynstat_theta_del2           =   4.9269023689638E-03
(PID.TID 0000.0001) %MON dynstat_salt_max             =   3.7468224389955E+01
(PID.TID 0000.0001) %MON dynstat_salt_min             =   2.9741536701953E+01
(PID.TID 0000.0001) %MON dynstat_salt_mean            =   3.4747953495071E+01
(PID.TID 0000.0001) %MON dynstat_salt_sd              =   2.9624855978575E-01
(PID.TID 0000.0001) %MON dynstat_salt_del2            =   1.0131138728250E-03
(PID.TID 0000.0001) %MON dynstat_sst_max              =   2.9851659236798E+01
(PID.TID 0000.0001) %MON dynstat_sst_min              =  -2.0257287845255E+00
(PID.TID 0000.0001) %MON dynstat_sst_mean             =   1.8687159868047E+01
(PID.TID 0000.0001) %MON dynstat_sst_sd               =   9.0614649664753E+00
(PID.TID 0000.0001) %MON dynstat_sst_del2             =   2.6302512513284E-02
(PID.TID 0000.0001) %MON dynstat_sss_max              =   3.7459414647028E+01
(PID.TID 0000.0001) %MON dynstat_sss_min              =   2.9741536701953E+01
(PID.TID 0000.0001) %MON dynstat_sss_mean             =   3.4884513255689E+01
(PID.TID 0000.0001) %MON dynstat_sss_sd               =   9.7082264413806E-01
(PID.TID 0000.0001) %MON dynstat_sss_del2             =   7.9869612041170E-03
(PID.TID 0000.0001) %MON forcing_qnet_max             =   4.4161361694336E+02
(PID.TID 0000.0001) %MON forcing_qnet_min             =  -1.8132531738281E+02
(PID.TID 0000.0001) %MON forcing_qnet_mean            =  -1.6512526001044E+01
(PID.TID 0000.0001) %MON forcing_qnet_sd              =   1.0987288293460E+02
(PID.TID 0000.0001) %MON forcing_qnet_del2            =   1.0245701543512E+00
(PID.TID 0000.0001) %MON forcing_qsw_max              =   0.0000000000000E+00
(PID.TID 0000.0001) %MON forcing_qsw_min              =   0.0000000000000E+00
(PID.TID 0000.0001) %MON forcing_qsw_mean             =   0.0000000000000E+00
(PID.TID 0000.0001) %MON forcing_qsw_sd               =   0.0000000000000E+00
(PID.TID 0000.0001) %MON forcing_qsw_del2             =   0.0000000000000E+00
(PID.TID 0000.0001) %MON forcing_empmr_max            =   8.2174238968946E-05
(PID.TID 0000.0001) %MON forcing_empmr_min            =  -7.6155956207913E-05
(PID.TID 0000.0001) %MON forcing_empmr_mean           =   9.2293706211063E-07
(PID.TID 0000.0001) %MON forcing_empmr_sd             =   2.8800050217957E-05
(PID.TID 0000.0001) %MON forcing_empmr_del2           =   3.6757632549621E-07
(PID.TID 0000.0001) %MON forcing_fu_max               =   2.7877888083458E-01
(PID.TID 0000.0001) %MON forcing_fu_min               =  -1.7088057100773E-01
(PID.TID 0000.0001) %MON forcing_fu_mean              =   1.6001735152566E-02
(PID.TID 0000.0001) %MON forcing_fu_sd                =   9.1062350670783E-02
(PID.TID 0000.0001) %MON forcing_fu_del2              =   7.2483493833855E-04
(PID.TID 0000.0001) %MON forcing_fv_max               =   2.3312132060528E-01
(PID.TID 0000.0001) %MON forcing_fv_min               =  -1.7813690006733E-01
(PID.TID 0000.0001) %MON forcing_fv_mean              =  -5.2588977395051E-03
(PID.TID 0000.0001) %MON forcing_fv_sd                =   4.8248606070107E-02
(PID.TID 0000.0001) %MON forcing_fv_del2              =   4.9948324922575E-04
(PID.TID 0000.0001) %MON trAdv_CFL_u_max              =   6.3268761542563E-02
(PID.TID 0000.0001) %MON trAdv_CFL_v_max              =   2.6695862503368E-02
(PID.TID 0000.0001) %MON trAdv_CFL_w_max              =   1.0071028134216E-01
(PID.TID 0000.0001) %MON advcfl_uvel_max              =   7.9252524012427E-02
(PID.TID 0000.0001) %MON advcfl_vvel_max              =   2.6861610779500E-02
(PID.TID 0000.0001) %MON advcfl_wvel_max              =   9.1128525905556E-02
(PID.TID 0000.0001) %MON advcfl_W_hf_max              =   9.7829152810377E-02
(PID.TID 0000.0001) %MON pe_b_mean                    =   6.9086983741338E-04
(PID.TID 0000.0001) %MON ke_max                       =   1.3591250809685E-02
(PID.TID 0000.0001) %MON ke_mean                      =   3.2180547449377E-04
(PID.TID 0000.0001) %MON ke_vol                       =   1.3226782436723E+18
(PID.TID 0000.0001) %MON vort_r_min                   =  -6.4332914812879E-07
(PID.TID 0000.0001) %MON vort_r_max                   =   1.1175860966792E-06
(PID.TID 0000.0001) %MON vort_a_mean                  =  -2.5274807776599E-05
(PID.TID 0000.0001) %MON vort_a_sd                    =   7.3603972474586E-05
(PID.TID 0000.0001) %MON vort_p_mean                  =  -3.1845656277189E-05
(PID.TID 0000.0001) %MON vort_p_sd                    =   1.3161943261474E-04
(PID.TID 0000.0001) %MON surfExpan_theta_mean         =  -1.6165813844298E-06
(PID.TID 0000.0001) %MON surfExpan_salt_mean          =   2.0210175080980E-07
(PID.TID 0000.0001) // =======================================================
(PID.TID 0000.0001) // End MONITOR dynamic field statistics
(PID.TID 0000.0001) // =======================================================
 EXTERNAL_FIELDS_LOAD,        16 : iP,iLd,i0,i1=    1    2    1    2 ; Wght=  0.9666666667  0.0333333333
 EXTERNAL_FIELDS_LOAD: (fu0,1),fu,fv= -3.5633E-02 -1.4435E-02 -3.4926E-02 -5.5936E-02
 EXTERNAL_FIELDS_LOAD: SST,SSS,Q,E-P=  9.0875E-01  3.4705E+01  2.6493E+02  1.1528E-05
DEBUG_STATS_RL:          Uvel (THERMODYNAMICS)  min= -1.20852529244503E-01
DEBUG_STATS_RL:          Uvel (THERMODYNAMICS)  max=  1.64490061126246E-01
DEBUG_STATS_RL:          Uvel (THERMODYNAMICS) mean= -1.29676467464138E-03
DEBUG_STATS_RL:          Uvel (THERMODYNAMICS) S.D.=  2.82377499732077E-02
DEBUG_STATS_RL:          Vvel (THERMODYNAMICS)  min= -1.38259537806976E-01
DEBUG_STATS_RL:          Vvel (THERMODYNAMICS)  max=  1.29763839746802E-01
DEBUG_STATS_RL:          Vvel (THERMODYNAMICS) mean=  1.07771957923269E-03
DEBUG_STATS_RL:          Vvel (THERMODYNAMICS) S.D.=  1.75327400474518E-02
DEBUG_STATS_RL:          Wvel (THERMODYNAMICS)  min= -3.84975832818612E-04
DEBUG_STATS_RL:          Wvel (THERMODYNAMICS)  max=  3.94699067465241E-04
DEBUG_STATS_RL:          Wvel (THERMODYNAMICS) mean=  2.05214158587456E-07
DEBUG_STATS_RL:          Wvel (THERMODYNAMICS) S.D.=  2.58397014826605E-05
DEBUG_STATS_RL:         Theta (THERMODYNAMICS)  min= -2.02361525767154E+00
DEBUG_STATS_RL:         Theta (THERMODYNAMICS)  max=  2.98474174246970E+01
DEBUG_STATS_RL:         Theta (THERMODYNAMICS) mean=  3.23767642168849E+00
DEBUG_STATS_RL:         Theta (THERMODYNAMICS) S.D.=  5.85528193383152E+00
DEBUG_STATS_RL:          Salt (THERMODYNAMICS)  min=  3.00000000000000E-02
DEBUG_STATS_RL:          Salt (THERMODYNAMICS)  max=  3.74688428740766E+01
DEBUG_STATS_RL:          Salt (THERMODYNAMICS) mean=  1.88751647508430E+01
DEBUG_STATS_RL:          Salt (THERMODYNAMICS) S.D.=  1.73006499992448E+01
DEBUG_STATS_RL:         GtNm1 (THERMODYNAMICS)  min= -3.21233478731203E-06
DEBUG_STATS_RL:         GtNm1 (THERMODYNAMICS)  max=  4.12585418277153E-06
DEBUG_STATS_RL:         GtNm1 (THERMODYNAMICS) mean=  1.03647070435244E-08
DEBUG_STATS_RL:         GtNm1 (THERMODYNAMICS) S.D.=  2.51922660839053E-07
DEBUG_STATS_RL:         GsNm1 (THERMODYNAMICS)  min= -6.45201519463120E-07
DEBUG_STATS_RL:         GsNm1 (THERMODYNAMICS)  max=  6.66108945384223E-07
DEBUG_STATS_RL:         GsNm1 (THERMODYNAMICS) mean=  1.50881167866542E-11
DEBUG_STATS_RL:         GsNm1 (THERMODYNAMICS) S.D.=  2.21832290965339E-08
DEBUG_STATS_RL:                EtaN (DYNAMICS)  min= -5.19255552000324E+00
DEBUG_STATS_RL:                EtaN (DYNAMICS)  max=  1.40585846005395E+00
DEBUG_STATS_RL:                EtaN (DYNAMICS) mean= -1.86115081191089E-01
DEBUG_STATS_RL:                EtaN (DYNAMICS) S.D.=  9.10483034324125E-01
DEBUG_STATS_RL:                Uvel (DYNAMICS)  min= -1.20852529244503E-01
DEBUG_STATS_RL:                Uvel (DYNAMICS)  max=  1.64490061126246E-01
DEBUG_STATS_RL:                Uvel (DYNAMICS) mean= -1.29676467464138E-03
DEBUG_STATS_RL:                Uvel (DYNAMICS) S.D.=  2.82377499732077E-02
DEBUG_STATS_RL:                Vvel (DYNAMICS)  min= -1.38259537806976E-01
DEBUG_STATS_RL:                Vvel (DYNAMICS)  max=  1.29763839746802E-01
DEBUG_STATS_RL:                Vvel (DYNAMICS) mean=  1.07771957923269E-03
DEBUG_STATS_RL:                Vvel (DYNAMICS) S.D.=  1.75327400474518E-02
DEBUG_STATS_RL:                Wvel (DYNAMICS)  min= -3.84975832818612E-04
DEBUG_STATS_RL:                Wvel (DYNAMICS)  max=  3.94699067465241E-04
DEBUG_STATS_RL:                Wvel (DYNAMICS) mean=  2.05214158587456E-07
DEBUG_STATS_RL:                Wvel (DYNAMICS) S.D.=  2.58397014826605E-05
DEBUG_STATS_RL:               Theta (DYNAMICS)  min= -2.02361525767154E+00
DEBUG_STATS_RL:               Theta (DYNAMICS)  max=  2.98474174246970E+01
DEBUG_STATS_RL:               Theta (DYNAMICS) mean=  3.23767642168849E+00
DEBUG_STATS_RL:               Theta (DYNAMICS) S.D.=  5.85528193383152E+00
DEBUG_STATS_RL:                Salt (DYNAMICS)  min=  3.00000000000000E-02
DEBUG_STATS_RL:                Salt (DYNAMICS)  max=  3.74688428740766E+01
DEBUG_STATS_RL:                Salt (DYNAMICS) mean=  1.88751647508430E+01
DEBUG_STATS_RL:                Salt (DYNAMICS) S.D.=  1.73006499992448E+01
DEBUG_STATS_RL:                  Gu (DYNAMICS)  min= -1.21373311786202E-01
DEBUG_STATS_RL:                  Gu (DYNAMICS)  max=  1.67431506626568E-01
DEBUG_STATS_RL:                  Gu (DYNAMICS) mean= -2.85368880052541E-03
DEBUG_STATS_RL:                  Gu (DYNAMICS) S.D.=  2.82560719986403E-02
DEBUG_STATS_RL:                  Gv (DYNAMICS)  min= -1.34852639799116E-01
DEBUG_STATS_RL:                  Gv (DYNAMICS)  max=  1.24610692246754E-01
DEBUG_STATS_RL:                  Gv (DYNAMICS) mean=  2.15389130654826E-03
DEBUG_STATS_RL:                  Gv (DYNAMICS) S.D.=  1.89837068794922E-02
DEBUG_STATS_RL:               GuNm1 (DYNAMICS)  min= -6.42443981128814E-06
DEBUG_STATS_RL:               GuNm1 (DYNAMICS)  max=  8.25639248964502E-06
DEBUG_STATS_RL:               GuNm1 (DYNAMICS) mean= -2.21727654780699E-08
DEBUG_STATS_RL:               GuNm1 (DYNAMICS) S.D.=  1.12544520258305E-06
DEBUG_STATS_RL:               GvNm1 (DYNAMICS)  min= -9.55126309138081E-06
DEBUG_STATS_RL:               GvNm1 (DYNAMICS)  max=  1.68958324455538E-05
DEBUG_STATS_RL:               GvNm1 (DYNAMICS) mean=  7.69270964020160E-07
DEBUG_STATS_RL:               GvNm1 (DYNAMICS) S.D.=  2.58419230163721E-06
DEBUG_STATS_RL:               GtNm1 (DYNAMICS)  min= -3.21233478731203E-06
DEBUG_STATS_RL:               GtNm1 (DYNAMICS)  max=  4.12585418277153E-06
DEBUG_STATS_RL:               GtNm1 (DYNAMICS) mean=  1.03647070435244E-08
DEBUG_STATS_RL:               GtNm1 (DYNAMICS) S.D.=  2.51922660839053E-07
DEBUG_STATS_RL:               GsNm1 (DYNAMICS)  min= -6.45201519463120E-07
DEBUG_STATS_RL:               GsNm1 (DYNAMICS)  max=  6.66108945384223E-07
DEBUG_STATS_RL:               GsNm1 (DYNAMICS) mean=  1.50881167866542E-11
DEBUG_STATS_RL:               GsNm1 (DYNAMICS) S.D.=  2.21832290965339E-08
DEBUG_STATS_RL:    cg2d_b (SOLVE_FOR_PRESSURE)  min= -1.88674140748930E+04
DEBUG_STATS_RL:    cg2d_b (SOLVE_FOR_PRESSURE)  max=  1.68201349175484E+04
DEBUG_STATS_RL:    cg2d_b (SOLVE_FOR_PRESSURE) mean=  1.16157315150619E+00
DEBUG_STATS_RL:    cg2d_b (SOLVE_FOR_PRESSURE) S.D.=  3.59876080726978E+03
 cg2d: Sum(rhs),rhsMax =   1.42523073647743E-01  1.23926227253853E+00
(PID.TID 0000.0001)  cg2d: iter=     1 ; resid.=  7.40947700539562E-01
(PID.TID 0000.0001)  cg2d: iter=     2 ; resid.=  6.66658483672573E-01
(PID.TID 0000.0001)  cg2d: iter=     3 ; resid.=  5.39176046689236E-01
(PID.TID 0000.0001)  cg2d: iter=     4 ; resid.=  4.55604319540634E-01
(PID.TID 0000.0001)  cg2d: iter=     5 ; resid.=  4.09126374352948E-01
(PID.TID 0000.0001)  cg2d: iter=     6 ; resid.=  3.41249869516254E-01
(PID.TID 0000.0001)  cg2d: iter=     7 ; resid.=  3.03315208441634E-01
(PID.TID 0000.0001)  cg2d: iter=     8 ; resid.=  2.93772188801456E-01
(PID.TID 0000.0001)  cg2d: iter=     9 ; resid.=  2.85381371918719E-01
(PID.TID 0000.0001)  cg2d: iter=    10 ; resid.=  2.56403722594470E-01
(PID.TID 0000.0001)  cg2d: iter=    11 ; resid.=  1.91435041842807E-01
(PID.TID 0000.0001)  cg2d: iter=    12 ; resid.=  1.43530366936868E-01
(PID.TID 0000.0001)  cg2d: iter=    13 ; resid.=  1.06869655671814E-01
(PID.TID 0000.0001)  cg2d: iter=    14 ; resid.=  8.82608915844494E-02
(PID.TID 0000.0001)  cg2d: iter=    15 ; resid.=  6.82045622965967E-02
(PID.TID 0000.0001)  cg2d: iter=    16 ; resid.=  6.42759647493280E-02
(PID.TID 0000.0001)  cg2d: iter=    17 ; resid.=  5.83669946402551E-02
(PID.TID 0000.0001)  cg2d: iter=    18 ; resid.=  4.43564609363675E-02
(PID.TID 0000.0001)  cg2d: iter=    19 ; resid.=  2.93761009758207E-02
(PID.TID 0000.0001)  cg2d: iter=    20 ; resid.=  2.17089949018514E-02
(PID.TID 0000.0001)  cg2d: iter=    21 ; resid.=  1.84626054181457E-02
(PID.TID 0000.0001)  cg2d: iter=    22 ; resid.=  1.66940563255895E-02
(PID.TID 0000.0001)  cg2d: iter=    23 ; resid.=  1.46501557874248E-02
(PID.TID 0000.0001)  cg2d: iter=    24 ; resid.=  1.44956706444746E-02
(PID.TID 0000.0001)  cg2d: iter=    25 ; resid.=  1.13732542651576E-02
(PID.TID 0000.0001)  cg2d: iter=    26 ; resid.=  9.90912796876084E-03
(PID.TID 0000.0001)  cg2d: iter=    27 ; resid.=  8.22071685790330E-03
(PID.TID 0000.0001)  cg2d: iter=    28 ; resid.=  7.07635459644174E-03
(PID.TID 0000.0001)  cg2d: iter=    29 ; resid.=  5.69534418730623E-03
(PID.TID 0000.0001)  cg2d: iter=    30 ; resid.=  5.38611401146506E-03
(PID.TID 0000.0001)  cg2d: iter=    31 ; resid.=  4.85667342707117E-03
(PID.TID 0000.0001)  cg2d: iter=    32 ; resid.=  3.59539854297168E-03
(PID.TID 0000.0001)  cg2d: iter=    33 ; resid.=  3.28342581993066E-03
(PID.TID 0000.0001)  cg2d: iter=    34 ; resid.=  2.68064836485577E-03
(PID.TID 0000.0001)  cg2d: iter=    35 ; resid.=  2.04073174495485E-03
(PID.TID 0000.0001)  cg2d: iter=    36 ; resid.=  1.62544684205376E-03
(PID.TID 0000.0001)  cg2d: iter=    37 ; resid.=  1.31804304986726E-03
(PID.TID 0000.0001)  cg2d: iter=    38 ; resid.=  1.10490118714850E-03
(PID.TID 0000.0001)  cg2d: iter=    39 ; resid.=  9.41508676720977E-04
(PID.TID 0000.0001)  cg2d: iter=    40 ; resid.=  8.25104927057421E-04
(PID.TID 0000.0001)  cg2d: iter=    41 ; resid.=  7.07438567520936E-04
(PID.TID 0000.0001)  cg2d: iter=    42 ; resid.=  6.30339044946524E-04
(PID.TID 0000.0001)  cg2d: iter=    43 ; resid.=  5.17353284969510E-04
(PID.TID 0000.0001)  cg2d: iter=    44 ; resid.=  4.46129295654927E-04
(PID.TID 0000.0001)  cg2d: iter=    45 ; resid.=  3.57440900387202E-04
(PID.TID 0000.0001)  cg2d: iter=    46 ; resid.=  3.20515540344440E-04
(PID.TID 0000.0001)  cg2d: iter=    47 ; resid.=  2.60508773542806E-04
(PID.TID 0000.0001)  cg2d: iter=    48 ; resid.=  1.95578915609781E-04
(PID.TID 0000.0001)  cg2d: iter=    49 ; resid.=  1.45414945465673E-04
(PID.TID 0000.0001)  cg2d: iter=    50 ; resid.=  1.13041852668698E-04
(PID.TID 0000.0001)  cg2d: iter=    51 ; resid.=  8.71623063739467E-05
(PID.TID 0000.0001)  cg2d: iter=    52 ; resid.=  6.55730393955300E-05
(PID.TID 0000.0001)  cg2d: iter=    53 ; resid.=  5.55371803953875E-05
(PID.TID 0000.0001)  cg2d: iter=    54 ; resid.=  4.91688084167814E-05
(PID.TID 0000.0001)  cg2d: iter=    55 ; resid.=  4.23634123822931E-05
(PID.TID 0000.0001)  cg2d: iter=    56 ; resid.=  3.98351898225993E-05
(PID.TID 0000.0001)  cg2d: iter=    57 ; resid.=  3.37855592413102E-05
(PID.TID 0000.0001)  cg2d: iter=    58 ; resid.=  2.71258971421027E-05
(PID.TID 0000.0001)  cg2d: iter=    59 ; resid.=  2.31227457897399E-05
(PID.TID 0000.0001)  cg2d: iter=    60 ; resid.=  1.95668299498326E-05
(PID.TID 0000.0001)  cg2d: iter=    61 ; resid.=  1.61200566832552E-05
(PID.TID 0000.0001)  cg2d: iter=    62 ; resid.=  1.29711307621495E-05
(PID.TID 0000.0001)  cg2d: iter=    63 ; resid.=  1.13504934767712E-05
(PID.TID 0000.0001)  cg2d: iter=    64 ; resid.=  1.01101935196274E-05
(PID.TID 0000.0001)  cg2d: iter=    65 ; resid.=  7.62049911415269E-06
(PID.TID 0000.0001)  cg2d: iter=    66 ; resid.=  5.77245656733923E-06
(PID.TID 0000.0001)  cg2d: iter=    67 ; resid.=  4.79576521294157E-06
(PID.TID 0000.0001)  cg2d: iter=    68 ; resid.=  3.97603875376550E-06
(PID.TID 0000.0001)  cg2d: iter=    69 ; resid.=  3.30546629894401E-06
(PID.TID 0000.0001)  cg2d: iter=    70 ; resid.=  2.82284824865233E-06
(PID.TID 0000.0001)  cg2d: iter=    71 ; resid.=  2.26197276812560E-06
(PID.TID 0000.0001)  cg2d: iter=    72 ; resid.=  1.84450935168132E-06
(PID.TID 0000.0001)  cg2d: iter=    73 ; resid.=  1.47117176586302E-06
(PID.TID 0000.0001)  cg2d: iter=    74 ; resid.=  1.24224213678517E-06
(PID.TID 0000.0001)  cg2d: iter=    75 ; resid.=  9.69913950074810E-07
(PID.TID 0000.0001)  cg2d: iter=    76 ; resid.=  7.91898419593718E-07
(PID.TID 0000.0001)  cg2d: iter=    77 ; resid.=  6.61662632132812E-07
(PID.TID 0000.0001)  cg2d: iter=    78 ; resid.=  5.16306114979788E-07
(PID.TID 0000.0001)  cg2d: iter=    79 ; resid.=  3.86010120439123E-07
(PID.TID 0000.0001)  cg2d: iter=    80 ; resid.=  3.09678760653663E-07
(PID.TID 0000.0001)  cg2d: iter=    81 ; resid.=  2.70591205492935E-07
(PID.TID 0000.0001)  cg2d: iter=    82 ; resid.=  2.01492047920848E-07
(PID.TID 0000.0001)  cg2d: iter=    83 ; resid.=  1.63751209538804E-07
(PID.TID 0000.0001)  cg2d: iter=    84 ; resid.=  1.16135706807617E-07
(PID.TID 0000.0001)  cg2d: iter=    85 ; resid.=  9.16921992653367E-08
(PID.TID 0000.0001)  cg2d: iter=    86 ; resid.=  7.02129834958692E-08
(PID.TID 0000.0001)  cg2d: iter=    87 ; resid.=  5.25625004941154E-08
(PID.TID 0000.0001)  cg2d: iter=    88 ; resid.=  3.95775379766529E-08
(PID.TID 0000.0001)  cg2d: iter=    89 ; resid.=  3.08675592981212E-08
(PID.TID 0000.0001)  cg2d: iter=    90 ; resid.=  2.66172154124860E-08
(PID.TID 0000.0001)  cg2d: iter=    91 ; resid.=  2.11694482246528E-08
(PID.TID 0000.0001)  cg2d: iter=    92 ; resid.=  1.62928675798977E-08
(PID.TID 0000.0001)  cg2d: iter=    93 ; resid.=  1.33937000592247E-08
(PID.TID 0000.0001)  cg2d: iter=    94 ; resid.=  1.17264243504714E-08
(PID.TID 0000.0001)  cg2d: iter=    95 ; resid.=  1.01646525387525E-08
(PID.TID 0000.0001)  cg2d: iter=    96 ; resid.=  8.23452604047850E-09
(PID.TID 0000.0001)  cg2d: iter=    97 ; resid.=  6.04148530945096E-09
(PID.TID 0000.0001)  cg2d: iter=    98 ; resid.=  4.56193989495527E-09
(PID.TID 0000.0001)  cg2d: iter=    99 ; resid.=  3.44816357234919E-09
(PID.TID 0000.0001)  cg2d: iter=   100 ; resid.=  2.94826242254705E-09
(PID.TID 0000.0001)  cg2d: iter=   101 ; resid.=  2.48935530434822E-09
(PID.TID 0000.0001)  cg2d: iter=   102 ; resid.=  2.09718168055292E-09
(PID.TID 0000.0001)  cg2d: iter=   103 ; resid.=  1.70679126123502E-09
(PID.TID 0000.0001)  cg2d: iter=   104 ; resid.=  1.30874532022867E-09
(PID.TID 0000.0001)  cg2d: iter=   105 ; resid.=  1.08029365859260E-09
(PID.TID 0000.0001)  cg2d: iter=   106 ; resid.=  8.55996299920145E-10
(PID.TID 0000.0001)  cg2d: iter=   107 ; resid.=  6.62807880973850E-10
(PID.TID 0000.0001)  cg2d: iter=   108 ; resid.=  5.58683462112177E-10
(PID.TID 0000.0001)  cg2d: iter=   109 ; resid.=  4.40606601722338E-10
(PID.TID 0000.0001)  cg2d: iter=   110 ; resid.=  3.65792241038211E-10
(PID.TID 0000.0001)  cg2d: iter=   111 ; resid.=  2.79214457862337E-10
(PID.TID 0000.0001)  cg2d: iter=   112 ; resid.=  2.01285590735109E-10
(PID.TID 0000.0001)  cg2d: iter=   113 ; resid.=  1.35584280687051E-10
(PID.TID 0000.0001)  cg2d: iter=   114 ; resid.=  9.25610042566914E-11
(PID.TID 0000.0001)  cg2d: iter=   115 ; resid.=  6.47543096435419E-11
(PID.TID 0000.0001)  cg2d: iter=   116 ; resid.=  4.77545893881709E-11
(PID.TID 0000.0001)  cg2d: iter=   117 ; resid.=  3.73931393839988E-11
(PID.TID 0000.0001)  cg2d: iter=   118 ; resid.=  2.86210384539510E-11
(PID.TID 0000.0001)  cg2d: iter=   119 ; resid.=  2.12052916703911E-11
(PID.TID 0000.0001)  cg2d: iter=   120 ; resid.=  1.71547986400588E-11
(PID.TID 0000.0001)  cg2d: iter=   121 ; resid.=  1.46515238617003E-11
(PID.TID 0000.0001)  cg2d: iter=   122 ; resid.=  1.19182281331179E-11
(PID.TID 0000.0001)  cg2d: iter=   123 ; resid.=  9.37530602646182E-12
(PID.TID 0000.0001)  cg2d: iter=   124 ; resid.=  6.83859882850491E-12
(PID.TID 0000.0001)  cg2d: iter=   125 ; resid.=  4.97411812211495E-12
(PID.TID 0000.0001)  cg2d: iter=   126 ; resid.=  3.46951951378674E-12
(PID.TID 0000.0001)  cg2d: iter=   127 ; resid.=  2.28420733246762E-12
(PID.TID 0000.0001)  cg2d: iter=   128 ; resid.=  1.71750723620276E-12
(PID.TID 0000.0001)  cg2d: iter=   129 ; resid.=  1.27007101617344E-12
(PID.TID 0000.0001)  cg2d: iter=   130 ; resid.=  9.55883306906232E-13
(PID.TID 0000.0001)  cg2d: iter=   131 ; resid.=  7.21817655426442E-13
(PID.TID 0000.0001)  cg2d: iter=   132 ; resid.=  5.13900563047900E-13
(PID.TID 0000.0001)  cg2d: iter=   133 ; resid.=  3.84162843032016E-13
(PID.TID 0000.0001)  cg2d: iter=   134 ; resid.=  3.01955691892822E-13
(PID.TID 0000.0001)  cg2d: iter=   135 ; resid.=  2.13841732808708E-13
(PID.TID 0000.0001)  cg2d: iter=   136 ; resid.=  1.54291215262715E-13
(PID.TID 0000.0001)  cg2d: iter=   137 ; resid.=  1.20873025463929E-13
(PID.TID 0000.0001)  cg2d: iter=   138 ; resid.=  9.18247135139567E-14
DEBUG_STATS_RL:    cg2d_x (SOLVE_FOR_PRESSURE)  min= -3.65621956711452E+01
DEBUG_STATS_RL:    cg2d_x (SOLVE_FOR_PRESSURE)  max=  1.42184187430436E+01
DEBUG_STATS_RL:    cg2d_x (SOLVE_FOR_PRESSURE) mean= -1.68701556807628E+00
DEBUG_STATS_RL:    cg2d_x (SOLVE_FOR_PRESSURE) S.D.=  8.12120701779294E+00
(PID.TID 0000.0001)      cg2d_init_res =   8.34347332134285E-01
(PID.TID 0000.0001)      cg2d_iters(min,last) =      -1     138
(PID.TID 0000.0001)      cg2d_last_res =   9.18247135139567E-14
(PID.TID 0000.0001) // =======================================================
(PID.TID 0000.0001) // Begin MONITOR dynamic field statistics
(PID.TID 0000.0001) // =======================================================
(PID.TID 0000.0001) %MON time_tsnumber                =                    17
(PID.TID 0000.0001) %MON time_secondsf                =   1.4688000000000E+06
(PID.TID 0000.0001) %MON dynstat_eta_max              =   1.4493800961308E+00
(PID.TID 0000.0001) %MON dynstat_eta_min              =  -3.7270331978742E+00
(PID.TID 0000.0001) %MON dynstat_eta_mean             =  -1.2119575532815E-03
(PID.TID 0000.0001) %MON dynstat_eta_sd               =   7.0317223306783E-01
(PID.TID 0000.0001) %MON dynstat_eta_del2             =   1.9380716409872E-03
(PID.TID 0000.0001) %MON dynstat_uvel_max             =   1.6953333327161E-01
(PID.TID 0000.0001) %MON dynstat_uvel_min             =  -1.2330051094497E-01
(PID.TID 0000.0001) %MON dynstat_uvel_mean            =  -4.6901669061291E-03
(PID.TID 0000.0001) %MON dynstat_uvel_sd              =   2.3356821496448E-02
(PID.TID 0000.0001) %MON dynstat_uvel_del2            =   1.2364068353151E-04
(PID.TID 0000.0001) %MON dynstat_vvel_max             =   1.3279468647168E-01
(PID.TID 0000.0001) %MON dynstat_vvel_min             =  -1.4379659356560E-01
(PID.TID 0000.0001) %MON dynstat_vvel_mean            =   3.4970402492681E-04
(PID.TID 0000.0001) %MON dynstat_vvel_sd              =   1.2458160158938E-02
(PID.TID 0000.0001) %MON dynstat_vvel_del2            =   1.0945394994935E-04
(PID.TID 0000.0001) %MON dynstat_wvel_max             =   3.4754430647318E-04
(PID.TID 0000.0001) %MON dynstat_wvel_min             =  -3.5834096164780E-04
(PID.TID 0000.0001) %MON dynstat_wvel_mean            =   7.9516577405591E-23
(PID.TID 0000.0001) %MON dynstat_wvel_sd              =   2.8441261382414E-05
(PID.TID 0000.0001) %MON dynstat_wvel_del2            =   3.2011269520872E-07
(PID.TID 0000.0001) %MON dynstat_theta_max            =   2.9847417424697E+01
(PID.TID 0000.0001) %MON dynstat_theta_min            =  -2.0236152576715E+00
(PID.TID 0000.0001) %MON dynstat_theta_mean           =   3.6497604758856E+00
(PID.TID 0000.0001) %MON dynstat_theta_sd             =   4.4154591796593E+00
(PID.TID 0000.0001) %MON dynstat_theta_del2           =   4.9122339588845E-03
(PID.TID 0000.0001) %MON dynstat_salt_max             =   3.7468842874077E+01
(PID.TID 0000.0001) %MON dynstat_salt_min             =   2.9742743792662E+01
(PID.TID 0000.0001) %MON dynstat_salt_mean            =   3.4747950051805E+01
(PID.TID 0000.0001) %MON dynstat_salt_sd              =   2.9625814954596E-01
(PID.TID 0000.0001) %MON dynstat_salt_del2            =   1.0130561002698E-03
(PID.TID 0000.0001) %MON dynstat_sst_max              =   2.9847417424697E+01
(PID.TID 0000.0001) %MON dynstat_sst_min              =  -2.0236152576715E+00
(PID.TID 0000.0001) %MON dynstat_sst_mean             =   1.8693963806058E+01
(PID.TID 0000.0001) %MON dynstat_sst_sd               =   9.0603306571927E+00
(PID.TID 0000.0001) %MON dynstat_sst_del2             =   2.6308017489431E-02
(PID.TID 0000.0001) %MON dynstat_sss_max              =   3.7459369810974E+01
(PID.TID 0000.0001) %MON dynstat_sss_min              =   2.9742743792662E+01
(PID.TID 0000.0001) %MON dynstat_sss_mean             =   3.4884226346614E+01
(PID.TID 0000.0001) %MON dynstat_sss_sd               =   9.7129722023303E-01
(PID.TID 0000.0001) %MON dynstat_sss_del2             =   7.9836098041345E-03
(PID.TID 0000.0001) %MON forcing_qnet_max             =   4.3829453023275E+02
(PID.TID 0000.0001) %MON forcing_qnet_min             =  -1.8026952260335E+02
(PID.TID 0000.0001) %MON forcing_qnet_mean            =  -1.6427616833641E+01
(PID.TID 0000.0001) %MON forcing_qnet_sd              =   1.0879423939526E+02
(PID.TID 0000.0001) %MON forcing_qnet_del2            =   1.0203667350774E+00
(PID.TID 0000.0001) %MON forcing_qsw_max              =   0.0000000000000E+00
(PID.TID 0000.0001) %MON forcing_qsw_min              =   0.0000000000000E+00
(PID.TID 0000.0001) %MON forcing_qsw_mean             =   0.0000000000000E+00
(PID.TID 0000.0001) %MON forcing_qsw_sd               =   0.0000000000000E+00
(PID.TID 0000.0001) %MON forcing_qsw_del2             =   0.0000000000000E+00
(PID.TID 0000.0001) %MON forcing_empmr_max            =   8.1860149236945E-05
(PID.TID 0000.0001) %MON forcing_empmr_min            =  -7.6235600469469E-05
(PID.TID 0000.0001) %MON forcing_empmr_mean           =   9.2361945937058E-07
(PID.TID 0000.0001) %MON forcing_empmr_sd             =   2.8746828928173E-05
(PID.TID 0000.0001) %MON forcing_empmr_del2           =   3.6633793428934E-07
(PID.TID 0000.0001) %MON forcing_fu_max               =   2.7858280539513E-01
(PID.TID 0000.0001) %MON forcing_fu_min               =  -1.6918717175722E-01
(PID.TID 0000.0001) %MON forcing_fu_mean              =   1.6056035368035E-02
(PID.TID 0000.0001) %MON forcing_fu_sd                =   9.0876058187851E-02
(PID.TID 0000.0001) %MON forcing_fu_del2              =   7.1713030175372E-04
(PID.TID 0000.0001) %MON forcing_fv_max               =   2.2991287360589E-01
(PID.TID 0000.0001) %MON forcing_fv_min               =  -1.7714560031891E-01
(PID.TID 0000.0001) %MON forcing_fv_mean              =  -5.3241586462203E-03
(PID.TID 0000.0001) %MON forcing_fv_sd                =   4.7928888739260E-02
(PID.TID 0000.0001) %MON forcing_fv_del2              =   4.9390753513588E-04
(PID.TID 0000.0001) %MON trAdv_CFL_u_max              =   7.9268620766877E-02
(PID.TID 0000.0001) %MON trAdv_CFL_v_max              =   2.7084481552799E-02
(PID.TID 0000.0001) %MON trAdv_CFL_w_max              =   9.7829152810377E-02
(PID.TID 0000.0001) %MON advcfl_uvel_max              =   9.2372586799702E-02
(PID.TID 0000.0001) %MON advcfl_vvel_max              =   2.7937371909702E-02
(PID.TID 0000.0001) %MON advcfl_wvel_max              =   8.4823723524301E-02
(PID.TID 0000.0001) %MON advcfl_W_hf_max              =   9.1060762018735E-02
(PID.TID 0000.0001) %MON pe_b_mean                    =   6.3271177394384E-04
(PID.TID 0000.0001) %MON ke_max                       =   1.3462475282624E-02
(PID.TID 0000.0001) %MON ke_mean                      =   3.2757502390436E-04
(PID.TID 0000.0001) %MON ke_vol                       =   1.3226782436723E+18
(PID.TID 0000.0001) %MON vort_r_min                   =  -7.9118042028067E-07
(PID.TID 0000.0001) %MON vort_r_max                   =   1.1750458974862E-06
(PID.TID 0000.0001) %MON vort_a_mean                  =  -2.5274808030374E-05
(PID.TID 0000.0001) %MON vort_a_sd                    =   7.3603810379071E-05
(PID.TID 0000.0001) %MON vort_p_mean                  =  -3.1845656596940E-05
(PID.TID 0000.0001) %MON vort_p_sd                    =   1.3161983375094E-04
(PID.TID 0000.0001) %MON surfExpan_theta_mean         =  -9.8062887591098E-07
(PID.TID 0000.0001) %MON surfExpan_salt_mean          =   2.1295801629136E-07
(PID.TID 0000.0001) // =======================================================
(PID.TID 0000.0001) // End MONITOR dynamic field statistics
(PID.TID 0000.0001) // =======================================================
 EXTERNAL_FIELDS_LOAD,        17 : iP,iLd,i0,i1=    1    2    1    2 ; Wght=  0.9333333333  0.0666666667
 EXTERNAL_FIELDS_LOAD: (fu0,1),fu,fv= -3.5633E-02 -1.4435E-02 -3.4220E-02 -5.4615E-02
 EXTERNAL_FIELDS_LOAD: SST,SSS,Q,E-P=  8.5907E-01  3.4695E+01  2.6408E+02  1.1419E-05
DEBUG_STATS_RL:          Uvel (THERMODYNAMICS)  min= -1.23300510944973E-01
DEBUG_STATS_RL:          Uvel (THERMODYNAMICS)  max=  1.69533333271615E-01
DEBUG_STATS_RL:          Uvel (THERMODYNAMICS) mean= -2.00690737590978E-03
DEBUG_STATS_RL:          Uvel (THERMODYNAMICS) S.D.=  2.81105771930541E-02
DEBUG_STATS_RL:          Vvel (THERMODYNAMICS)  min= -1.43796593565597E-01
DEBUG_STATS_RL:          Vvel (THERMODYNAMICS)  max=  1.32794686471676E-01
DEBUG_STATS_RL:          Vvel (THERMODYNAMICS) mean=  1.72590392314910E-03
DEBUG_STATS_RL:          Vvel (THERMODYNAMICS) S.D.=  1.79583855432127E-02
DEBUG_STATS_RL:          Wvel (THERMODYNAMICS)  min= -3.58340961647801E-04
DEBUG_STATS_RL:          Wvel (THERMODYNAMICS)  max=  3.47544306473184E-04
DEBUG_STATS_RL:          Wvel (THERMODYNAMICS) mean=  2.63435700260536E-07
DEBUG_STATS_RL:          Wvel (THERMODYNAMICS) S.D.=  2.58441408876265E-05
DEBUG_STATS_RL:         Theta (THERMODYNAMICS)  min= -2.02130067499837E+00
DEBUG_STATS_RL:         Theta (THERMODYNAMICS)  max=  2.98474610879466E+01
DEBUG_STATS_RL:         Theta (THERMODYNAMICS) mean=  3.23794890717324E+00
DEBUG_STATS_RL:         Theta (THERMODYNAMICS) S.D.=  5.85571394404709E+00
DEBUG_STATS_RL:          Salt (THERMODYNAMICS)  min=  3.00000000000000E-02
DEBUG_STATS_RL:          Salt (THERMODYNAMICS)  max=  3.74694585124637E+01
DEBUG_STATS_RL:          Salt (THERMODYNAMICS) mean=  1.88751615037264E+01
DEBUG_STATS_RL:          Salt (THERMODYNAMICS) S.D.=  1.73006474207497E+01
DEBUG_STATS_RL:         GtNm1 (THERMODYNAMICS)  min= -3.29989730467296E-06
DEBUG_STATS_RL:         GtNm1 (THERMODYNAMICS)  max=  3.99761017511518E-06
DEBUG_STATS_RL:         GtNm1 (THERMODYNAMICS) mean=  7.84074895518975E-09
DEBUG_STATS_RL:         GtNm1 (THERMODYNAMICS) S.D.=  2.51367383582374E-07
DEBUG_STATS_RL:         GsNm1 (THERMODYNAMICS)  min= -7.61011261995013E-07
DEBUG_STATS_RL:         GsNm1 (THERMODYNAMICS)  max=  7.38217993312958E-07
DEBUG_STATS_RL:         GsNm1 (THERMODYNAMICS) mean= -7.61935369163759E-11
DEBUG_STATS_RL:         GsNm1 (THERMODYNAMICS) S.D.=  2.26468277530469E-08
DEBUG_STATS_RL:                EtaN (DYNAMICS)  min= -3.72703319787415E+00
DEBUG_STATS_RL:                EtaN (DYNAMICS)  max=  1.44938009613083E+00
DEBUG_STATS_RL:                EtaN (DYNAMICS) mean= -1.71968967184127E-01
DEBUG_STATS_RL:                EtaN (DYNAMICS) S.D.=  8.27849848908555E-01
DEBUG_STATS_RL:                Uvel (DYNAMICS)  min= -1.23300510944973E-01
DEBUG_STATS_RL:                Uvel (DYNAMICS)  max=  1.69533333271615E-01
DEBUG_STATS_RL:                Uvel (DYNAMICS) mean= -2.00690737590978E-03
DEBUG_STATS_RL:                Uvel (DYNAMICS) S.D.=  2.81105771930541E-02
DEBUG_STATS_RL:                Vvel (DYNAMICS)  min= -1.43796593565597E-01
DEBUG_STATS_RL:                Vvel (DYNAMICS)  max=  1.32794686471676E-01
DEBUG_STATS_RL:                Vvel (DYNAMICS) mean=  1.72590392314910E-03
DEBUG_STATS_RL:                Vvel (DYNAMICS) S.D.=  1.79583855432127E-02
DEBUG_STATS_RL:                Wvel (DYNAMICS)  min= -3.58340961647801E-04
DEBUG_STATS_RL:                Wvel (DYNAMICS)  max=  3.47544306473184E-04
DEBUG_STATS_RL:                Wvel (DYNAMICS) mean=  2.63435700260536E-07
DEBUG_STATS_RL:                Wvel (DYNAMICS) S.D.=  2.58441408876265E-05
DEBUG_STATS_RL:               Theta (DYNAMICS)  min= -2.02130067499837E+00
DEBUG_STATS_RL:               Theta (DYNAMICS)  max=  2.98474610879466E+01
DEBUG_STATS_RL:               Theta (DYNAMICS) mean=  3.23794890717324E+00
DEBUG_STATS_RL:               Theta (DYNAMICS) S.D.=  5.85571394404709E+00
DEBUG_STATS_RL:                Salt (DYNAMICS)  min=  3.00000000000000E-02
DEBUG_STATS_RL:                Salt (DYNAMICS)  max=  3.74694585124637E+01
DEBUG_STATS_RL:                Salt (DYNAMICS) mean=  1.88751615037264E+01
DEBUG_STATS_RL:                Salt (DYNAMICS) S.D.=  1.73006474207497E+01
DEBUG_STATS_RL:                  Gu (DYNAMICS)  min= -1.27552371794183E-01
DEBUG_STATS_RL:                  Gu (DYNAMICS)  max=  1.71525703750104E-01
DEBUG_STATS_RL:                  Gu (DYNAMICS) mean= -3.15587681466293E-03
DEBUG_STATS_RL:                  Gu (DYNAMICS) S.D.=  2.79961294117222E-02
DEBUG_STATS_RL:                  Gv (DYNAMICS)  min= -1.35800156043250E-01
DEBUG_STATS_RL:                  Gv (DYNAMICS)  max=  1.31599898226692E-01
DEBUG_STATS_RL:                  Gv (DYNAMICS) mean=  2.91447943507431E-03
DEBUG_STATS_RL:                  Gv (DYNAMICS) S.D.=  1.96054138499838E-02
DEBUG_STATS_RL:               GuNm1 (DYNAMICS)  min= -6.47684965395317E-06
DEBUG_STATS_RL:               GuNm1 (DYNAMICS)  max=  8.17073339839221E-06
DEBUG_STATS_RL:               GuNm1 (DYNAMICS) mean= -1.83064195081034E-08
DEBUG_STATS_RL:               GuNm1 (DYNAMICS) S.D.=  1.13224610654591E-06
DEBUG_STATS_RL:               GvNm1 (DYNAMICS)  min= -8.97625763641104E-06
DEBUG_STATS_RL:               GvNm1 (DYNAMICS)  max=  1.69462684383403E-05
DEBUG_STATS_RL:               GvNm1 (DYNAMICS) mean=  7.70466799185332E-07
DEBUG_STATS_RL:               GvNm1 (DYNAMICS) S.D.=  2.58729628666999E-06
DEBUG_STATS_RL:               GtNm1 (DYNAMICS)  min= -3.29989730467296E-06
DEBUG_STATS_RL:               GtNm1 (DYNAMICS)  max=  3.99761017511518E-06
DEBUG_STATS_RL:               GtNm1 (DYNAMICS) mean=  7.84074895518975E-09
DEBUG_STATS_RL:               GtNm1 (DYNAMICS) S.D.=  2.51367383582374E-07
DEBUG_STATS_RL:               GsNm1 (DYNAMICS)  min= -7.61011261995013E-07
DEBUG_STATS_RL:               GsNm1 (DYNAMICS)  max=  7.38217993312958E-07
DEBUG_STATS_RL:               GsNm1 (DYNAMICS) mean= -7.61935369163759E-11
DEBUG_STATS_RL:               GsNm1 (DYNAMICS) S.D.=  2.26468277530469E-08
DEBUG_STATS_RL:    cg2d_b (SOLVE_FOR_PRESSURE)  min= -1.98589368170624E+04
DEBUG_STATS_RL:    cg2d_b (SOLVE_FOR_PRESSURE)  max=  1.77770555483289E+04
DEBUG_STATS_RL:    cg2d_b (SOLVE_FOR_PRESSURE) mean=  1.23552454698315E+00
DEBUG_STATS_RL:    cg2d_b (SOLVE_FOR_PRESSURE) S.D.=  3.64360867510967E+03
 cg2d: Sum(rhs),rhsMax =   1.44027817431276E-01  1.30438814097270E+00
(PID.TID 0000.0001)  cg2d: iter=     1 ; resid.=  6.92622764494919E-01
(PID.TID 0000.0001)  cg2d: iter=     2 ; resid.=  6.30246885319975E-01
(PID.TID 0000.0001)  cg2d: iter=     3 ; resid.=  5.19831711761417E-01
(PID.TID 0000.0001)  cg2d: iter=     4 ; resid.=  4.59362600008044E-01
(PID.TID 0000.0001)  cg2d: iter=     5 ; resid.=  3.89126785460206E-01
(PID.TID 0000.0001)  cg2d: iter=     6 ; resid.=  3.33637143201512E-01
(PID.TID 0000.0001)  cg2d: iter=     7 ; resid.=  3.17060867526799E-01
(PID.TID 0000.0001)  cg2d: iter=     8 ; resid.=  3.07760098241367E-01
(PID.TID 0000.0001)  cg2d: iter=     9 ; resid.=  2.87640744334522E-01
(PID.TID 0000.0001)  cg2d: iter=    10 ; resid.=  2.60729810934826E-01
(PID.TID 0000.0001)  cg2d: iter=    11 ; resid.=  1.89859075952339E-01
(PID.TID 0000.0001)  cg2d: iter=    12 ; resid.=  1.38926174979090E-01
(PID.TID 0000.0001)  cg2d: iter=    13 ; resid.=  1.01372015425783E-01
(PID.TID 0000.0001)  cg2d: iter=    14 ; resid.=  8.95491464823319E-02
(PID.TID 0000.0001)  cg2d: iter=    15 ; resid.=  7.13027715345441E-02
(PID.TID 0000.0001)  cg2d: iter=    16 ; resid.=  6.57630555889735E-02
(PID.TID 0000.0001)  cg2d: iter=    17 ; resid.=  6.05055389638309E-02
(PID.TID 0000.0001)  cg2d: iter=    18 ; resid.=  4.58129031541639E-02
(PID.TID 0000.0001)  cg2d: iter=    19 ; resid.=  3.10166535303385E-02
(PID.TID 0000.0001)  cg2d: iter=    20 ; resid.=  2.33464435785130E-02
(PID.TID 0000.0001)  cg2d: iter=    21 ; resid.=  1.94737315989012E-02
(PID.TID 0000.0001)  cg2d: iter=    22 ; resid.=  1.77352832635876E-02
(PID.TID 0000.0001)  cg2d: iter=    23 ; resid.=  1.60392670440270E-02
(PID.TID 0000.0001)  cg2d: iter=    24 ; resid.=  1.58741339696994E-02
(PID.TID 0000.0001)  cg2d: iter=    25 ; resid.=  1.18664882686562E-02
(PID.TID 0000.0001)  cg2d: iter=    26 ; resid.=  1.06362299313496E-02
(PID.TID 0000.0001)  cg2d: iter=    27 ; resid.=  9.05914355446697E-03
(PID.TID 0000.0001)  cg2d: iter=    28 ; resid.=  8.05761775284621E-03
(PID.TID 0000.0001)  cg2d: iter=    29 ; resid.=  6.46138472361958E-03
(PID.TID 0000.0001)  cg2d: iter=    30 ; resid.=  6.26600580767647E-03
(PID.TID 0000.0001)  cg2d: iter=    31 ; resid.=  5.44458694211925E-03
(PID.TID 0000.0001)  cg2d: iter=    32 ; resid.=  4.00689118868003E-03
(PID.TID 0000.0001)  cg2d: iter=    33 ; resid.=  3.57786850256287E-03
(PID.TID 0000.0001)  cg2d: iter=    34 ; resid.=  2.94485788061361E-03
(PID.TID 0000.0001)  cg2d: iter=    35 ; resid.=  2.17915391760444E-03
(PID.TID 0000.0001)  cg2d: iter=    36 ; resid.=  1.68179915045211E-03
(PID.TID 0000.0001)  cg2d: iter=    37 ; resid.=  1.31885282565306E-03
(PID.TID 0000.0001)  cg2d: iter=    38 ; resid.=  1.08217919646843E-03
(PID.TID 0000.0001)  cg2d: iter=    39 ; resid.=  9.41156115012960E-04
(PID.TID 0000.0001)  cg2d: iter=    40 ; resid.=  8.37882548856655E-04
(PID.TID 0000.0001)  cg2d: iter=    41 ; resid.=  6.88911794637751E-04
(PID.TID 0000.0001)  cg2d: iter=    42 ; resid.=  5.64349138845314E-04
(PID.TID 0000.0001)  cg2d: iter=    43 ; resid.=  4.36142839666504E-04
(PID.TID 0000.0001)  cg2d: iter=    44 ; resid.=  3.52592181132759E-04
(PID.TID 0000.0001)  cg2d: iter=    45 ; resid.=  2.74168595744235E-04
(PID.TID 0000.0001)  cg2d: iter=    46 ; resid.=  2.47882837977443E-04
(PID.TID 0000.0001)  cg2d: iter=    47 ; resid.=  2.12848313204000E-04
(PID.TID 0000.0001)  cg2d: iter=    48 ; resid.=  1.61036663071014E-04
(PID.TID 0000.0001)  cg2d: iter=    49 ; resid.=  1.28188066459997E-04
(PID.TID 0000.0001)  cg2d: iter=    50 ; resid.=  1.08579298904200E-04
(PID.TID 0000.0001)  cg2d: iter=    51 ; resid.=  8.94863576639267E-05
(PID.TID 0000.0001)  cg2d: iter=    52 ; resid.=  7.22967598258949E-05
(PID.TID 0000.0001)  cg2d: iter=    53 ; resid.=  6.44516439146134E-05
(PID.TID 0000.0001)  cg2d: iter=    54 ; resid.=  5.84570214024131E-05
(PID.TID 0000.0001)  cg2d: iter=    55 ; resid.=  5.06993745361052E-05
(PID.TID 0000.0001)  cg2d: iter=    56 ; resid.=  4.57141134763409E-05
(PID.TID 0000.0001)  cg2d: iter=    57 ; resid.=  3.68141647425663E-05
(PID.TID 0000.0001)  cg2d: iter=    58 ; resid.=  2.81389900561735E-05
(PID.TID 0000.0001)  cg2d: iter=    59 ; resid.=  2.30662071027631E-05
(PID.TID 0000.0001)  cg2d: iter=    60 ; resid.=  1.91944081370191E-05
(PID.TID 0000.0001)  cg2d: iter=    61 ; resid.=  1.59174669242500E-05
(PID.TID 0000.0001)  cg2d: iter=    62 ; resid.=  1.29683487922804E-05
(PID.TID 0000.0001)  cg2d: iter=    63 ; resid.=  1.10977119743746E-05
(PID.TID 0000.0001)  cg2d: iter=    64 ; resid.=  9.27981976873836E-06
(PID.TID 0000.0001)  cg2d: iter=    65 ; resid.=  7.06719533009121E-06
(PID.TID 0000.0001)  cg2d: iter=    66 ; resid.=  5.36237477739802E-06
(PID.TID 0000.0001)  cg2d: iter=    67 ; resid.=  4.32949439327907E-06
(PID.TID 0000.0001)  cg2d: iter=    68 ; resid.=  3.44095562046469E-06
(PID.TID 0000.0001)  cg2d: iter=    69 ; resid.=  2.77490379871488E-06
(PID.TID 0000.0001)  cg2d: iter=    70 ; resid.=  2.16613078973620E-06
(PID.TID 0000.0001)  cg2d: iter=    71 ; resid.=  1.61083260776749E-06
(PID.TID 0000.0001)  cg2d: iter=    72 ; resid.=  1.28986633591009E-06
(PID.TID 0000.0001)  cg2d: iter=    73 ; resid.=  1.02859823313095E-06
(PID.TID 0000.0001)  cg2d: iter=    74 ; resid.=  8.85397901163177E-07
(PID.TID 0000.0001)  cg2d: iter=    75 ; resid.=  7.14687591134774E-07
(PID.TID 0000.0001)  cg2d: iter=    76 ; resid.=  5.94669565125190E-07
(PID.TID 0000.0001)  cg2d: iter=    77 ; resid.=  5.12459458628187E-07
(PID.TID 0000.0001)  cg2d: iter=    78 ; resid.=  4.24141519296780E-07
(PID.TID 0000.0001)  cg2d: iter=    79 ; resid.=  3.38854027844112E-07
(PID.TID 0000.0001)  cg2d: iter=    80 ; resid.=  2.71843168393104E-07
(PID.TID 0000.0001)  cg2d: iter=    81 ; resid.=  2.43344928165669E-07
(PID.TID 0000.0001)  cg2d: iter=    82 ; resid.=  1.87141490895431E-07
(PID.TID 0000.0001)  cg2d: iter=    83 ; resid.=  1.48894805943230E-07
(PID.TID 0000.0001)  cg2d: iter=    84 ; resid.=  1.08697482074222E-07
(PID.TID 0000.0001)  cg2d: iter=    85 ; resid.=  8.93557001036603E-08
(PID.TID 0000.0001)  cg2d: iter=    86 ; resid.=  7.34693526247252E-08
(PID.TID 0000.0001)  cg2d: iter=    87 ; resid.=  5.89587835470256E-08
(PID.TID 0000.0001)  cg2d: iter=    88 ; resid.=  4.52064246161227E-08
(PID.TID 0000.0001)  cg2d: iter=    89 ; resid.=  3.63796519479846E-08
(PID.TID 0000.0001)  cg2d: iter=    90 ; resid.=  2.97034327495247E-08
(PID.TID 0000.0001)  cg2d: iter=    91 ; resid.=  2.37429481442680E-08
(PID.TID 0000.0001)  cg2d: iter=    92 ; resid.=  1.71051927482133E-08
(PID.TID 0000.0001)  cg2d: iter=    93 ; resid.=  1.23874179746409E-08
(PID.TID 0000.0001)  cg2d: iter=    94 ; resid.=  1.02091552582880E-08
(PID.TID 0000.0001)  cg2d: iter=    95 ; resid.=  8.23081172532404E-09
(PID.TID 0000.0001)  cg2d: iter=    96 ; resid.=  6.21039782977358E-09
(PID.TID 0000.0001)  cg2d: iter=    97 ; resid.=  4.28755303059128E-09
(PID.TID 0000.0001)  cg2d: iter=    98 ; resid.=  3.05335210234039E-09
(PID.TID 0000.0001)  cg2d: iter=    99 ; resid.=  2.17395837300143E-09
(PID.TID 0000.0001)  cg2d: iter=   100 ; resid.=  1.68757403428638E-09
(PID.TID 0000.0001)  cg2d: iter=   101 ; resid.=  1.33746493981172E-09
(PID.TID 0000.0001)  cg2d: iter=   102 ; resid.=  1.07336413455435E-09
(PID.TID 0000.0001)  cg2d: iter=   103 ; resid.=  8.38556275812379E-10
(PID.TID 0000.0001)  cg2d: iter=   104 ; resid.=  6.19292997933474E-10
(PID.TID 0000.0001)  cg2d: iter=   105 ; resid.=  5.04512691661961E-10
(PID.TID 0000.0001)  cg2d: iter=   106 ; resid.=  4.17318362931686E-10
(PID.TID 0000.0001)  cg2d: iter=   107 ; resid.=  3.21940570389943E-10
(PID.TID 0000.0001)  cg2d: iter=   108 ; resid.=  2.74226628133502E-10
(PID.TID 0000.0001)  cg2d: iter=   109 ; resid.=  2.27224855605229E-10
(PID.TID 0000.0001)  cg2d: iter=   110 ; resid.=  2.01617536068061E-10
(PID.TID 0000.0001)  cg2d: iter=   111 ; resid.=  1.76259152350402E-10
(PID.TID 0000.0001)  cg2d: iter=   112 ; resid.=  1.39146376598231E-10
(PID.TID 0000.0001)  cg2d: iter=   113 ; resid.=  1.03607206851956E-10
(PID.TID 0000.0001)  cg2d: iter=   114 ; resid.=  7.63588787735163E-11
(PID.TID 0000.0001)  cg2d: iter=   115 ; resid.=  5.67249903014066E-11
(PID.TID 0000.0001)  cg2d: iter=   116 ; resid.=  4.49047570378660E-11
(PID.TID 0000.0001)  cg2d: iter=   117 ; resid.=  3.97717697933412E-11
(PID.TID 0000.0001)  cg2d: iter=   118 ; resid.=  3.43579011323246E-11
(PID.TID 0000.0001)  cg2d: iter=   119 ; resid.=  2.70681799040653E-11
(PID.TID 0000.0001)  cg2d: iter=   120 ; resid.=  2.27812169349201E-11
(PID.TID 0000.0001)  cg2d: iter=   121 ; resid.=  1.94832680516423E-11
(PID.TID 0000.0001)  cg2d: iter=   122 ; resid.=  1.44628021712123E-11
(PID.TID 0000.0001)  cg2d: iter=   123 ; resid.=  1.04344738101908E-11
(PID.TID 0000.0001)  cg2d: iter=   124 ; resid.=  7.21676437906738E-12
(PID.TID 0000.0001)  cg2d: iter=   125 ; resid.=  4.97163706048808E-12
(PID.TID 0000.0001)  cg2d: iter=   126 ; resid.=  3.44100225973383E-12
(PID.TID 0000.0001)  cg2d: iter=   127 ; resid.=  2.29254121858794E-12
(PID.TID 0000.0001)  cg2d: iter=   128 ; resid.=  1.74129131801823E-12
(PID.TID 0000.0001)  cg2d: iter=   129 ; resid.=  1.30983467964078E-12
(PID.TID 0000.0001)  cg2d: iter=   130 ; resid.=  9.92466232789069E-13
(PID.TID 0000.0001)  cg2d: iter=   131 ; resid.=  7.38318921205380E-13
(PID.TID 0000.0001)  cg2d: iter=   132 ; resid.=  5.11142863521827E-13
(PID.TID 0000.0001)  cg2d: iter=   133 ; resid.=  3.81468783782447E-13
(PID.TID 0000.0001)  cg2d: iter=   134 ; resid.=  3.09407016734906E-13
(PID.TID 0000.0001)  cg2d: iter=   135 ; resid.=  2.22027184728375E-13
(PID.TID 0000.0001)  cg2d: iter=   136 ; resid.=  1.58057900453332E-13
(PID.TID 0000.0001)  cg2d: iter=   137 ; resid.=  1.24125041288068E-13
(PID.TID 0000.0001)  cg2d: iter=   138 ; resid.=  9.66055050019893E-14
DEBUG_STATS_RL:    cg2d_x (SOLVE_FOR_PRESSURE)  min= -2.98651514392907E+01
DEBUG_STATS_RL:    cg2d_x (SOLVE_FOR_PRESSURE)  max=  1.46698056076809E+01
DEBUG_STATS_RL:    cg2d_x (SOLVE_FOR_PRESSURE) mean= -1.58289636166459E+00
DEBUG_STATS_RL:    cg2d_x (SOLVE_FOR_PRESSURE) S.D.=  7.51005717254929E+00
(PID.TID 0000.0001)      cg2d_init_res =   7.86397612636635E-01
(PID.TID 0000.0001)      cg2d_iters(min,last) =      -1     138
(PID.TID 0000.0001)      cg2d_last_res =   9.66055050019893E-14
(PID.TID 0000.0001) // =======================================================
(PID.TID 0000.0001) // Begin MONITOR dynamic field statistics
(PID.TID 0000.0001) // =======================================================
(PID.TID 0000.0001) %MON time_tsnumber                =                    18
(PID.TID 0000.0001) %MON time_secondsf                =   1.5552000000000E+06
(PID.TID 0000.0001) %MON dynstat_eta_max              =   1.4953930283059E+00
(PID.TID 0000.0001) %MON dynstat_eta_min              =  -3.0443579448818E+00
(PID.TID 0000.0001) %MON dynstat_eta_mean             =  -1.2891166647913E-03
(PID.TID 0000.0001) %MON dynstat_eta_sd               =   6.7727747132634E-01
(PID.TID 0000.0001) %MON dynstat_eta_del2             =   1.9417603598972E-03
(PID.TID 0000.0001) %MON dynstat_uvel_max             =   1.7252851712224E-01
(PID.TID 0000.0001) %MON dynstat_uvel_min             =  -1.2364605707368E-01
(PID.TID 0000.0001) %MON dynstat_uvel_mean            =  -5.0506768623466E-03
(PID.TID 0000.0001) %MON dynstat_uvel_sd              =   2.3208210333929E-02
(PID.TID 0000.0001) %MON dynstat_uvel_del2            =   1.2149201103216E-04
(PID.TID 0000.0001) %MON dynstat_vvel_max             =   1.3525390697829E-01
(PID.TID 0000.0001) %MON dynstat_vvel_min             =  -1.5053634899514E-01
(PID.TID 0000.0001) %MON dynstat_vvel_mean            =   7.2616518936984E-04
(PID.TID 0000.0001) %MON dynstat_vvel_sd              =   1.2603657283192E-02
(PID.TID 0000.0001) %MON dynstat_vvel_del2            =   1.1036178073820E-04
(PID.TID 0000.0001) %MON dynstat_wvel_max             =   3.0931191244529E-04
(PID.TID 0000.0001) %MON dynstat_wvel_min             =  -3.2160791321733E-04
(PID.TID 0000.0001) %MON dynstat_wvel_mean            =   2.9806531286815E-23
(PID.TID 0000.0001) %MON dynstat_wvel_sd              =   2.8160767752134E-05
(PID.TID 0000.0001) %MON dynstat_wvel_del2            =   3.1501721119204E-07
(PID.TID 0000.0001) %MON dynstat_theta_max            =   2.9847461087947E+01
(PID.TID 0000.0001) %MON dynstat_theta_min            =  -2.0213006749984E+00
(PID.TID 0000.0001) %MON dynstat_theta_mean           =   3.6498640698155E+00
(PID.TID 0000.0001) %MON dynstat_theta_sd             =   4.4155887371195E+00
(PID.TID 0000.0001) %MON dynstat_theta_del2           =   4.9023754632324E-03
(PID.TID 0000.0001) %MON dynstat_salt_max             =   3.7469458512464E+01
(PID.TID 0000.0001) %MON dynstat_salt_min             =   2.9749305352138E+01
(PID.TID 0000.0001) %MON dynstat_salt_mean            =   3.4747946078226E+01
(PID.TID 0000.0001) %MON dynstat_salt_sd              =   2.9625713980133E-01
(PID.TID 0000.0001) %MON dynstat_salt_del2            =   1.0130278312782E-03
(PID.TID 0000.0001) %MON dynstat_sst_max              =   2.9847461087947E+01
(PID.TID 0000.0001) %MON dynstat_sst_min              =  -2.0213006749984E+00
(PID.TID 0000.0001) %MON dynstat_sst_mean             =   1.8700073712286E+01
(PID.TID 0000.0001) %MON dynstat_sst_sd               =   9.0596029398684E+00
(PID.TID 0000.0001) %MON dynstat_sst_del2             =   2.6336806889307E-02
(PID.TID 0000.0001) %MON dynstat_sss_max              =   3.7459397500958E+01
(PID.TID 0000.0001) %MON dynstat_sss_min              =   2.9749305352138E+01
(PID.TID 0000.0001) %MON dynstat_sss_mean             =   3.4883847902586E+01
(PID.TID 0000.0001) %MON dynstat_sss_sd               =   9.7170432223664E-01
(PID.TID 0000.0001) %MON dynstat_sss_del2             =   7.9829548869849E-03
(PID.TID 0000.0001) %MON forcing_qnet_max             =   4.3497544352214E+02
(PID.TID 0000.0001) %MON forcing_qnet_min             =  -1.7954050801595E+02
(PID.TID 0000.0001) %MON forcing_qnet_mean            =  -1.6342707666237E+01
(PID.TID 0000.0001) %MON forcing_qnet_sd              =   1.0771909522073E+02
(PID.TID 0000.0001) %MON forcing_qnet_del2            =   1.0162694266512E+00
(PID.TID 0000.0001) %MON forcing_qsw_max              =   0.0000000000000E+00
(PID.TID 0000.0001) %MON forcing_qsw_min              =   0.0000000000000E+00
(PID.TID 0000.0001) %MON forcing_qsw_mean             =   0.0000000000000E+00
(PID.TID 0000.0001) %MON forcing_qsw_sd               =   0.0000000000000E+00
(PID.TID 0000.0001) %MON forcing_qsw_del2             =   0.0000000000000E+00
(PID.TID 0000.0001) %MON forcing_empmr_max            =   8.1546059504944E-05
(PID.TID 0000.0001) %MON forcing_empmr_min            =  -7.6315244731025E-05
(PID.TID 0000.0001) %MON forcing_empmr_mean           =   9.2430185663055E-07
(PID.TID 0000.0001) %MON forcing_empmr_sd             =   2.8695327910656E-05
(PID.TID 0000.0001) %MON forcing_empmr_del2           =   3.6515496809023E-07
(PID.TID 0000.0001) %MON forcing_fu_max               =   2.7838672995567E-01
(PID.TID 0000.0001) %MON forcing_fu_min               =  -1.6925448477268E-01
(PID.TID 0000.0001) %MON forcing_fu_mean              =   1.6110335583504E-02
(PID.TID 0000.0001) %MON forcing_fu_sd                =   9.0706822910468E-02
(PID.TID 0000.0001) %MON forcing_fu_del2              =   7.0993529997620E-04
(PID.TID 0000.0001) %MON forcing_fv_max               =   2.2670442660650E-01
(PID.TID 0000.0001) %MON forcing_fv_min               =  -1.7615430057049E-01
(PID.TID 0000.0001) %MON forcing_fv_mean              =  -5.3894195529355E-03
(PID.TID 0000.0001) %MON forcing_fv_sd                =   4.7622093142011E-02
(PID.TID 0000.0001) %MON forcing_fv_del2              =   4.8876213669100E-04
(PID.TID 0000.0001) %MON trAdv_CFL_u_max              =   9.2391348332741E-02
(PID.TID 0000.0001) %MON trAdv_CFL_v_max              =   2.7338051439263E-02
(PID.TID 0000.0001) %MON trAdv_CFL_w_max              =   9.1060762018735E-02
(PID.TID 0000.0001) %MON advcfl_uvel_max              =   9.8344103624174E-02
(PID.TID 0000.0001) %MON advcfl_vvel_max              =   2.9246798296981E-02
(PID.TID 0000.0001) %MON advcfl_wvel_max              =   7.6955387974122E-02
(PID.TID 0000.0001) %MON advcfl_W_hf_max              =   9.0177620917625E-02
(PID.TID 0000.0001) %MON pe_b_mean                    =   5.8697017275223E-04
(PID.TID 0000.0001) %MON ke_max                       =   1.4516140909095E-02
(PID.TID 0000.0001) %MON ke_mean                      =   3.2784540203775E-04
(PID.TID 0000.0001) %MON ke_vol                       =   1.3226782436723E+18
(PID.TID 0000.0001) %MON vort_r_min                   =  -8.7662916653492E-07
(PID.TID 0000.0001) %MON vort_r_max                   =   1.0760116110480E-06
(PID.TID 0000.0001) %MON vort_a_mean                  =  -2.5274807990673E-05
(PID.TID 0000.0001) %MON vort_a_sd                    =   7.3603700085205E-05
(PID.TID 0000.0001) %MON vort_p_mean                  =  -3.1845656546918E-05
(PID.TID 0000.0001) %MON vort_p_sd                    =   1.3162047506949E-04
(PID.TID 0000.0001) %MON surfExpan_theta_mean         =  -4.0355698156012E-07
(PID.TID 0000.0001) %MON surfExpan_salt_mean          =   2.3428264402615E-07
(PID.TID 0000.0001) // =======================================================
(PID.TID 0000.0001) // End MONITOR dynamic field statistics
(PID.TID 0000.0001) // =======================================================
 EXTERNAL_FIELDS_LOAD,        18 : iP,iLd,i0,i1=    1    2    1    2 ; Wght=  0.9000000000  0.1000000000
 EXTERNAL_FIELDS_LOAD: (fu0,1),fu,fv= -3.5633E-02 -1.4435E-02 -3.3513E-02 -5.3295E-02
 EXTERNAL_FIELDS_LOAD: SST,SSS,Q,E-P=  8.0940E-01  3.4685E+01  2.6324E+02  1.1311E-05
DEBUG_STATS_RL:          Uvel (THERMODYNAMICS)  min= -1.23646057073679E-01
DEBUG_STATS_RL:          Uvel (THERMODYNAMICS)  max=  1.72528517122236E-01
DEBUG_STATS_RL:          Uvel (THERMODYNAMICS) mean= -2.43984348690129E-03
DEBUG_STATS_RL:          Uvel (THERMODYNAMICS) S.D.=  2.76896202410080E-02
DEBUG_STATS_RL:          Vvel (THERMODYNAMICS)  min= -1.50536348995139E-01
DEBUG_STATS_RL:          Vvel (THERMODYNAMICS)  max=  1.35253906978287E-01
DEBUG_STATS_RL:          Vvel (THERMODYNAMICS) mean=  2.26478271943743E-03
DEBUG_STATS_RL:          Vvel (THERMODYNAMICS) S.D.=  1.83992151101391E-02
DEBUG_STATS_RL:          Wvel (THERMODYNAMICS)  min= -3.21607913217331E-04
DEBUG_STATS_RL:          Wvel (THERMODYNAMICS)  max=  3.09311912445293E-04
DEBUG_STATS_RL:          Wvel (THERMODYNAMICS) mean=  3.05519079997738E-07
DEBUG_STATS_RL:          Wvel (THERMODYNAMICS) S.D.=  2.55446744361663E-05
DEBUG_STATS_RL:         Theta (THERMODYNAMICS)  min= -2.01834454208119E+00
DEBUG_STATS_RL:         Theta (THERMODYNAMICS)  max=  2.98511381807451E+01
DEBUG_STATS_RL:         Theta (THERMODYNAMICS) mean=  3.23812885765742E+00
DEBUG_STATS_RL:         Theta (THERMODYNAMICS) S.D.=  5.85606069467378E+00
DEBUG_STATS_RL:          Salt (THERMODYNAMICS)  min=  3.00000000000000E-02
DEBUG_STATS_RL:          Salt (THERMODYNAMICS)  max=  3.74700464928061E+01
DEBUG_STATS_RL:          Salt (THERMODYNAMICS) mean=  1.88751539313097E+01
DEBUG_STATS_RL:          Salt (THERMODYNAMICS) S.D.=  1.73006404760766E+01
DEBUG_STATS_RL:         GtNm1 (THERMODYNAMICS)  min= -3.35927570894998E-06
DEBUG_STATS_RL:         GtNm1 (THERMODYNAMICS)  max=  3.95524832671181E-06
DEBUG_STATS_RL:         GtNm1 (THERMODYNAMICS) mean=  5.63970471288365E-09
DEBUG_STATS_RL:         GtNm1 (THERMODYNAMICS) S.D.=  2.50856130364133E-07
DEBUG_STATS_RL:         GsNm1 (THERMODYNAMICS)  min= -8.03979177484206E-07
DEBUG_STATS_RL:         GsNm1 (THERMODYNAMICS)  max=  7.60789231928673E-07
DEBUG_STATS_RL:         GsNm1 (THERMODYNAMICS) mean= -1.72453531009562E-10
DEBUG_STATS_RL:         GsNm1 (THERMODYNAMICS) S.D.=  2.30986274400669E-08
DEBUG_STATS_RL:                EtaN (DYNAMICS)  min= -3.04435794488183E+00
DEBUG_STATS_RL:                EtaN (DYNAMICS)  max=  1.49539302830592E+00
DEBUG_STATS_RL:                EtaN (DYNAMICS) mean= -1.61355388548888E-01
DEBUG_STATS_RL:                EtaN (DYNAMICS) S.D.=  7.65551189862311E-01
DEBUG_STATS_RL:                Uvel (DYNAMICS)  min= -1.23646057073679E-01
DEBUG_STATS_RL:                Uvel (DYNAMICS)  max=  1.72528517122236E-01
DEBUG_STATS_RL:                Uvel (DYNAMICS) mean= -2.43984348690129E-03
DEBUG_STATS_RL:                Uvel (DYNAMICS) S.D.=  2.76896202410080E-02
DEBUG_STATS_RL:                Vvel (DYNAMICS)  min= -1.50536348995139E-01
DEBUG_STATS_RL:                Vvel (DYNAMICS)  max=  1.35253906978287E-01
DEBUG_STATS_RL:                Vvel (DYNAMICS) mean=  2.26478271943743E-03
DEBUG_STATS_RL:                Vvel (DYNAMICS) S.D.=  1.83992151101391E-02
DEBUG_STATS_RL:                Wvel (DYNAMICS)  min= -3.21607913217331E-04
DEBUG_STATS_RL:                Wvel (DYNAMICS)  max=  3.09311912445293E-04
DEBUG_STATS_RL:                Wvel (DYNAMICS) mean=  3.05519079997738E-07
DEBUG_STATS_RL:                Wvel (DYNAMICS) S.D.=  2.55446744361663E-05
DEBUG_STATS_RL:               Theta (DYNAMICS)  min= -2.01834454208119E+00
DEBUG_STATS_RL:               Theta (DYNAMICS)  max=  2.98511381807451E+01
DEBUG_STATS_RL:               Theta (DYNAMICS) mean=  3.23812885765742E+00
DEBUG_STATS_RL:               Theta (DYNAMICS) S.D.=  5.85606069467378E+00
DEBUG_STATS_RL:                Salt (DYNAMICS)  min=  3.00000000000000E-02
DEBUG_STATS_RL:                Salt (DYNAMICS)  max=  3.74700464928061E+01
DEBUG_STATS_RL:                Salt (DYNAMICS) mean=  1.88751539313097E+01
DEBUG_STATS_RL:                Salt (DYNAMICS) S.D.=  1.73006404760766E+01
DEBUG_STATS_RL:                  Gu (DYNAMICS)  min= -1.33901143952732E-01
DEBUG_STATS_RL:                  Gu (DYNAMICS)  max=  1.73313627382213E-01
DEBUG_STATS_RL:                  Gu (DYNAMICS) mean= -3.18130735333142E-03
DEBUG_STATS_RL:                  Gu (DYNAMICS) S.D.=  2.75131481825492E-02
DEBUG_STATS_RL:                  Gv (DYNAMICS)  min= -1.37763276624693E-01
DEBUG_STATS_RL:                  Gv (DYNAMICS)  max=  1.39865721476000E-01
DEBUG_STATS_RL:                  Gv (DYNAMICS) mean=  3.57389397278030E-03
DEBUG_STATS_RL:                  Gv (DYNAMICS) S.D.=  2.01517269444737E-02
DEBUG_STATS_RL:               GuNm1 (DYNAMICS)  min= -6.52889755446681E-06
DEBUG_STATS_RL:               GuNm1 (DYNAMICS)  max=  8.04687327201457E-06
DEBUG_STATS_RL:               GuNm1 (DYNAMICS) mean= -1.46055368586467E-08
DEBUG_STATS_RL:               GuNm1 (DYNAMICS) S.D.=  1.14081188983579E-06
DEBUG_STATS_RL:               GvNm1 (DYNAMICS)  min= -8.46970832397894E-06
DEBUG_STATS_RL:               GvNm1 (DYNAMICS)  max=  1.69869253923517E-05
DEBUG_STATS_RL:               GvNm1 (DYNAMICS) mean=  7.71989454191560E-07
DEBUG_STATS_RL:               GvNm1 (DYNAMICS) S.D.=  2.59176277469880E-06
DEBUG_STATS_RL:               GtNm1 (DYNAMICS)  min= -3.35927570894998E-06
DEBUG_STATS_RL:               GtNm1 (DYNAMICS)  max=  3.95524832671181E-06
DEBUG_STATS_RL:               GtNm1 (DYNAMICS) mean=  5.63970471288365E-09
DEBUG_STATS_RL:               GtNm1 (DYNAMICS) S.D.=  2.50856130364133E-07
DEBUG_STATS_RL:               GsNm1 (DYNAMICS)  min= -8.03979177484206E-07
DEBUG_STATS_RL:               GsNm1 (DYNAMICS)  max=  7.60789231928673E-07
DEBUG_STATS_RL:               GsNm1 (DYNAMICS) mean= -1.72453531009562E-10
DEBUG_STATS_RL:               GsNm1 (DYNAMICS) S.D.=  2.30986274400669E-08
DEBUG_STATS_RL:    cg2d_b (SOLVE_FOR_PRESSURE)  min= -2.11209752545423E+04
DEBUG_STATS_RL:    cg2d_b (SOLVE_FOR_PRESSURE)  max=  1.86676597664949E+04
DEBUG_STATS_RL:    cg2d_b (SOLVE_FOR_PRESSURE) mean=  1.30953053959173E+00
DEBUG_STATS_RL:    cg2d_b (SOLVE_FOR_PRESSURE) S.D.=  3.69684677103864E+03
 cg2d: Sum(rhs),rhsMax =   1.43533296290505E-01  1.38728220456054E+00
(PID.TID 0000.0001)  cg2d: iter=     1 ; resid.=  6.51626334118014E-01
(PID.TID 0000.0001)  cg2d: iter=     2 ; resid.=  5.92329309133232E-01
(PID.TID 0000.0001)  cg2d: iter=     3 ; resid.=  5.14094148662092E-01
(PID.TID 0000.0001)  cg2d: iter=     4 ; resid.=  4.88063759291994E-01
(PID.TID 0000.0001)  cg2d: iter=     5 ; resid.=  3.86421210437851E-01
(PID.TID 0000.0001)  cg2d: iter=     6 ; resid.=  3.31967685076567E-01
(PID.TID 0000.0001)  cg2d: iter=     7 ; resid.=  3.35687826900027E-01
(PID.TID 0000.0001)  cg2d: iter=     8 ; resid.=  3.16459614145050E-01
(PID.TID 0000.0001)  cg2d: iter=     9 ; resid.=  2.72307641506190E-01
(PID.TID 0000.0001)  cg2d: iter=    10 ; resid.=  2.42279184702596E-01
(PID.TID 0000.0001)  cg2d: iter=    11 ; resid.=  1.72652163277109E-01
(PID.TID 0000.0001)  cg2d: iter=    12 ; resid.=  1.24208544874975E-01
(PID.TID 0000.0001)  cg2d: iter=    13 ; resid.=  9.18481444918920E-02
(PID.TID 0000.0001)  cg2d: iter=    14 ; resid.=  8.72685550329694E-02
(PID.TID 0000.0001)  cg2d: iter=    15 ; resid.=  7.21370656448407E-02
(PID.TID 0000.0001)  cg2d: iter=    16 ; resid.=  6.62855644072018E-02
(PID.TID 0000.0001)  cg2d: iter=    17 ; resid.=  6.02451947906183E-02
(PID.TID 0000.0001)  cg2d: iter=    18 ; resid.=  4.55685974745423E-02
(PID.TID 0000.0001)  cg2d: iter=    19 ; resid.=  3.32430488613553E-02
(PID.TID 0000.0001)  cg2d: iter=    20 ; resid.=  2.71397492136515E-02
(PID.TID 0000.0001)  cg2d: iter=    21 ; resid.=  2.27192260965333E-02
(PID.TID 0000.0001)  cg2d: iter=    22 ; resid.=  2.07111931038040E-02
(PID.TID 0000.0001)  cg2d: iter=    23 ; resid.=  1.93774620441415E-02
(PID.TID 0000.0001)  cg2d: iter=    24 ; resid.=  1.80612418113073E-02
(PID.TID 0000.0001)  cg2d: iter=    25 ; resid.=  1.27479140247072E-02
(PID.TID 0000.0001)  cg2d: iter=    26 ; resid.=  1.12162387371043E-02
(PID.TID 0000.0001)  cg2d: iter=    27 ; resid.=  9.37401316346849E-03
(PID.TID 0000.0001)  cg2d: iter=    28 ; resid.=  8.27009661140244E-03
(PID.TID 0000.0001)  cg2d: iter=    29 ; resid.=  6.36977105123155E-03
(PID.TID 0000.0001)  cg2d: iter=    30 ; resid.=  6.02442160760301E-03
(PID.TID 0000.0001)  cg2d: iter=    31 ; resid.=  5.04760145537091E-03
(PID.TID 0000.0001)  cg2d: iter=    32 ; resid.=  3.89013339651088E-03
(PID.TID 0000.0001)  cg2d: iter=    33 ; resid.=  3.49618731384817E-03
(PID.TID 0000.0001)  cg2d: iter=    34 ; resid.=  2.92260822831386E-03
(PID.TID 0000.0001)  cg2d: iter=    35 ; resid.=  2.23425700793373E-03
(PID.TID 0000.0001)  cg2d: iter=    36 ; resid.=  1.77618040648213E-03
(PID.TID 0000.0001)  cg2d: iter=    37 ; resid.=  1.45262596389735E-03
(PID.TID 0000.0001)  cg2d: iter=    38 ; resid.=  1.27135868251754E-03
(PID.TID 0000.0001)  cg2d: iter=    39 ; resid.=  1.18966916959900E-03
(PID.TID 0000.0001)  cg2d: iter=    40 ; resid.=  1.05198234001474E-03
(PID.TID 0000.0001)  cg2d: iter=    41 ; resid.=  8.11033800395712E-04
(PID.TID 0000.0001)  cg2d: iter=    42 ; resid.=  6.34277103780165E-04
(PID.TID 0000.0001)  cg2d: iter=    43 ; resid.=  4.78527284419388E-04
(PID.TID 0000.0001)  cg2d: iter=    44 ; resid.=  3.75100547630866E-04
(PID.TID 0000.0001)  cg2d: iter=    45 ; resid.=  2.93669424812578E-04
(PID.TID 0000.0001)  cg2d: iter=    46 ; resid.=  2.61535592657737E-04
(PID.TID 0000.0001)  cg2d: iter=    47 ; resid.=  2.28219336960719E-04
(PID.TID 0000.0001)  cg2d: iter=    48 ; resid.=  1.72807187572562E-04
(PID.TID 0000.0001)  cg2d: iter=    49 ; resid.=  1.45825503074185E-04
(PID.TID 0000.0001)  cg2d: iter=    50 ; resid.=  1.24935037005049E-04
(PID.TID 0000.0001)  cg2d: iter=    51 ; resid.=  1.00500963731339E-04
(PID.TID 0000.0001)  cg2d: iter=    52 ; resid.=  7.83681620896288E-05
(PID.TID 0000.0001)  cg2d: iter=    53 ; resid.=  6.52926893391179E-05
(PID.TID 0000.0001)  cg2d: iter=    54 ; resid.=  5.63613015760002E-05
(PID.TID 0000.0001)  cg2d: iter=    55 ; resid.=  4.82993388636104E-05
(PID.TID 0000.0001)  cg2d: iter=    56 ; resid.=  4.11617395729065E-05
(PID.TID 0000.0001)  cg2d: iter=    57 ; resid.=  3.23851595191841E-05
(PID.TID 0000.0001)  cg2d: iter=    58 ; resid.=  2.48668789028551E-05
(PID.TID 0000.0001)  cg2d: iter=    59 ; resid.=  2.07387427402408E-05
(PID.TID 0000.0001)  cg2d: iter=    60 ; resid.=  1.75727305925596E-05
(PID.TID 0000.0001)  cg2d: iter=    61 ; resid.=  1.54826255419928E-05
(PID.TID 0000.0001)  cg2d: iter=    62 ; resid.=  1.31616574431653E-05
(PID.TID 0000.0001)  cg2d: iter=    63 ; resid.=  1.11812225694839E-05
(PID.TID 0000.0001)  cg2d: iter=    64 ; resid.=  9.16421204425573E-06
(PID.TID 0000.0001)  cg2d: iter=    65 ; resid.=  7.35888516497932E-06
(PID.TID 0000.0001)  cg2d: iter=    66 ; resid.=  5.89179031154083E-06
(PID.TID 0000.0001)  cg2d: iter=    67 ; resid.=  5.00611344125849E-06
(PID.TID 0000.0001)  cg2d: iter=    68 ; resid.=  4.03172244567956E-06
(PID.TID 0000.0001)  cg2d: iter=    69 ; resid.=  3.26716214797334E-06
(PID.TID 0000.0001)  cg2d: iter=    70 ; resid.=  2.59053940408311E-06
(PID.TID 0000.0001)  cg2d: iter=    71 ; resid.=  2.11895857331875E-06
(PID.TID 0000.0001)  cg2d: iter=    72 ; resid.=  1.91784202313763E-06
(PID.TID 0000.0001)  cg2d: iter=    73 ; resid.=  1.65439162518061E-06
(PID.TID 0000.0001)  cg2d: iter=    74 ; resid.=  1.46495267881578E-06
(PID.TID 0000.0001)  cg2d: iter=    75 ; resid.=  1.12244133115178E-06
(PID.TID 0000.0001)  cg2d: iter=    76 ; resid.=  9.26745051636184E-07
(PID.TID 0000.0001)  cg2d: iter=    77 ; resid.=  7.40663117394535E-07
(PID.TID 0000.0001)  cg2d: iter=    78 ; resid.=  6.09337281487247E-07
(PID.TID 0000.0001)  cg2d: iter=    79 ; resid.=  4.56728683304849E-07
(PID.TID 0000.0001)  cg2d: iter=    80 ; resid.=  3.28888019694213E-07
(PID.TID 0000.0001)  cg2d: iter=    81 ; resid.=  2.56649382165642E-07
(PID.TID 0000.0001)  cg2d: iter=    82 ; resid.=  1.89078888321646E-07
(PID.TID 0000.0001)  cg2d: iter=    83 ; resid.=  1.44027788101140E-07
(PID.TID 0000.0001)  cg2d: iter=    84 ; resid.=  1.11409042030173E-07
(PID.TID 0000.0001)  cg2d: iter=    85 ; resid.=  9.42770108875567E-08
(PID.TID 0000.0001)  cg2d: iter=    86 ; resid.=  7.82036981124884E-08
(PID.TID 0000.0001)  cg2d: iter=    87 ; resid.=  6.34946889925823E-08
(PID.TID 0000.0001)  cg2d: iter=    88 ; resid.=  4.72839398748199E-08
(PID.TID 0000.0001)  cg2d: iter=    89 ; resid.=  3.77661586954188E-08
(PID.TID 0000.0001)  cg2d: iter=    90 ; resid.=  2.97451802625337E-08
(PID.TID 0000.0001)  cg2d: iter=    91 ; resid.=  2.44344414372208E-08
(PID.TID 0000.0001)  cg2d: iter=    92 ; resid.=  1.72464009382482E-08
(PID.TID 0000.0001)  cg2d: iter=    93 ; resid.=  1.16869903129869E-08
(PID.TID 0000.0001)  cg2d: iter=    94 ; resid.=  9.62592623072875E-09
(PID.TID 0000.0001)  cg2d: iter=    95 ; resid.=  8.17657579507275E-09
(PID.TID 0000.0001)  cg2d: iter=    96 ; resid.=  6.50937266825183E-09
(PID.TID 0000.0001)  cg2d: iter=    97 ; resid.=  4.91596259214279E-09
(PID.TID 0000.0001)  cg2d: iter=    98 ; resid.=  3.84804360249778E-09
(PID.TID 0000.0001)  cg2d: iter=    99 ; resid.=  3.18212015652669E-09
(PID.TID 0000.0001)  cg2d: iter=   100 ; resid.=  2.77856072254199E-09
(PID.TID 0000.0001)  cg2d: iter=   101 ; resid.=  2.40661122003256E-09
(PID.TID 0000.0001)  cg2d: iter=   102 ; resid.=  2.09740486597682E-09
(PID.TID 0000.0001)  cg2d: iter=   103 ; resid.=  1.74504503672604E-09
(PID.TID 0000.0001)  cg2d: iter=   104 ; resid.=  1.34211574026444E-09
(PID.TID 0000.0001)  cg2d: iter=   105 ; resid.=  1.09991754563766E-09
(PID.TID 0000.0001)  cg2d: iter=   106 ; resid.=  8.82789546782817E-10
(PID.TID 0000.0001)  cg2d: iter=   107 ; resid.=  6.60764237761184E-10
(PID.TID 0000.0001)  cg2d: iter=   108 ; resid.=  5.21276487487690E-10
(PID.TID 0000.0001)  cg2d: iter=   109 ; resid.=  3.90139084615284E-10
(PID.TID 0000.0001)  cg2d: iter=   110 ; resid.=  3.17367498090674E-10
(PID.TID 0000.0001)  cg2d: iter=   111 ; resid.=  2.55582165919954E-10
(PID.TID 0000.0001)  cg2d: iter=   112 ; resid.=  1.82937425089241E-10
(PID.TID 0000.0001)  cg2d: iter=   113 ; resid.=  1.29432168005489E-10
(PID.TID 0000.0001)  cg2d: iter=   114 ; resid.=  9.35023153513293E-11
(PID.TID 0000.0001)  cg2d: iter=   115 ; resid.=  6.62705465490581E-11
(PID.TID 0000.0001)  cg2d: iter=   116 ; resid.=  5.03776657857963E-11
(PID.TID 0000.0001)  cg2d: iter=   117 ; resid.=  4.45164926534680E-11
(PID.TID 0000.0001)  cg2d: iter=   118 ; resid.=  3.74117351656935E-11
(PID.TID 0000.0001)  cg2d: iter=   119 ; resid.=  2.81321919027849E-11
(PID.TID 0000.0001)  cg2d: iter=   120 ; resid.=  2.15821581239108E-11
(PID.TID 0000.0001)  cg2d: iter=   121 ; resid.=  1.77896734784024E-11
(PID.TID 0000.0001)  cg2d: iter=   122 ; resid.=  1.31021895580966E-11
(PID.TID 0000.0001)  cg2d: iter=   123 ; resid.=  9.32942340521409E-12
(PID.TID 0000.0001)  cg2d: iter=   124 ; resid.=  6.46420117320193E-12
(PID.TID 0000.0001)  cg2d: iter=   125 ; resid.=  4.36631419593992E-12
(PID.TID 0000.0001)  cg2d: iter=   126 ; resid.=  3.08738982881382E-12
(PID.TID 0000.0001)  cg2d: iter=   127 ; resid.=  2.00151305788342E-12
(PID.TID 0000.0001)  cg2d: iter=   128 ; resid.=  1.41553321309595E-12
(PID.TID 0000.0001)  cg2d: iter=   129 ; resid.=  1.06672511152871E-12
(PID.TID 0000.0001)  cg2d: iter=   130 ; resid.=  8.20424671612344E-13
(PID.TID 0000.0001)  cg2d: iter=   131 ; resid.=  6.39088043830750E-13
(PID.TID 0000.0001)  cg2d: iter=   132 ; resid.=  4.44958137732916E-13
(PID.TID 0000.0001)  cg2d: iter=   133 ; resid.=  3.15516083710244E-13
(PID.TID 0000.0001)  cg2d: iter=   134 ; resid.=  2.48100080529446E-13
(PID.TID 0000.0001)  cg2d: iter=   135 ; resid.=  1.79883360735972E-13
(PID.TID 0000.0001)  cg2d: iter=   136 ; resid.=  1.22806282597314E-13
(PID.TID 0000.0001)  cg2d: iter=   137 ; resid.=  9.49539770243196E-14
DEBUG_STATS_RL:    cg2d_x (SOLVE_FOR_PRESSURE)  min= -2.88569017801139E+01
DEBUG_STATS_RL:    cg2d_x (SOLVE_FOR_PRESSURE)  max=  1.50309296156516E+01
DEBUG_STATS_RL:    cg2d_x (SOLVE_FOR_PRESSURE) mean= -1.51048194713998E+00
DEBUG_STATS_RL:    cg2d_x (SOLVE_FOR_PRESSURE) S.D.=  7.16423796168658E+00
(PID.TID 0000.0001)      cg2d_init_res =   7.38395780634589E-01
(PID.TID 0000.0001)      cg2d_iters(min,last) =      -1     137
(PID.TID 0000.0001)      cg2d_last_res =   9.49539770243196E-14
(PID.TID 0000.0001) // =======================================================
(PID.TID 0000.0001) // Begin MONITOR dynamic field statistics
(PID.TID 0000.0001) // =======================================================
(PID.TID 0000.0001) %MON time_tsnumber                =                    19
(PID.TID 0000.0001) %MON time_secondsf                =   1.6416000000000E+06
(PID.TID 0000.0001) %MON dynstat_eta_max              =   1.5322048537871E+00
(PID.TID 0000.0001) %MON dynstat_eta_min              =  -2.9415802018464E+00
(PID.TID 0000.0001) %MON dynstat_eta_mean             =  -1.3663327416377E-03
(PID.TID 0000.0001) %MON dynstat_eta_sd               =   6.5805722787530E-01
(PID.TID 0000.0001) %MON dynstat_eta_del2             =   1.9640183704779E-03
(PID.TID 0000.0001) %MON dynstat_uvel_max             =   1.7332213318906E-01
(PID.TID 0000.0001) %MON dynstat_uvel_min             =  -1.3104483241940E-01
(PID.TID 0000.0001) %MON dynstat_uvel_mean            =  -5.1148309839381E-03
(PID.TID 0000.0001) %MON dynstat_uvel_sd              =   2.2867276823202E-02
(PID.TID 0000.0001) %MON dynstat_uvel_del2            =   1.1864365225017E-04
(PID.TID 0000.0001) %MON dynstat_vvel_max             =   1.3701188914832E-01
(PID.TID 0000.0001) %MON dynstat_vvel_min             =  -1.5327083874098E-01
(PID.TID 0000.0001) %MON dynstat_vvel_mean            =   9.9293577936152E-04
(PID.TID 0000.0001) %MON dynstat_vvel_sd              =   1.2793193103037E-02
(PID.TID 0000.0001) %MON dynstat_vvel_del2            =   1.1088580752319E-04
(PID.TID 0000.0001) %MON dynstat_wvel_max             =   2.9439964233614E-04
(PID.TID 0000.0001) %MON dynstat_wvel_min             =  -2.7784165528847E-04
(PID.TID 0000.0001) %MON dynstat_wvel_mean            =   5.6237894371356E-22
(PID.TID 0000.0001) %MON dynstat_wvel_sd              =   2.7574804191151E-05
(PID.TID 0000.0001) %MON dynstat_wvel_del2            =   3.0630587117098E-07
(PID.TID 0000.0001) %MON dynstat_theta_max            =   2.9851138180745E+01
(PID.TID 0000.0001) %MON dynstat_theta_min            =  -2.0183445420812E+00
(PID.TID 0000.0001) %MON dynstat_theta_mean           =   3.6499549747507E+00
(PID.TID 0000.0001) %MON dynstat_theta_sd             =   4.4156954686705E+00
(PID.TID 0000.0001) %MON dynstat_theta_del2           =   4.8956728274245E-03
(PID.TID 0000.0001) %MON dynstat_salt_max             =   3.7470046492806E+01
(PID.TID 0000.0001) %MON dynstat_salt_min             =   2.9760143226288E+01
(PID.TID 0000.0001) %MON dynstat_salt_mean            =   3.4747941483396E+01
(PID.TID 0000.0001) %MON dynstat_salt_sd              =   2.9624663538299E-01
(PID.TID 0000.0001) %MON dynstat_salt_del2            =   1.0127872522331E-03
(PID.TID 0000.0001) %MON dynstat_sst_max              =   2.9851138180745E+01
(PID.TID 0000.0001) %MON dynstat_sst_min              =  -2.0183445420812E+00
(PID.TID 0000.0001) %MON dynstat_sst_mean             =   1.8705596213628E+01
(PID.TID 0000.0001) %MON dynstat_sst_sd               =   9.0593228023507E+00
(PID.TID 0000.0001) %MON dynstat_sst_del2             =   2.6363143175244E-02
(PID.TID 0000.0001) %MON dynstat_sss_max              =   3.7459438507885E+01
(PID.TID 0000.0001) %MON dynstat_sss_min              =   2.9760143226288E+01
(PID.TID 0000.0001) %MON dynstat_sss_mean             =   3.4883388068980E+01
(PID.TID 0000.0001) %MON dynstat_sss_sd               =   9.7207091163134E-01
(PID.TID 0000.0001) %MON dynstat_sss_del2             =   7.9812242614422E-03
(PID.TID 0000.0001) %MON forcing_qnet_max             =   4.3165635681152E+02
(PID.TID 0000.0001) %MON forcing_qnet_min             =  -1.7930098876953E+02
(PID.TID 0000.0001) %MON forcing_qnet_mean            =  -1.6257798498834E+01
(PID.TID 0000.0001) %MON forcing_qnet_sd              =   1.0664755624532E+02
(PID.TID 0000.0001) %MON forcing_qnet_del2            =   1.0122795175581E+00
(PID.TID 0000.0001) %MON forcing_qsw_max              =   0.0000000000000E+00
(PID.TID 0000.0001) %MON forcing_qsw_min              =   0.0000000000000E+00
(PID.TID 0000.0001) %MON forcing_qsw_mean             =   0.0000000000000E+00
(PID.TID 0000.0001) %MON forcing_qsw_sd               =   0.0000000000000E+00
(PID.TID 0000.0001) %MON forcing_qsw_del2             =   0.0000000000000E+00
(PID.TID 0000.0001) %MON forcing_empmr_max            =   8.1231969772944E-05
(PID.TID 0000.0001) %MON forcing_empmr_min            =  -7.6394888992581E-05
(PID.TID 0000.0001) %MON forcing_empmr_mean           =   9.2498425389048E-07
(PID.TID 0000.0001) %MON forcing_empmr_sd             =   2.8645556443893E-05
(PID.TID 0000.0001) %MON forcing_empmr_del2           =   3.6402796723615E-07
(PID.TID 0000.0001) %MON forcing_fu_max               =   2.7819065451622E-01
(PID.TID 0000.0001) %MON forcing_fu_min               =  -1.7091440856457E-01
(PID.TID 0000.0001) %MON forcing_fu_mean              =   1.6164635798973E-02
(PID.TID 0000.0001) %MON forcing_fu_sd                =   9.0554740471920E-02
(PID.TID 0000.0001) %MON forcing_fu_del2              =   7.0326557516560E-04
(PID.TID 0000.0001) %MON forcing_fv_max               =   2.2349597960711E-01
(PID.TID 0000.0001) %MON forcing_fv_min               =  -1.7516300082207E-01
(PID.TID 0000.0001) %MON forcing_fv_mean              =  -5.4546804596506E-03
(PID.TID 0000.0001) %MON forcing_fv_sd                =   4.7328470565258E-02
(PID.TID 0000.0001) %MON forcing_fv_del2              =   4.8406077640453E-04
(PID.TID 0000.0001) %MON trAdv_CFL_u_max              =   9.8364078014989E-02
(PID.TID 0000.0001) %MON trAdv_CFL_v_max              =   2.8018250336261E-02
(PID.TID 0000.0001) %MON trAdv_CFL_w_max              =   8.7081096918086E-02
(PID.TID 0000.0001) %MON advcfl_uvel_max              =   8.9798075246477E-02
(PID.TID 0000.0001) %MON advcfl_vvel_max              =   2.9778065798655E-02
(PID.TID 0000.0001) %MON advcfl_wvel_max              =   7.7346644383752E-02
(PID.TID 0000.0001) %MON advcfl_W_hf_max              =   8.7523834434246E-02
(PID.TID 0000.0001) %MON pe_b_mean                    =   5.5412838807933E-04
(PID.TID 0000.0001) %MON ke_max                       =   1.5340935861659E-02
(PID.TID 0000.0001) %MON ke_mean                      =   3.2337192792187E-04
(PID.TID 0000.0001) %MON ke_vol                       =   1.3226782436723E+18
(PID.TID 0000.0001) %MON vort_r_min                   =  -8.1552298151308E-07
(PID.TID 0000.0001) %MON vort_r_max                   =   8.6172462649990E-07
(PID.TID 0000.0001) %MON vort_a_mean                  =  -2.5274807710840E-05
(PID.TID 0000.0001) %MON vort_a_sd                    =   7.3603642409514E-05
(PID.TID 0000.0001) %MON vort_p_mean                  =  -3.1845656194335E-05
(PID.TID 0000.0001) %MON vort_p_sd                    =   1.3162131813606E-04
(PID.TID 0000.0001) %MON surfExpan_theta_mean         =  -6.3024669867335E-08
(PID.TID 0000.0001) %MON surfExpan_salt_mean          =   2.5588902373335E-07
(PID.TID 0000.0001) // =======================================================
(PID.TID 0000.0001) // End MONITOR dynamic field statistics
(PID.TID 0000.0001) // =======================================================
 EXTERNAL_FIELDS_LOAD,        19 : iP,iLd,i0,i1=    1    2    1    2 ; Wght=  0.8666666667  0.1333333333
 EXTERNAL_FIELDS_LOAD: (fu0,1),fu,fv= -3.5633E-02 -1.4435E-02 -3.2807E-02 -5.1974E-02
 EXTERNAL_FIELDS_LOAD: SST,SSS,Q,E-P=  7.5972E-01  3.4675E+01  2.6240E+02  1.1202E-05
DEBUG_STATS_RL:          Uvel (THERMODYNAMICS)  min= -1.31044832419397E-01
DEBUG_STATS_RL:          Uvel (THERMODYNAMICS)  max=  1.73322133189060E-01
DEBUG_STATS_RL:          Uvel (THERMODYNAMICS) mean= -2.58914311995186E-03
DEBUG_STATS_RL:          Uvel (THERMODYNAMICS) S.D.=  2.70595410805263E-02
DEBUG_STATS_RL:          Vvel (THERMODYNAMICS)  min= -1.53270838740982E-01
DEBUG_STATS_RL:          Vvel (THERMODYNAMICS)  max=  1.37011889148315E-01
DEBUG_STATS_RL:          Vvel (THERMODYNAMICS) mean=  2.63537626631637E-03
DEBUG_STATS_RL:          Vvel (THERMODYNAMICS) S.D.=  1.88019940860100E-02
DEBUG_STATS_RL:          Wvel (THERMODYNAMICS)  min= -2.77841655288470E-04
DEBUG_STATS_RL:          Wvel (THERMODYNAMICS)  max=  2.94399642336139E-04
DEBUG_STATS_RL:          Wvel (THERMODYNAMICS) mean=  3.37272614556379E-07
DEBUG_STATS_RL:          Wvel (THERMODYNAMICS) S.D.=  2.49474555243081E-05
DEBUG_STATS_RL:         Theta (THERMODYNAMICS)  min= -2.01520658910681E+00
DEBUG_STATS_RL:         Theta (THERMODYNAMICS)  max=  2.98576271618780E+01
DEBUG_STATS_RL:         Theta (THERMODYNAMICS) mean=  3.23823441073323E+00
DEBUG_STATS_RL:         Theta (THERMODYNAMICS) S.D.=  5.85634754346235E+00
DEBUG_STATS_RL:          Salt (THERMODYNAMICS)  min=  3.00000000000000E-02
DEBUG_STATS_RL:          Salt (THERMODYNAMICS)  max=  3.74705856636768E+01
DEBUG_STATS_RL:          Salt (THERMODYNAMICS) mean=  1.88751417047107E+01
DEBUG_STATS_RL:          Salt (THERMODYNAMICS) S.D.=  1.73006289458127E+01
DEBUG_STATS_RL:         GtNm1 (THERMODYNAMICS)  min= -3.38582533188875E-06
DEBUG_STATS_RL:         GtNm1 (THERMODYNAMICS)  max=  3.96956395580719E-06
DEBUG_STATS_RL:         GtNm1 (THERMODYNAMICS) mean=  3.78595264002235E-09
DEBUG_STATS_RL:         GtNm1 (THERMODYNAMICS) S.D.=  2.49818718398954E-07
DEBUG_STATS_RL:         GsNm1 (THERMODYNAMICS)  min= -7.80920628769341E-07
DEBUG_STATS_RL:         GsNm1 (THERMODYNAMICS)  max=  7.38683194057623E-07
DEBUG_STATS_RL:         GsNm1 (THERMODYNAMICS) mean= -2.72873744535466E-10
DEBUG_STATS_RL:         GsNm1 (THERMODYNAMICS) S.D.=  2.33733832957238E-08
DEBUG_STATS_RL:                EtaN (DYNAMICS)  min= -2.94158020184641E+00
DEBUG_STATS_RL:                EtaN (DYNAMICS)  max=  1.53220485378712E+00
DEBUG_STATS_RL:                EtaN (DYNAMICS) mean= -1.53973694917429E-01
DEBUG_STATS_RL:                EtaN (DYNAMICS) S.D.=  7.30299486410455E-01
DEBUG_STATS_RL:                Uvel (DYNAMICS)  min= -1.31044832419397E-01
DEBUG_STATS_RL:                Uvel (DYNAMICS)  max=  1.73322133189060E-01
DEBUG_STATS_RL:                Uvel (DYNAMICS) mean= -2.58914311995186E-03
DEBUG_STATS_RL:                Uvel (DYNAMICS) S.D.=  2.70595410805263E-02
DEBUG_STATS_RL:                Vvel (DYNAMICS)  min= -1.53270838740982E-01
DEBUG_STATS_RL:                Vvel (DYNAMICS)  max=  1.37011889148315E-01
DEBUG_STATS_RL:                Vvel (DYNAMICS) mean=  2.63537626631637E-03
DEBUG_STATS_RL:                Vvel (DYNAMICS) S.D.=  1.88019940860100E-02
DEBUG_STATS_RL:                Wvel (DYNAMICS)  min= -2.77841655288470E-04
DEBUG_STATS_RL:                Wvel (DYNAMICS)  max=  2.94399642336139E-04
DEBUG_STATS_RL:                Wvel (DYNAMICS) mean=  3.37272614556379E-07
DEBUG_STATS_RL:                Wvel (DYNAMICS) S.D.=  2.49474555243081E-05
DEBUG_STATS_RL:               Theta (DYNAMICS)  min= -2.01520658910681E+00
DEBUG_STATS_RL:               Theta (DYNAMICS)  max=  2.98576271618780E+01
DEBUG_STATS_RL:               Theta (DYNAMICS) mean=  3.23823441073323E+00
DEBUG_STATS_RL:               Theta (DYNAMICS) S.D.=  5.85634754346235E+00
DEBUG_STATS_RL:                Salt (DYNAMICS)  min=  3.00000000000000E-02
DEBUG_STATS_RL:                Salt (DYNAMICS)  max=  3.74705856636768E+01
DEBUG_STATS_RL:                Salt (DYNAMICS) mean=  1.88751417047107E+01
DEBUG_STATS_RL:                Salt (DYNAMICS) S.D.=  1.73006289458127E+01
DEBUG_STATS_RL:                  Gu (DYNAMICS)  min= -1.41050347181091E-01
DEBUG_STATS_RL:                  Gu (DYNAMICS)  max=  1.72907708121462E-01
DEBUG_STATS_RL:                  Gu (DYNAMICS) mean= -2.93729819338149E-03
DEBUG_STATS_RL:                  Gu (DYNAMICS) S.D.=  2.69165078003956E-02
DEBUG_STATS_RL:                  Gv (DYNAMICS)  min= -1.36676634899338E-01
DEBUG_STATS_RL:                  Gv (DYNAMICS)  max=  1.49281603050551E-01
DEBUG_STATS_RL:                  Gv (DYNAMICS) mean=  4.06952986164769E-03
DEBUG_STATS_RL:                  Gv (DYNAMICS) S.D.=  2.05708498483316E-02
DEBUG_STATS_RL:               GuNm1 (DYNAMICS)  min= -6.57282675678129E-06
DEBUG_STATS_RL:               GuNm1 (DYNAMICS)  max=  8.05926039245682E-06
DEBUG_STATS_RL:               GuNm1 (DYNAMICS) mean= -1.12722805884812E-08
DEBUG_STATS_RL:               GuNm1 (DYNAMICS) S.D.=  1.15071510855173E-06
DEBUG_STATS_RL:               GvNm1 (DYNAMICS)  min= -8.67508371363937E-06
DEBUG_STATS_RL:               GvNm1 (DYNAMICS)  max=  1.70164789746562E-05
DEBUG_STATS_RL:               GvNm1 (DYNAMICS) mean=  7.73654145394084E-07
DEBUG_STATS_RL:               GvNm1 (DYNAMICS) S.D.=  2.59758425932002E-06
DEBUG_STATS_RL:               GtNm1 (DYNAMICS)  min= -3.38582533188875E-06
DEBUG_STATS_RL:               GtNm1 (DYNAMICS)  max=  3.96956395580719E-06
DEBUG_STATS_RL:               GtNm1 (DYNAMICS) mean=  3.78595264002235E-09
DEBUG_STATS_RL:               GtNm1 (DYNAMICS) S.D.=  2.49818718398954E-07
DEBUG_STATS_RL:               GsNm1 (DYNAMICS)  min= -7.80920628769341E-07
DEBUG_STATS_RL:               GsNm1 (DYNAMICS)  max=  7.38683194057623E-07
DEBUG_STATS_RL:               GsNm1 (DYNAMICS) mean= -2.72873744535466E-10
DEBUG_STATS_RL:               GsNm1 (DYNAMICS) S.D.=  2.33733832957238E-08
DEBUG_STATS_RL:    cg2d_b (SOLVE_FOR_PRESSURE)  min= -2.23160680956426E+04
DEBUG_STATS_RL:    cg2d_b (SOLVE_FOR_PRESSURE)  max=  1.94777021048880E+04
DEBUG_STATS_RL:    cg2d_b (SOLVE_FOR_PRESSURE) mean=  1.38359112933139E+00
DEBUG_STATS_RL:    cg2d_b (SOLVE_FOR_PRESSURE) S.D.=  3.75544654243243E+03
 cg2d: Sum(rhs),rhsMax =   1.43529471709529E-01  1.46577910213631E+00
(PID.TID 0000.0001)  cg2d: iter=     1 ; resid.=  5.98515759215870E-01
(PID.TID 0000.0001)  cg2d: iter=     2 ; resid.=  5.25985046187484E-01
(PID.TID 0000.0001)  cg2d: iter=     3 ; resid.=  4.90899843084100E-01
(PID.TID 0000.0001)  cg2d: iter=     4 ; resid.=  4.99757798981917E-01
(PID.TID 0000.0001)  cg2d: iter=     5 ; resid.=  3.89018917108256E-01
(PID.TID 0000.0001)  cg2d: iter=     6 ; resid.=  3.20616001005020E-01
(PID.TID 0000.0001)  cg2d: iter=     7 ; resid.=  3.25211732906226E-01
(PID.TID 0000.0001)  cg2d: iter=     8 ; resid.=  2.92208020504869E-01
(PID.TID 0000.0001)  cg2d: iter=     9 ; resid.=  2.33385008748107E-01
(PID.TID 0000.0001)  cg2d: iter=    10 ; resid.=  2.05134021229780E-01
(PID.TID 0000.0001)  cg2d: iter=    11 ; resid.=  1.53763566057275E-01
(PID.TID 0000.0001)  cg2d: iter=    12 ; resid.=  1.13463897279546E-01
(PID.TID 0000.0001)  cg2d: iter=    13 ; resid.=  8.57617656207043E-02
(PID.TID 0000.0001)  cg2d: iter=    14 ; resid.=  8.20902077055142E-02
(PID.TID 0000.0001)  cg2d: iter=    15 ; resid.=  6.82569264710013E-02
(PID.TID 0000.0001)  cg2d: iter=    16 ; resid.=  6.39581717322177E-02
(PID.TID 0000.0001)  cg2d: iter=    17 ; resid.=  5.83058776528982E-02
(PID.TID 0000.0001)  cg2d: iter=    18 ; resid.=  4.40672913298827E-02
(PID.TID 0000.0001)  cg2d: iter=    19 ; resid.=  3.43146915034138E-02
(PID.TID 0000.0001)  cg2d: iter=    20 ; resid.=  2.96768147480062E-02
(PID.TID 0000.0001)  cg2d: iter=    21 ; resid.=  2.42384849300584E-02
(PID.TID 0000.0001)  cg2d: iter=    22 ; resid.=  2.10602273249820E-02
(PID.TID 0000.0001)  cg2d: iter=    23 ; resid.=  1.99783477371832E-02
(PID.TID 0000.0001)  cg2d: iter=    24 ; resid.=  1.80269171621959E-02
(PID.TID 0000.0001)  cg2d: iter=    25 ; resid.=  1.26903254434178E-02
(PID.TID 0000.0001)  cg2d: iter=    26 ; resid.=  1.07712784004294E-02
(PID.TID 0000.0001)  cg2d: iter=    27 ; resid.=  8.83354895774634E-03
(PID.TID 0000.0001)  cg2d: iter=    28 ; resid.=  7.73274265549297E-03
(PID.TID 0000.0001)  cg2d: iter=    29 ; resid.=  5.94408822768065E-03
(PID.TID 0000.0001)  cg2d: iter=    30 ; resid.=  5.54222536254993E-03
(PID.TID 0000.0001)  cg2d: iter=    31 ; resid.=  4.63739564911158E-03
(PID.TID 0000.0001)  cg2d: iter=    32 ; resid.=  3.77904225959599E-03
(PID.TID 0000.0001)  cg2d: iter=    33 ; resid.=  3.35032617100400E-03
(PID.TID 0000.0001)  cg2d: iter=    34 ; resid.=  2.75536537743584E-03
(PID.TID 0000.0001)  cg2d: iter=    35 ; resid.=  2.11375765278524E-03
(PID.TID 0000.0001)  cg2d: iter=    36 ; resid.=  1.70943968736512E-03
(PID.TID 0000.0001)  cg2d: iter=    37 ; resid.=  1.43405361615161E-03
(PID.TID 0000.0001)  cg2d: iter=    38 ; resid.=  1.27157567557328E-03
(PID.TID 0000.0001)  cg2d: iter=    39 ; resid.=  1.17886023336721E-03
(PID.TID 0000.0001)  cg2d: iter=    40 ; resid.=  9.98167342988152E-04
(PID.TID 0000.0001)  cg2d: iter=    41 ; resid.=  7.47263906294120E-04
(PID.TID 0000.0001)  cg2d: iter=    42 ; resid.=  5.93999192578503E-04
(PID.TID 0000.0001)  cg2d: iter=    43 ; resid.=  4.58705131482500E-04
(PID.TID 0000.0001)  cg2d: iter=    44 ; resid.=  3.55823749539880E-04
(PID.TID 0000.0001)  cg2d: iter=    45 ; resid.=  2.72623061412873E-04
(PID.TID 0000.0001)  cg2d: iter=    46 ; resid.=  2.34653922132633E-04
(PID.TID 0000.0001)  cg2d: iter=    47 ; resid.=  2.07289433827883E-04
(PID.TID 0000.0001)  cg2d: iter=    48 ; resid.=  1.64675332426719E-04
(PID.TID 0000.0001)  cg2d: iter=    49 ; resid.=  1.48239173825480E-04
(PID.TID 0000.0001)  cg2d: iter=    50 ; resid.=  1.26112646843484E-04
(PID.TID 0000.0001)  cg2d: iter=    51 ; resid.=  9.75703909761582E-05
(PID.TID 0000.0001)  cg2d: iter=    52 ; resid.=  7.27821514181884E-05
(PID.TID 0000.0001)  cg2d: iter=    53 ; resid.=  5.85892438906349E-05
(PID.TID 0000.0001)  cg2d: iter=    54 ; resid.=  4.98060995320874E-05
(PID.TID 0000.0001)  cg2d: iter=    55 ; resid.=  4.27806743614436E-05
(PID.TID 0000.0001)  cg2d: iter=    56 ; resid.=  3.48023060437231E-05
(PID.TID 0000.0001)  cg2d: iter=    57 ; resid.=  2.74679766655885E-05
(PID.TID 0000.0001)  cg2d: iter=    58 ; resid.=  2.12224947011389E-05
(PID.TID 0000.0001)  cg2d: iter=    59 ; resid.=  1.78275205407789E-05
(PID.TID 0000.0001)  cg2d: iter=    60 ; resid.=  1.45989840764836E-05
(PID.TID 0000.0001)  cg2d: iter=    61 ; resid.=  1.23529393962946E-05
(PID.TID 0000.0001)  cg2d: iter=    62 ; resid.=  1.03771829229909E-05
(PID.TID 0000.0001)  cg2d: iter=    63 ; resid.=  8.86937460637497E-06
(PID.TID 0000.0001)  cg2d: iter=    64 ; resid.=  7.20728413837334E-06
(PID.TID 0000.0001)  cg2d: iter=    65 ; resid.=  5.94444128113699E-06
(PID.TID 0000.0001)  cg2d: iter=    66 ; resid.=  4.82437652939282E-06
(PID.TID 0000.0001)  cg2d: iter=    67 ; resid.=  4.18909036983307E-06
(PID.TID 0000.0001)  cg2d: iter=    68 ; resid.=  3.24397972007069E-06
(PID.TID 0000.0001)  cg2d: iter=    69 ; resid.=  2.58240280375544E-06
(PID.TID 0000.0001)  cg2d: iter=    70 ; resid.=  2.07881130509980E-06
(PID.TID 0000.0001)  cg2d: iter=    71 ; resid.=  1.80789617545496E-06
(PID.TID 0000.0001)  cg2d: iter=    72 ; resid.=  1.70323897790992E-06
(PID.TID 0000.0001)  cg2d: iter=    73 ; resid.=  1.51014654479195E-06
(PID.TID 0000.0001)  cg2d: iter=    74 ; resid.=  1.34812175716245E-06
(PID.TID 0000.0001)  cg2d: iter=    75 ; resid.=  1.04870329269147E-06
(PID.TID 0000.0001)  cg2d: iter=    76 ; resid.=  8.89163469182729E-07
(PID.TID 0000.0001)  cg2d: iter=    77 ; resid.=  7.01592461878963E-07
(PID.TID 0000.0001)  cg2d: iter=    78 ; resid.=  5.78263294231093E-07
(PID.TID 0000.0001)  cg2d: iter=    79 ; resid.=  4.26895301088584E-07
(PID.TID 0000.0001)  cg2d: iter=    80 ; resid.=  2.85635123004271E-07
(PID.TID 0000.0001)  cg2d: iter=    81 ; resid.=  2.10800431674417E-07
(PID.TID 0000.0001)  cg2d: iter=    82 ; resid.=  1.56701318364039E-07
(PID.TID 0000.0001)  cg2d: iter=    83 ; resid.=  1.19630631576023E-07
(PID.TID 0000.0001)  cg2d: iter=    84 ; resid.=  9.82076311623691E-08
(PID.TID 0000.0001)  cg2d: iter=    85 ; resid.=  8.02720404781360E-08
(PID.TID 0000.0001)  cg2d: iter=    86 ; resid.=  6.53054715411138E-08
(PID.TID 0000.0001)  cg2d: iter=    87 ; resid.=  5.49295906535042E-08
(PID.TID 0000.0001)  cg2d: iter=    88 ; resid.=  4.39952355867448E-08
(PID.TID 0000.0001)  cg2d: iter=    89 ; resid.=  3.64095275830109E-08
(PID.TID 0000.0001)  cg2d: iter=    90 ; resid.=  2.78305641370228E-08
(PID.TID 0000.0001)  cg2d: iter=    91 ; resid.=  2.21155785077566E-08
(PID.TID 0000.0001)  cg2d: iter=    92 ; resid.=  1.55167478937908E-08
(PID.TID 0000.0001)  cg2d: iter=    93 ; resid.=  1.04272480246324E-08
(PID.TID 0000.0001)  cg2d: iter=    94 ; resid.=  8.62082469043524E-09
(PID.TID 0000.0001)  cg2d: iter=    95 ; resid.=  7.56207307351912E-09
(PID.TID 0000.0001)  cg2d: iter=    96 ; resid.=  6.17847291965035E-09
(PID.TID 0000.0001)  cg2d: iter=    97 ; resid.=  4.92270613378822E-09
(PID.TID 0000.0001)  cg2d: iter=    98 ; resid.=  3.99209602843035E-09
(PID.TID 0000.0001)  cg2d: iter=    99 ; resid.=  3.55379400989662E-09
(PID.TID 0000.0001)  cg2d: iter=   100 ; resid.=  3.14153944952228E-09
(PID.TID 0000.0001)  cg2d: iter=   101 ; resid.=  2.57670634208861E-09
(PID.TID 0000.0001)  cg2d: iter=   102 ; resid.=  2.10210169847157E-09
(PID.TID 0000.0001)  cg2d: iter=   103 ; resid.=  1.73219047503480E-09
(PID.TID 0000.0001)  cg2d: iter=   104 ; resid.=  1.30821373164935E-09
(PID.TID 0000.0001)  cg2d: iter=   105 ; resid.=  1.00636647165848E-09
(PID.TID 0000.0001)  cg2d: iter=   106 ; resid.=  7.50880999175151E-10
(PID.TID 0000.0001)  cg2d: iter=   107 ; resid.=  5.13957457505987E-10
(PID.TID 0000.0001)  cg2d: iter=   108 ; resid.=  3.71119857542524E-10
(PID.TID 0000.0001)  cg2d: iter=   109 ; resid.=  2.65776832934833E-10
(PID.TID 0000.0001)  cg2d: iter=   110 ; resid.=  2.08144451390614E-10
(PID.TID 0000.0001)  cg2d: iter=   111 ; resid.=  1.75816439783779E-10
(PID.TID 0000.0001)  cg2d: iter=   112 ; resid.=  1.29288743112572E-10
(PID.TID 0000.0001)  cg2d: iter=   113 ; resid.=  9.04806990213768E-11
(PID.TID 0000.0001)  cg2d: iter=   114 ; resid.=  6.72899800782772E-11
(PID.TID 0000.0001)  cg2d: iter=   115 ; resid.=  4.73413323120888E-11
(PID.TID 0000.0001)  cg2d: iter=   116 ; resid.=  3.43013472301924E-11
(PID.TID 0000.0001)  cg2d: iter=   117 ; resid.=  2.87917071598795E-11
(PID.TID 0000.0001)  cg2d: iter=   118 ; resid.=  2.25882568219210E-11
(PID.TID 0000.0001)  cg2d: iter=   119 ; resid.=  1.69848779538221E-11
(PID.TID 0000.0001)  cg2d: iter=   120 ; resid.=  1.27232967872076E-11
(PID.TID 0000.0001)  cg2d: iter=   121 ; resid.=  1.07584780872203E-11
(PID.TID 0000.0001)  cg2d: iter=   122 ; resid.=  8.94093605082497E-12
(PID.TID 0000.0001)  cg2d: iter=   123 ; resid.=  6.79594013475041E-12
(PID.TID 0000.0001)  cg2d: iter=   124 ; resid.=  4.90269589138755E-12
(PID.TID 0000.0001)  cg2d: iter=   125 ; resid.=  3.37660082820577E-12
(PID.TID 0000.0001)  cg2d: iter=   126 ; resid.=  2.57080690919725E-12
(PID.TID 0000.0001)  cg2d: iter=   127 ; resid.=  1.74187346556661E-12
(PID.TID 0000.0001)  cg2d: iter=   128 ; resid.=  1.20831380627786E-12
(PID.TID 0000.0001)  cg2d: iter=   129 ; resid.=  8.94222151385903E-13
(PID.TID 0000.0001)  cg2d: iter=   130 ; resid.=  6.75582941972315E-13
(PID.TID 0000.0001)  cg2d: iter=   131 ; resid.=  5.38009132549123E-13
(PID.TID 0000.0001)  cg2d: iter=   132 ; resid.=  3.86705707910680E-13
(PID.TID 0000.0001)  cg2d: iter=   133 ; resid.=  2.67911654505235E-13
(PID.TID 0000.0001)  cg2d: iter=   134 ; resid.=  1.94813382644977E-13
(PID.TID 0000.0001)  cg2d: iter=   135 ; resid.=  1.36306971028525E-13
(PID.TID 0000.0001)  cg2d: iter=   136 ; resid.=  8.42656760306645E-14
DEBUG_STATS_RL:    cg2d_x (SOLVE_FOR_PRESSURE)  min= -2.79529026357677E+01
DEBUG_STATS_RL:    cg2d_x (SOLVE_FOR_PRESSURE)  max=  1.51119347824733E+01
DEBUG_STATS_RL:    cg2d_x (SOLVE_FOR_PRESSURE) mean= -1.46156735107886E+00
DEBUG_STATS_RL:    cg2d_x (SOLVE_FOR_PRESSURE) S.D.=  7.03966049462624E+00
(PID.TID 0000.0001)      cg2d_init_res =   6.96138757334217E-01
(PID.TID 0000.0001)      cg2d_iters(min,last) =      -1     136
(PID.TID 0000.0001)      cg2d_last_res =   8.42656760306645E-14
(PID.TID 0000.0001) // =======================================================
(PID.TID 0000.0001) // Begin MONITOR dynamic field statistics
(PID.TID 0000.0001) // =======================================================
(PID.TID 0000.0001) %MON time_tsnumber                =                    20
(PID.TID 0000.0001) %MON time_secondsf                =   1.7280000000000E+06
(PID.TID 0000.0001) %MON dynstat_eta_max              =   1.5404622612103E+00
(PID.TID 0000.0001) %MON dynstat_eta_min              =  -2.8494294226061E+00
(PID.TID 0000.0001) %MON dynstat_eta_mean             =  -1.4436057838207E-03
(PID.TID 0000.0001) %MON dynstat_eta_sd               =   6.4457917697681E-01
(PID.TID 0000.0001) %MON dynstat_eta_del2             =   1.9927618183299E-03
(PID.TID 0000.0001) %MON dynstat_uvel_max             =   1.7201272161975E-01
(PID.TID 0000.0001) %MON dynstat_uvel_min             =  -1.3823213103566E-01
(PID.TID 0000.0001) %MON dynstat_uvel_mean            =  -4.9001729983612E-03
(PID.TID 0000.0001) %MON dynstat_uvel_sd              =   2.2420569617842E-02
(PID.TID 0000.0001) %MON dynstat_uvel_del2            =   1.1556244408989E-04
(PID.TID 0000.0001) %MON dynstat_vvel_max             =   1.3802134304056E-01
(PID.TID 0000.0001) %MON dynstat_vvel_min             =  -1.5176498551563E-01
(PID.TID 0000.0001) %MON dynstat_vvel_mean            =   1.1240918633377E-03
(PID.TID 0000.0001) %MON dynstat_vvel_sd              =   1.2989139712763E-02
(PID.TID 0000.0001) %MON dynstat_vvel_del2            =   1.1081583917383E-04
(PID.TID 0000.0001) %MON dynstat_wvel_max             =   2.7382404169949E-04
(PID.TID 0000.0001) %MON dynstat_wvel_min             =  -2.3526895995262E-04
(PID.TID 0000.0001) %MON dynstat_wvel_mean            =  -1.6819645550305E-22
(PID.TID 0000.0001) %MON dynstat_wvel_sd              =   2.6719421091492E-05
(PID.TID 0000.0001) %MON dynstat_wvel_del2            =   2.9439034549429E-07
(PID.TID 0000.0001) %MON dynstat_theta_max            =   2.9857627161878E+01
(PID.TID 0000.0001) %MON dynstat_theta_min            =  -2.0152065891068E+00
(PID.TID 0000.0001) %MON dynstat_theta_mean           =   3.6500409632117E+00
(PID.TID 0000.0001) %MON dynstat_theta_sd             =   4.4158012825263E+00
(PID.TID 0000.0001) %MON dynstat_theta_del2           =   4.8907948700596E-03
(PID.TID 0000.0001) %MON dynstat_salt_max             =   3.7470585663677E+01
(PID.TID 0000.0001) %MON dynstat_salt_min             =   2.9773885504662E+01
(PID.TID 0000.0001) %MON dynstat_salt_mean            =   3.4747936398732E+01
(PID.TID 0000.0001) %MON dynstat_salt_sd              =   2.9622908789689E-01
(PID.TID 0000.0001) %MON dynstat_salt_del2            =   1.0121138421780E-03
(PID.TID 0000.0001) %MON dynstat_sst_max              =   2.9857627161878E+01
(PID.TID 0000.0001) %MON dynstat_sst_min              =  -2.0152065891068E+00
(PID.TID 0000.0001) %MON dynstat_sst_mean             =   1.8710659760277E+01
(PID.TID 0000.0001) %MON dynstat_sst_sd               =   9.0594443037319E+00
(PID.TID 0000.0001) %MON dynstat_sst_del2             =   2.6377352120475E-02
(PID.TID 0000.0001) %MON dynstat_sss_max              =   3.7459474356861E+01
(PID.TID 0000.0001) %MON dynstat_sss_min              =   2.9773885504662E+01
(PID.TID 0000.0001) %MON dynstat_sss_mean             =   3.4882853727712E+01
(PID.TID 0000.0001) %MON dynstat_sss_sd               =   9.7240670783854E-01
(PID.TID 0000.0001) %MON dynstat_sss_del2             =   7.9768474277242E-03
(PID.TID 0000.0001) %MON forcing_qnet_max             =   4.2833727010091E+02
(PID.TID 0000.0001) %MON forcing_qnet_min             =  -1.7906146952311E+02
(PID.TID 0000.0001) %MON forcing_qnet_mean            =  -1.6172889331431E+01
(PID.TID 0000.0001) %MON forcing_qnet_sd              =   1.0557973223763E+02
(PID.TID 0000.0001) %MON forcing_qnet_del2            =   1.0083982826333E+00
(PID.TID 0000.0001) %MON forcing_qsw_max              =   0.0000000000000E+00
(PID.TID 0000.0001) %MON forcing_qsw_min              =   0.0000000000000E+00
(PID.TID 0000.0001) %MON forcing_qsw_mean             =   0.0000000000000E+00
(PID.TID 0000.0001) %MON forcing_qsw_sd               =   0.0000000000000E+00
(PID.TID 0000.0001) %MON forcing_qsw_del2             =   0.0000000000000E+00
(PID.TID 0000.0001) %MON forcing_empmr_max            =   8.0917880040943E-05
(PID.TID 0000.0001) %MON forcing_empmr_min            =  -7.6474533254138E-05
(PID.TID 0000.0001) %MON forcing_empmr_mean           =   9.2566665115046E-07
(PID.TID 0000.0001) %MON forcing_empmr_sd             =   2.8597523558275E-05
(PID.TID 0000.0001) %MON forcing_empmr_del2           =   3.6295745305298E-07
(PID.TID 0000.0001) %MON forcing_fu_max               =   2.7799457907677E-01
(PID.TID 0000.0001) %MON forcing_fu_min               =  -1.7257433235645E-01
(PID.TID 0000.0001) %MON forcing_fu_mean              =   1.6218936014442E-02
(PID.TID 0000.0001) %MON forcing_fu_sd                =   9.0419897423294E-02
(PID.TID 0000.0001) %MON forcing_fu_del2              =   6.9713620396268E-04
(PID.TID 0000.0001) %MON forcing_fv_max               =   2.2028753260771E-01
(PID.TID 0000.0001) %MON forcing_fv_min               =  -1.7417170107365E-01
(PID.TID 0000.0001) %MON forcing_fv_mean              =  -5.5199413663658E-03
(PID.TID 0000.0001) %MON forcing_fv_sd                =   4.7048267643353E-02
(PID.TID 0000.0001) %MON forcing_fv_del2              =   4.7981650683968E-04
(PID.TID 0000.0001) %MON trAdv_CFL_u_max              =   8.9816313877806E-02
(PID.TID 0000.0001) %MON trAdv_CFL_v_max              =   2.8527201288987E-02
(PID.TID 0000.0001) %MON trAdv_CFL_w_max              =   8.7523834434246E-02
(PID.TID 0000.0001) %MON advcfl_uvel_max              =   7.5556644805475E-02
(PID.TID 0000.0001) %MON advcfl_vvel_max              =   2.9485502667951E-02
(PID.TID 0000.0001) %MON advcfl_wvel_max              =   7.4556898283077E-02
(PID.TID 0000.0001) %MON advcfl_W_hf_max              =   8.4729619885705E-02
(PID.TID 0000.0001) %MON pe_b_mean                    =   5.3166236853001E-04
(PID.TID 0000.0001) %MON ke_max                       =   1.5893805482993E-02
(PID.TID 0000.0001) %MON ke_mean                      =   3.1559696170320E-04
(PID.TID 0000.0001) %MON ke_vol                       =   1.3226782436723E+18
(PID.TID 0000.0001) %MON vort_r_min                   =  -6.4298193309928E-07
(PID.TID 0000.0001) %MON vort_r_max                   =   6.0692973464971E-07
(PID.TID 0000.0001) %MON vort_a_mean                  =  -2.5274807290488E-05
(PID.TID 0000.0001) %MON vort_a_sd                    =   7.3603634462070E-05
(PID.TID 0000.0001) %MON vort_p_mean                  =  -3.1845655664701E-05
(PID.TID 0000.0001) %MON vort_p_sd                    =   1.3162230862402E-04
(PID.TID 0000.0001) %MON surfExpan_theta_mean         =   1.3370402533662E-08
(PID.TID 0000.0001) %MON surfExpan_salt_mean          =   2.6846105332624E-07
(PID.TID 0000.0001) // =======================================================
(PID.TID 0000.0001) // End MONITOR dynamic field statistics
(PID.TID 0000.0001) // =======================================================
(PID.TID 0000.0001) // =======================================================
(PID.TID 0000.0001) // Field Current uVel   at iteration         20
(PID.TID 0000.0001) // CMIN =         -1.382321310356618E-01
(PID.TID 0000.0001) // CMAX =          1.720127216197475E-01
(PID.TID 0000.0001) // CINT =          1.149055009834849E-02
(PID.TID 0000.0001) // SYMBOLS (CMIN->CMAX): -abcdefghijklmnopqrstuvwxyz+
(PID.TID 0000.0001) //                  0.0: .
(PID.TID 0000.0001) // RANGE I (Lo:Hi:Step):(     1:    90:     1)
(PID.TID 0000.0001) // RANGE J (Lo:Hi:Step):(    40:     1:    -1)
(PID.TID 0000.0001) // RANGE K (Lo:Hi:Step):(   1:   1:   1)
(PID.TID 0000.0001) // =======================================================
(PID.TID 0000.0001) K =   1
(PID.TID 0000.0001)                I=10      I=20      I=30      I=40      I=50      I=60      I=70      I=80      I=90
(PID.TID 0000.0001) |--J--|123456789|123456789|123456789|123456789|123456789|123456789|123456789|123456789|123456789|
(PID.TID 0000.0001)     40 kllll..lmmmnqrsrqpn...................................................................jiij
(PID.TID 0000.0001)     39 mnprutuutrqqpn....l......................................................lll.........jjkkk
(PID.TID 0000.0001)     38 noppnnnnnnnnm............................................................llll.......lnoonn
(PID.TID 0000.0001)     37 oom...................................................................l....kl....lmmm..noo
(PID.TID 0000.0001)     36 on..........................................llm.....................kjgfeedhlk..knmnqpruuq
(PID.TID 0000.0001)     35 om..................................lkk...llmnok....kklm............kk.....llkklmnoqpppstq
(PID.TID 0000.0001)     34 ....................................klm..llmmmnm..kklnpqo...................lmoppqssrrro..
(PID.TID 0000.0001)     33 .....................................kkjjkklmnoonnnopqrsrom..................qqrstuutrpnm.
(PID.TID 0000.0001)     32 .....................................kjkklmmnpqppqqrsttttrp.................ruuvuuutromml.
(PID.TID 0000.0001)     31 .....................................oooooopopqprsstuuuutrp...............muyz+yvtsrpnmm..
(PID.TID 0000.0001)     30 ....................................suuttttsrrrstuuttuttsqo.............ntwyxwwvtsrqpnmm..
(PID.TID 0000.0001)     29 ..................................ptvuvvvvvuuttssssssssqponm............tttsqpooooonmllm..
(PID.TID 0000.0001)     28 ................................mnoqppqrrrsrrqqqpppqqqpomllll..........ooonnmmlkkkkkjjkl..
(PID.TID 0000.0001)     27 ...............m...............jijijijkmnnonmmnmmlmnonmlkjijjl....kjk..mmnmmmmljihiiii....
(PID.TID 0000.0001)     26 ...............lj............ibdeeeeefgikjkkjjjjiihijiiihghhhjkk..jihjkjklkllkjihggggg....
(PID.TID 0000.0001)     25 ...............iih....ll....hcccb--acddefefffffeeddeeddddceefhijk....iggjhhihgffffeede....
(PID.TID 0000.0001)     24 .............ifgggh..ihk....eg..ha-accbaabdccdeeeeddddbcdbcdeffhiiij..ihghffgffeeeeffh....
(PID.TID 0000.0001)     23 .............hdeffh..ifi....eh...fffffeeeeffgghiijhijjhiiggghhhhhhffg.....ikjihfeghijk....
(PID.TID 0000.0001)     22 l............gfffegiijjj....j..mmmlkkjlkjijkklkkllllmnmmljkklmllkkihil.......kjhhjkkkljkkm
(PID.TID 0000.0001)     21 khk.........hijiiiikllmkk......lpromnopommmmnnlkmmmmmolmnmljlnnmllkklm.........jjllkkkkllm
(PID.TID 0000.0001)     20 kik........kllnomkkmnnnlk.........mnpqqrppooponmoonmoommonlkmpnmllkkln..........jkkllkllmm
(PID.TID 0000.0001)     19 kii........noopsokklmmmlkil....ko......qrqpqqpppqpnnoonoonkkmnllkkjjkl............kkkklmmn
(PID.TID 0000.0001)     18 jhj........pllmokiiijijkjjlllosik....lopqppqqqpppponoooonlkklkkkkjihkml...........kkklmlkk
(PID.TID 0000.0001)     17 hij..........hhhfgeehhijjjkllnn......klmnmmonnmnnnnnnnonlkjjkiijjhghjmm..........nlkjkligi
(PID.TID 0000.0001)     16 ggh.......n..jiiigefhljjijlllm........klmllmmklmnnmnnnnnkjjjjjjjjihikklm.........mmkiiiggg
(PID.TID 0000.0001)     15 gffh.....mk..mnnnlmkkmmkjjkkl..........llklmnllpponoooonlkkljjklljiijihij.......pnnljjighg
(PID.TID 0000.0001)     14 hfee.....ihhmopppnppookjjjjij..........mkjkmommpppprrrpoponnlkmmkjjijihgi......noonnmljhhi
(PID.TID 0000.0001)     13 jigg.....mkkmnmmmlmonkikkkigg..........nmllnnmmoopqqqqqqsrqqqonnllllkkkik.....lnonnnnnllkk
(PID.TID 0000.0001)     12 nlkihebmoronmljjkkkkkkkmmkjiijkllk.....ponkijjlmnnonnooppqpqrqpnmmnnmlkj......npppoppopooo
(PID.TID 0000.0001)     11 ponmlnmsvxvsqqonooonlnoonmmmmmmmlkk...mponl..kkllklllllllmnnoonnmmnoonlk.....oprssrqrqpppp
(PID.TID 0000.0001)     10 qqpppttuuuvttxxvuttsqqqqqqpooonmmljk..pponj..olkkjjjkklkjiklmlmnnmmnonmk...ilrpqrttssrqrrq
(PID.TID 0000.0001)      9 srqrrtttrqppprvvtsrrrrqpqrrqqrqpoomihjmnnm..hlmmmlkkkkmmmlkklklmmmmlmmmj..hflpqpqqrssrqqst
(PID.TID 0000.0001)      8 qqqrrrrrpnnoonooooloprqpppqqqrrrrrrqrrrpnligjmooopppooooopommmmnmlmllllj..mjjlmmmoppqqonoq
(PID.TID 0000.0001)      7 mnnoonnoonlmnonmmmklmoonnnnnnopqqqpprtsqpmjilmnnnoqqrssqoppmmnnonnnnmmlifjomjijjijlmnnmlll
(PID.TID 0000.0001)      6 kkllllllmmmlllmlkkjijklllmmmmnnnnonklnnnoonmmmnnmmmmnoqpppommnooooooonnmmllmmkihijjkmmllkk
(PID.TID 0000.0001)      5 kkkkllllllllkkkkjjiiijkkkklllmmmlllkjjjjkmoonnmlllkkkklmnoonnnooonoooonnmlkifegijkkkllllkk
(PID.TID 0000.0001)      4 kkkkklllllllllllkkkkkllmnoonnnmmmlllllihijklmllkjkkkkllmmnnnnnnnnnnnnmmmnl...kjkkkkkllllkk
(PID.TID 0000.0001)      3 llllllllll.............................mmmmmmmmmlllllllllmmmmmmmmmlllllkk...lmnnmlllllllll
(PID.TID 0000.0001)      2 ...........................................mmmmmmmmllllllkklllll...lll......mmmmmlllllk...
(PID.TID 0000.0001)      1 ..........................................................................................
(PID.TID 0000.0001) // =======================================================
(PID.TID 0000.0001) // END OF FIELD                                          =
(PID.TID 0000.0001) // =======================================================
(PID.TID 0000.0001) 
(PID.TID 0000.0001) // =======================================================
(PID.TID 0000.0001) // Field Current vVel   at iteration         20
(PID.TID 0000.0001) // CMIN =         -1.385887191153876E-01
(PID.TID 0000.0001) // CMAX =          1.380213430405645E-01
(PID.TID 0000.0001) // CINT =          1.024481711688711E-02
(PID.TID 0000.0001) // SYMBOLS (CMIN->CMAX): -abcdefghijklmnopqrstuvwxyz+
(PID.TID 0000.0001) //                  0.0: .
(PID.TID 0000.0001) // RANGE I (Lo:Hi:Step):(     1:    90:     1)
(PID.TID 0000.0001) // RANGE J (Lo:Hi:Step):(    40:     1:    -1)
(PID.TID 0000.0001) // RANGE K (Lo:Hi:Step):(   1:   1:   1)
(PID.TID 0000.0001) // =======================================================
(PID.TID 0000.0001) K =   1
(PID.TID 0000.0001)                I=10      I=20      I=30      I=40      I=50      I=60      I=70      I=80      I=90
(PID.TID 0000.0001) |--J--|123456789|123456789|123456789|123456789|123456789|123456789|123456789|123456789|123456789|
(PID.TID 0000.0001)     40 noqrp.qrrrsssr...hh..................................................................jklmm
(PID.TID 0000.0001)     39 ooonnllllmmno...........................................................mmnn........klmnoo
(PID.TID 0000.0001)     38 onn.......................................................................moo......qq.nopo
(PID.TID 0000.0001)     37 nn...................................................................np...koo...mnppo.srpn
(PID.TID 0000.0001)     36 no.........................................pqqn....................mlj....jimo.klmnmmllnpo
(PID.TID 0000.0001)     35 ...................................nmno..noppqqp...klnpq...................jiijjkkkkkjko..
(PID.TID 0000.0001)     34 ....................................lkm.noooonnn.lkkklmnn...................jgiigghhggik..
(PID.TID 0000.0001)     33 ....................................mhhjlmlklmlkkjiiiiijjkm.................nlkifdeffffhl.
(PID.TID 0000.0001)     32 ....................................oigghijiijihihgghhhihhl................vqlijhfghgfgj..
(PID.TID 0000.0001)     31 ....................................khfffffghhgfgggghijjihj..............ljiffgghhhhhhil..
(PID.TID 0000.0001)     30 ...................................lgedcddccdffffgghijkkjhi............ohijjiiiijkjkkkkm..
(PID.TID 0000.0001)     29 .................................mlkhfccefeefggghhhjllmmljij...........mllkkjjjlmlllllln..
(PID.TID 0000.0001)     28 ...............................nmkkmljhgijiijjjjlmmmooonnmlkk.........nlmmmnmmnppoooon....
(PID.TID 0000.0001)     27 ..............nl..............nnmmmnnllmnnmmmlmmnooooppppommlm...nnqs.ooononoopqqqqppn....
(PID.TID 0000.0001)     26 ..............mmn...........loqpmlmmllmoonnnnmmnnnnmnoooonmnoooo....sqpnnoononoprqpoom....
(PID.TID 0000.0001)     25 ..............mnqr...mml...lmp.mgghiijkllllkkkkllllkjkkkjklnooopn....mljljkmllmnponnmk....
(PID.TID 0000.0001)     24 ............nmnpstr.mmmm...knp..-cddefgiiiiiiijlmmlkjjiijlmmmmlkjjmn.....gjiijloonmmlo....
(PID.TID 0000.0001)     23 ............klmnoon.kkij...ko...eghijkkklllmnoprrssrssttuuutrqomnnppp.......knqrqppqtv....
(PID.TID 0000.0001)     22 p...........jmmmlihfegim......opnlnoommmlklmnnoqqrrssstusqpqqpoopqpoml........mmnoqrtuqpnn
(PID.TID 0000.0001)     21 lkk........kklljhiijjknoo......k.lnmnnnmlllmnoopoopppqqrqpppnmmmnnnnnm.........jloqqpponml
(PID.TID 0000.0001)     20 kkn.......nlkkkhgilmoopon......o......kmklllmmmmnopqqrrrrrrqqqqqpooqrq...........qqqqqponl
(PID.TID 0000.0001)     19 lkm.......tqsttsrooqrtsqnlm...jjl.....mnmmllkkkklmmoqqppqqqqqssqonnopo...........qponnmnoo
(PID.TID 0000.0001)     18 omm.......u.xxy+ytqqqrrqonmmmpv.....mmnnoooonnmmnmllnppooopqqrsrqonnqpm..........rqqpponpq
(PID.TID 0000.0001)     17 qop.......s.vtttrponmlmmlllmmn.......nnnnooooqpnnmlllnonnnooqpqqpommopn.........noooqstqqr
(PID.TID 0000.0001)     16 qqq......sr.pomllhdijhhjkkkll.........omllmllnolkjjklmlkkmnnnnopnmmmopqo........pnnnprsrqq
(PID.TID 0000.0001)     15 pqrq....pts.lmkjkfgnmffhjmlkk.........nnlkiijkkjihiijkkjikljkooomlmmnprqo......ponommooppo
(PID.TID 0000.0001)     14 pqqp....kmommlkjjgjnmihjmnmmn.........lnmljjkklkiijiijjijkkjlpommlmnnnqqn.....nonnomlnnoqp
(PID.TID 0000.0001)     13 qqpp....hmpomlmmnllmmlknpomln.........monmllmnmmllljijllkkllnpnnonnonnpo.....mponopnnooqrq
(PID.TID 0000.0001)     12 srqpmjinmoqqnmppppoopppqrqpoonnnnn....npomh.ooopponmmmmnnnnopnmnrrpooopn.....nqoopqppppqrs
(PID.TID 0000.0001)     11 uusrqrsrrrsusruuvwvvututtttsqqrrqqp..mprqpj.mmorrqooooopqqrrrpoptutrqqpn....mqsssssrrsrrst
(PID.TID 0000.0001)     10 vvvvuvvtsqqsstwyzzyxwwvvwvuutssrqqsu.kpssp..dimoqqqqqqpqrsuutrqsvwvsrrrn..inpsuutuvuuuvutu
(PID.TID 0000.0001)      9 vwxyyyxvurprtuvuqortvwwwwvvvuttvutwvsqrsrm.kkmoqssrrssrtuwxwusstvvutttrp.fgjptuwxxxwvwwvuu
(PID.TID 0000.0001)      8 tvwvvvuutrrstttqlhhotuvvuuttsstuuuyyvuuuronnopqtvwvwwuuvwwwwusssuuuuuutv.fbfnrrrruvttvvtrr
(PID.TID 0000.0001)      7 qrqpppppqpopqqrqolghkmprrqqpqqrsttuusrrqppqrrrsuvuuvutstsrssrrqqrstttttsrqqsutrqppppqstsqq
(PID.TID 0000.0001)      6 nnmmmmnnoooopooopoliiknonnnopqqqqqqqpppnmnprrrtuusssqonnnoqrrqpqrsssstttttsqpppppoooopqqpo
(PID.TID 0000.0001)      5 mlllllmmnmlmmmmmnnmlllkjiikmnnnnnnnooonmmmopqqrsqqponlllmnoppoopqqqqqrrpml..mmooonnnnnnmmm
(PID.TID 0000.0001)      4 kjjkkkkkkk............................lkllmnmmnonmmmlllmnnooonnnooooonmkj...jmnnnnmmmllkll
(PID.TID 0000.0001)      3 ..........................................klllmmmmllkklmnnnmmlll..mnmm.....lmnnnmmmmlkk...
(PID.TID 0000.0001)      2 ..........................................................................................
(PID.TID 0000.0001)      1 ..........................................................................................
(PID.TID 0000.0001) // =======================================================
(PID.TID 0000.0001) // END OF FIELD                                          =
(PID.TID 0000.0001) // =======================================================
(PID.TID 0000.0001) 
(PID.TID 0000.0001) // =======================================================
(PID.TID 0000.0001) // Field Current theta  at iteration         20
(PID.TID 0000.0001) // CMIN =         -2.015206589106808E+00
(PID.TID 0000.0001) // CMAX =          2.985762716187804E+01
(PID.TID 0000.0001) // CINT =          1.180475324110550E+00
(PID.TID 0000.0001) // SYMBOLS (CMIN->CMAX): -abcdefghijklmnopqrstuvwxyz+
(PID.TID 0000.0001) //                  0.0: .
(PID.TID 0000.0001) // RANGE I (Lo:Hi:Step):(     1:    90:     1)
(PID.TID 0000.0001) // RANGE J (Lo:Hi:Step):(    40:     1:    -1)
(PID.TID 0000.0001) // RANGE K (Lo:Hi:Step):(   1:   1:   1)
(PID.TID 0000.0001) // =======================================================
(PID.TID 0000.0001) K =   1
(PID.TID 0000.0001)                I=10      I=20      I=30      I=40      I=50      I=60      I=70      I=80      I=90
(PID.TID 0000.0001) |--J--|123456789|123456789|123456789|123456789|123456789|123456789|123456789|123456789|123456789|
(PID.TID 0000.0001)     40 aabcdbbaa----abcdddbbbbbbbbbbbbbbbbbbbbbbbbbbbbbbbbbbbbbbbbbbbbbbbbbbbbbbbbbbbbbbbbbbbbaaa
(PID.TID 0000.0001)     39 bccddccbba----bbbedbbbbbbbbbbbbbbbbbbbbbbbbbbbbbbbbbbbbbbbbbbbbbbbbbbbbb----bbbbbbbbbbaaab
(PID.TID 0000.0001)     38 efffeeddddbbbbbbbbbbbbbbbbbbbbbbbbbbbbbbbbbbbbbbbbbbbbbbbbbbbbbbbbbbbbbb-----bbbbbbcaaabdd
(PID.TID 0000.0001)     37 gghbbbbbbbbbbbbbbbbbbbbbbbbbbbbbbbbbbbbbbbbbbbbbbbbbbbbbbbbbbbbbbbbbbbcbbbbabbbbdccdfbdeef
(PID.TID 0000.0001)     36 hhbbbbbbbbbbbbbbbbbbbbbbbbbbbbbbbbbbbbbbbbbcbaabbbbbbbbbbbbbbbbbbbbdcccbbbbccdbddfgghhhhhh
(PID.TID 0000.0001)     35 ggbbbbbbbbbbbbbbbbbbbbbbbbbbbbbbbbba--abbbccddcbbbbeeffgbbbbbbbbbbbbbbbbbbcceeeeefghijjiih
(PID.TID 0000.0001)     34 bbbbbbbbbbbbbbbbbbbbbbbbbbbbbbbbbbb---abcdddddddbeeeffgggbbbbbbbbbbbbbbbbbbcbceffghijjjjbb
(PID.TID 0000.0001)     33 bbbbbbbbbbbbbbbbbbbbbbbbbbbbbbbbbbbb-abbcddeeeeefffffgghhhibbbbbbbbbbbbbbbbbbbehjjkkkkkkkb
(PID.TID 0000.0001)     32 bbbbbbbbbbbbbbbbbbbbbbbbbbbbbbbbbbbbabccdeeffffgghhhhhiiiijbbbbbbbbbbbbbbbbccceklmmmmlllkb
(PID.TID 0000.0001)     31 bbbbbbbbbbbbbbbbbbbbbbbbbbbbbbbbbbbbefghhhiiiiijjjjjkkkklkkbbbbbbbbbbbbbbhilkilnoonnnmmmbb
(PID.TID 0000.0001)     30 bbbbbbbbbbbbbbbbbbbbbbbbbbbbbbbbbbbmlllllmmmmmlllmmmmnnnnmlbbbbbbbbbbbblnpqqqqqqqpppoooobb
(PID.TID 0000.0001)     29 bbbbbbbbbbbbbbbbbbbbbbbbbbbbbbbbbppppppoooooooooooooppppoonmbbbbbbbbbbbrrrrrrrrqqqqqppppbb
(PID.TID 0000.0001)     28 bbbbbbbbbbbbbbbbbbbbbbbbbbbbbbboqrqrqqqqrrrrrrrqrrrrrrrqqppoobbbbbbbbbtsssssssrrrrrrqqqpbb
(PID.TID 0000.0001)     27 bbbbbbbbbbbbbbvvbbbbbbbbbbbbbbrsssssttttttttttttttttttssrrqqqqbbbsstubuuuuuuuuttttsssrbbbb
(PID.TID 0000.0001)     26 bbbbbbbbbbbbbbvuubbbbbbbbbbbutuuuuuvvvvvvvvvvvvvvvvuutttssrrrstvbtuvwwvvvvvvvvvuuttsrrbbbb
(PID.TID 0000.0001)     25 bbbbbbbbbbbbbbvvvxbbbwwxbbbuuvwwwwwxxxxxxwwwwwwvwvvvuuuuutttuuvwxbbbxwwwwwwvvvvvvuttrqbbbb
(PID.TID 0000.0001)     24 bbbbbbbbbbbbwwwwxyybwwxxbbbwwwbxxxyyyxxxxxxwwwwwwwwvvvvvvvvvvwwxxwvwbxwwwwwwwwwvvvuutrbbbb
(PID.TID 0000.0001)     23 bbbbbbbbbbbbxwxxyyzbxxyybbbxxxbbyyyyyyyyxxxxxxxxxxxxxxxxxwwxxxxwwxwwwbbbbwwxxxwwwwwvvvbbbb
(PID.TID 0000.0001)     22 wbbbbbbbbbbbxxyyyyyyyyyybbbxxbyyzzzzzzzzzzzzyyyyyyyyyyxwwwxxxxxwwwwwxwbbbbbbyxxxxxxxxxxxxw
(PID.TID 0000.0001)     21 xwxbbbbbbbbxxxxyyzzyzzz++bbbbbzyzzzzzzz++zzzzzyyyyyyyyxxwwwwxwvvwvvvvvbbbbbbbbyyyyyyyyyyxx
(PID.TID 0000.0001)     20 xwwbbbbbbbyyyyyyyzzzzzzz+bbbbbbzbzzzzz++++zzzzzzzyyyyyxxxwwxxwvvwvvvvubbbbbbbbbyyyyyyyyxwx
(PID.TID 0000.0001)     19 wvvbbbbbbbyzzyyxxyyzzzzzzzzbbbzzzbbbbb++++++z++z+zzzyyyyxxxxxwwwwwwwvvbbbbbbbbbbbyyyxxwwwx
(PID.TID 0000.0001)     18 vutbbbbbbbzzzyyyxyyzyyzzzzzzzzzzzbbb++++++++++++++++zzzyyyyxxwwwvvwvvuubbbbbbbbbbyyxxwvvww
(PID.TID 0000.0001)     17 uutbbbbbbbzbzyyyyyyyyyyyyyyyyzzbbbbbzzzzzzzzzzzzzzzzzzyyyyyxxxwvvuvvuuubbbbbbbbbyyyyxwuuvu
(PID.TID 0000.0001)     16 uusbbbbbbyybzyyyyxxxxxxxwxxxxybbbbbbbyyyyyyyyyyzzyyyyyyyyyyyyxwwvvvuutttbbbbbbbbyyyyywvuvu
(PID.TID 0000.0001)     15 utsrbbbbxyybxxxxxwwwwwwwvvwwxbbbbbbbbbxxxxxxxxxxxxxxxyxxxyyyyxwwwvuuutsssbbbbbbxxxxxxxwwvu
(PID.TID 0000.0001)     14 utsqbbbbxyxxwxwwwxwvvuuuuuuuubbbbbbbbbwwwwwwwwwwwwwwwwwwxxxxxwwwvvuutssssbbbbbvwxwwwxwwwvu
(PID.TID 0000.0001)     13 tttsbbbbwwwvvvuuuvvvuuuttttttbbbbbbbbbvvvvvvvvvuuuuuuvvvvvwwwwvvvuuutsssrbbbbvwwwvvvwwvvvu
(PID.TID 0000.0001)     12 sstsststtutsttssssssstsrrssssrqrrqbbbbuuuttttsssssssssssstuuuttttsstssrqbbbbbuvvutttuutttt
(PID.TID 0000.0001)     11 qpqrssssrrrqrrrqqppoprqppqpppqqqqqqbbttssssbrrqqqrrrrqqqqrrrqqqrrrrsrrqpbbbbprtsrrrrrqqqqq
(PID.TID 0000.0001)     10 mmmmoppponoonoooonnnnnnmmnmmmnnnoooobqrqqqqbpppppqpoppppppponooopooppppobbnnopppoonoooonnm
(PID.TID 0000.0001)      9 jiiijjjjiijjijjjjijjjjiiijjjijkllmnmmnoooobnnnnnooonnnnnnnmmllmmmmlmmmmmbmmmmmmmllkjkkkjij
(PID.TID 0000.0001)      8 ffffffggffgghhgggffghhgggghhhiijjjkkjklllllkkllllllmmllllkkjjjkkkkkkkkljblkjjjjihhhgggffef
(PID.TID 0000.0001)      7 ddddeeeffeeefgeeeeeeeeeeeffffggghgghhhijjjjjjjkkjiiihhiiiiiihhiiiiiiijiiijjihhgfeeeeeedddd
(PID.TID 0000.0001)      6 cccddddeeddddeeeeeedeeeeeeeddeeeeeeffffghhhhhhiihffeeefffgfffffghhhhhhhhhhhgffeddccccccccc
(PID.TID 0000.0001)      5 cccdddddddddddddddddddddccddddeeeeeeeeeeefffeeefedcccccdddedddeeeeffffeeeeeeddcccccccbcbbc
(PID.TID 0000.0001)      4 cccdcccbbccbbccccccccbbbbbbbccccccbbcccccccccccccccccccccccccccccccddcccccbbaaabbbcccbbbcc
(PID.TID 0000.0001)      3 bbbbbaaaaabbbbbbbbbbbbbbbbbbbbbbbbbbbbbbbbbbbbbbbbbbbbbbbaaabbbbbbbbbbbbbbbbaaaaabbcccbbbb
(PID.TID 0000.0001)      2 bbbbbbbbbbbbbbbbbbbbbbbbbbbbbbbbbbbbbbbbbbbbbbbbbbbaaaaaaaaaaaaabbaaaabbbbbaaaaaabbbbbbbbb
(PID.TID 0000.0001)      1 bbbbbbbbbbbbbbbbbbbbbbbbbbbbbbbbbbbbbbbbbbbbbbbbbbbbbbbbbbbbbbbbbbbbbbbbbbbbbbbbbbbbbbbbbb
(PID.TID 0000.0001) // =======================================================
(PID.TID 0000.0001) // END OF FIELD                                          =
(PID.TID 0000.0001) // =======================================================
(PID.TID 0000.0001) 
(PID.TID 0000.0001) // =======================================================
(PID.TID 0000.0001) // Field Current etaN   at iteration         20
(PID.TID 0000.0001) // CMIN =         -2.849429422606130E+00
(PID.TID 0000.0001) // CMAX =          1.540462261210321E+00
(PID.TID 0000.0001) // CINT =          1.625885808820908E-01
(PID.TID 0000.0001) // SYMBOLS (CMIN->CMAX): -abcdefghijklmnopqrstuvwxyz+
(PID.TID 0000.0001) //                  0.0: .
(PID.TID 0000.0001) // RANGE I (Lo:Hi:Step):(    -1:    92:     1)
(PID.TID 0000.0001) // RANGE J (Lo:Hi:Step):(    42:    -1:    -1)
(PID.TID 0000.0001) // RANGE K (Lo:Hi:Step):(   1:   1:   1)
(PID.TID 0000.0001) // =======================================================
(PID.TID 0000.0001) K =   1
(PID.TID 0000.0001)                I=8       I=18      I=28      I=38      I=48      I=58      I=68      I=78      I=88
(PID.TID 0000.0001) |--J--|101234567|901234567|901234567|901234567|901234567|901234567|901234567|901234567|901234567|9012
(PID.TID 0000.0001)     42 ............................................hhgggggggggghhggggfggg..hggg.....kkkkkkkkkkkk.....
(PID.TID 0000.0001)     41 ..............................................................................................
(PID.TID 0000.0001)     40 nnnnnoo.rrrssssttuuuu..................................................................nnnnnnn
(PID.TID 0000.0001)     39 mnnnoopqrrssttuu...uu.....................................................----........llmmmnnn
(PID.TID 0000.0001)     38 mnnoppqqrssttuv...........................................................aaabb......kkkllmnno
(PID.TID 0000.0001)     37 nnoop..................................................................cd...bcc...hiijj.lmnnoo
(PID.TID 0000.0001)     36 noop.........................................hhii....................cdeeeeddddd.gghijklmnnoop
(PID.TID 0000.0001)     35 oopq.................................eeef..hhiiiij...llmmn...........def....eddeefghijklmnoopq
(PID.TID 0000.0001)     34 .....................................fffg.hiiijjjj.lkkllmnp..................efffghijklmnp....
(PID.TID 0000.0001)     33 p.....................................hhhhiijjjjkkkkllmmnoopp.................fggijjklnnopp...
(PID.TID 0000.0001)     32 p.....................................iiiiijjkkllllmmmnnooppp................ghijklmmnooopp...
(PID.TID 0000.0001)     31 ......................................jjjjkkkllmmmnnnnooppppp..............klllllmnnoooppp....
(PID.TID 0000.0001)     30 .....................................mlmmmmmmmnnnooooopppqqqq............mmmnoooooppppppqq....
(PID.TID 0000.0001)     29 ...................................qppppooooooooppppppqqqqqqqp...........ppppppppqqqqqqqqq....
(PID.TID 0000.0001)     28 .................................tssrrqqqqqqqqqqqqqqqqqqqqqqqqp.........rrqqqqqqqqqrqqqrrr....
(PID.TID 0000.0001)     27 ................tt..............vuttsssrrrrrrrrrqqqrrrrrrrqqqqpp...uutt.sssrrrrrrrrrrrrr......
(PID.TID 0000.0001)     26 ................ttt...........xwvvutttssssssrrrrrrrrrrrrrrrqqqpppp.uuttttttsssssrrrrrrrr......
(PID.TID 0000.0001)     25 ................uttt...vuu...yxwvvuutttsssssssrrrrrrrrrrrrqqqqqpppp...uuutttttsssssrrrrr......
(PID.TID 0000.0001)     24 ..............uuuuuuv.vuuu...yxx.wuutttsssssssssrrrrrrrrqqqqqqppppppoo.uuttttttssssssrrr......
(PID.TID 0000.0001)     23 ..............uuuuuuv.vuuu...yyx..uttttsssssssssssrrrrrrqqqqqqpppppoooo....ttttsssssssrs......
(PID.TID 0000.0001)     22 sss...........uuuuuuuuuuuu...zy.tutttssssssssssssrrrrrrrrqqqqqppppoooooo......tttttsssssttsss.
(PID.TID 0000.0001)     21 ssttt........uuuuuuuuuuuuuu.....utttsssssssssssssssssrrrrqqqqppppooooooo........tttttttsstsstt
(PID.TID 0000.0001)     20 sssss.......uuuuuuuuuuuuuuu......u.ttssssstssssssssssssrrrqqqqpppooooooo.........ttttttttsssss
(PID.TID 0000.0001)     19 sssss.......vvvuuuuuuuuuuuuuu...uuv.....sttttttstsssssssrrrqqqqppooooooo...........uuutttsssss
(PID.TID 0000.0001)     18 sssss.......vvvvvuuvvvuuvuuuuuuuuuv...uuuutttttttttttssssrrrqqqpppoooonnn..........vuuuttsssss
(PID.TID 0000.0001)     17 sssss.......w.xwwwvvvvvvvvuuuuuuu.....uuuutttttttttttssssrrrrqqqppooooonn.........wwvuuttsssss
(PID.TID 0000.0001)     16 ttsss......yx.yxxwwwwvwvvvvuuuuu.......vuutttttttttttsssssrrrrqqqppoooonnm........xwwvvuutttss
(PID.TID 0000.0001)     15 utttss....+zy.yxxwwwvvvvvvvuuuu.........vuuuutttuuttttssssrrrrrqqppppoonnmm......zyxwwvvvuuttt
(PID.TID 0000.0001)     14 uuutts....+zyyyxxwwwvvvuuuuuutt.........vuutttttttttssssssrrrrrrqqppppoonmm.....+zyxwwwvvvuuut
(PID.TID 0000.0001)     13 vvuutt....zzyyxxwwvvvvvuvvuuttt.........vuutttttttsssrrrrrrrrrrrqqppppoonnm....++zyxwwwwwvvvuu
(PID.TID 0000.0001)     12 vvuuuttvxyyyyxxxwwvvvvvvvuuuttttssrq....uutssttttssrrrrqqqqqqqqqqqqpppoonm.....+zyxxwwwvvvvvuu
(PID.TID 0000.0001)     11 vuuuuuuwwwwxxwwxwwwvvvuuuuuutttssrrqq..utssrr.uttsrrrqqqqqqqqppppqppooonnm....yyxxwwvvvvuvvuuu
(PID.TID 0000.0001)     10 uttttttuuuuuuuuvvvvuuuuuttttssssrrrqqp.ssrrqq.ttssrrrqqqqqqppppppppoonnnmm..vvwwvvuuutttttuttt
(PID.TID 0000.0001)      9 ssssssssrrrrsssssssssssssrrrrrrrrrqrrqqqqqpp.pqrrrrrqqqqqqqqpoooopoonnnmml.sttuuttsssrrsrrssss
(PID.TID 0000.0001)      8 ppqqqqppppppqqqqqpqqqqqqqqppppppppppppppppooooppqqqqqqppppppoonoooonnnnmmm.qrsrrrqqqqpqqppppqq
(PID.TID 0000.0001)      7 oooonnnnnoooooooooonoooooooonnnnnnnnnmmmmmnnnooooonnnmmmnnmmmmmmmnnnnmmmmnnnopqppooooooooooooo
(PID.TID 0000.0001)      6 mmmmmmnnnnnnnnnnnnnmmmnnnnnnnnnmmmlllkkkkklmmmmmmmlkkjjjkkklllllllllllmmmmnnnnnnnnnnnnnnnnmmmm
(PID.TID 0000.0001)      5 mmmmmmmmnnnmnnnmmmmmmmmmmmmmmmmlllkkkkkkjjkkkkkkkjjiiiiiiijjkkjjjkkkkkkkkkkkllmmnmmmmmmmmmmmmm
(PID.TID 0000.0001)      4 mmmmmmmmmmmmnnnnnnnnnnnnnnnmmllllkkkkkkkkkjjjjiiiihhhhhhiiiiiiiiiiiiiiiiiijj..nnmmmmmmmmlmmmmm
(PID.TID 0000.0001)      3 mmmmmmmmmmmm............................lkkjjiiiihhhhhhhhhhhhhhhhhhhhhhhhhi..mmmllllllllllmmmm
(PID.TID 0000.0001)      2 ............................................hhgggggggggghhggggfggg..hggg.....kkkkkkkkkkkk.....
(PID.TID 0000.0001)      1 ..............................................................................................
(PID.TID 0000.0001)      0 nnnnnoo.rrrssssttuuuu..................................................................nnnnnnn
(PID.TID 0000.0001)     -1 mnnnoopqrrssttuu...uu.....................................................----........llmmmnnn
(PID.TID 0000.0001) // =======================================================
(PID.TID 0000.0001) // END OF FIELD                                          =
(PID.TID 0000.0001) // =======================================================
(PID.TID 0000.0001) 
(PID.TID 0000.0001)  MDS_WRITE_FIELD: it,rec,kS,kL,kH=      20     1  15   1  15 file=U.0000000020
(PID.TID 0000.0001)  MDS_WRITE_FIELD: it,rec,kS,kL,kH=      20     1  15   1  15 file=V.0000000020
(PID.TID 0000.0001)  MDS_WRITE_FIELD: it,rec,kS,kL,kH=      20     1  15   1  15 file=T.0000000020
(PID.TID 0000.0001)  MDS_WRITE_FIELD: it,rec,kS,kL,kH=      20     1  15   1  15 file=S.0000000020
(PID.TID 0000.0001)  MDS_WRITE_FIELD: it,rec,kS,kL,kH=      20     1   1   1   1 file=Eta.0000000020
(PID.TID 0000.0001)  MDS_WRITE_FIELD: it,rec,kS,kL,kH=      20     1  15   1  15 file=W.0000000020
(PID.TID 0000.0001)  MDS_WRITE_FIELD: it,rec,kS,kL,kH=      20     1  15   1  15 file=PH.0000000020
(PID.TID 0000.0001)  MDS_WRITE_FIELD: it,rec,kS,kL,kH=      20     1   1   1   1 file=PHL.0000000020
(PID.TID 0000.0001)  MDS_WRITE_FIELD: it,rec,kS,kL,kH=      20     1   1   1   1 file=ETAtave.0000000020
(PID.TID 0000.0001)  MDS_WRITE_FIELD: it,rec,kS,kL,kH=      20     1  15   1  15 file=Ttave.0000000020
(PID.TID 0000.0001)  MDS_WRITE_FIELD: it,rec,kS,kL,kH=      20     1  15   1  15 file=Stave.0000000020
(PID.TID 0000.0001)  MDS_WRITE_FIELD: it,rec,kS,kL,kH=      20     1  15   1  15 file=uVeltave.0000000020
(PID.TID 0000.0001)  MDS_WRITE_FIELD: it,rec,kS,kL,kH=      20     1  15   1  15 file=vVeltave.0000000020
(PID.TID 0000.0001)  MDS_WRITE_FIELD: it,rec,kS,kL,kH=      20     1  15   1  15 file=wVeltave.0000000020
(PID.TID 0000.0001)  MDS_WRITE_FIELD: it,rec,kS,kL,kH=      20     1   1   1   1 file=Eta2tave.0000000020
(PID.TID 0000.0001)  MDS_WRITE_FIELD: it,rec,kS,kL,kH=      20     1  15   1  15 file=UTtave.0000000020
(PID.TID 0000.0001)  MDS_WRITE_FIELD: it,rec,kS,kL,kH=      20     1  15   1  15 file=VTtave.0000000020
(PID.TID 0000.0001)  MDS_WRITE_FIELD: it,rec,kS,kL,kH=      20     1  15   1  15 file=WTtave.0000000020
(PID.TID 0000.0001)  MDS_WRITE_FIELD: it,rec,kS,kL,kH=      20     1  15   1  15 file=UStave.0000000020
(PID.TID 0000.0001)  MDS_WRITE_FIELD: it,rec,kS,kL,kH=      20     1  15   1  15 file=VStave.0000000020
(PID.TID 0000.0001)  MDS_WRITE_FIELD: it,rec,kS,kL,kH=      20     1  15   1  15 file=WStave.0000000020
(PID.TID 0000.0001)  MDS_WRITE_FIELD: it,rec,kS,kL,kH=      20     1  15   1  15 file=TTtave.0000000020
(PID.TID 0000.0001)  MDS_WRITE_FIELD: it,rec,kS,kL,kH=      20     1  15   1  15 file=UUtave.0000000020
(PID.TID 0000.0001)  MDS_WRITE_FIELD: it,rec,kS,kL,kH=      20     1  15   1  15 file=VVtave.0000000020
(PID.TID 0000.0001)  MDS_WRITE_FIELD: it,rec,kS,kL,kH=      20     1  15   1  15 file=UVtave.0000000020
(PID.TID 0000.0001)  MDS_WRITE_FIELD: it,rec,kS,kL,kH=      20     1  15   1  15 file=Tdiftave.0000000020
(PID.TID 0000.0001)  MDS_WRITE_FIELD: it,rec,kS,kL,kH=      20     1  15   1  15 file=PhHytave.0000000020
(PID.TID 0000.0001)  MDS_WRITE_FIELD: it,rec,kS,kL,kH=      20     1   1   1   1 file=PHLtave.0000000020
(PID.TID 0000.0001)  MDS_WRITE_FIELD: it,rec,kS,kL,kH=      20     1   1   1   1 file=uFluxtave.0000000020
(PID.TID 0000.0001)  MDS_WRITE_FIELD: it,rec,kS,kL,kH=      20     1   1   1   1 file=vFluxtave.0000000020
(PID.TID 0000.0001)  MDS_WRITE_FIELD: it,rec,kS,kL,kH=      20     1   1   1   1 file=tFluxtave.0000000020
(PID.TID 0000.0001)  MDS_WRITE_FIELD: it,rec,kS,kL,kH=      20     1   1   1   1 file=sFluxtave.0000000020
(PID.TID 0000.0001)  MDS_WRITE_FIELD: it,rec,kS,kL,kH=      20     1   1   1   1 file=PHL2tave.0000000020
(PID.TID 0000.0001)  MDS_WRITE_FIELD: it,rec,kS,kL,kH=      20     1  15   1  15 file=Convtave.0000000020
(PID.TID 0000.0001) // Time-average data written, t-step        20
(PID.TID 0000.0001) 
(PID.TID 0000.0001)  MDS_WRITE_FIELD: it,rec,kS,kL,kH=      20     1  15   1  15 file=GM_Kwx-T.0000000020
(PID.TID 0000.0001)  MDS_WRITE_FIELD: it,rec,kS,kL,kH=      20     1  15   1  15 file=GM_Kwy-T.0000000020
(PID.TID 0000.0001)  MDS_WRITE_FIELD: it,rec,kS,kL,kH=      20     1  15   1  15 file=GM_Kwz-T.0000000020
(PID.TID 0000.0001)  MDS_WRITE_FIELD: it,rec,kS,kL,kH=      20     1  15   1  15 file=pickup_cd.0000000020
(PID.TID 0000.0001)  MDS_WRITE_FIELD: it,rec,kS,kL,kH=      20     2  15   1  15 file=pickup_cd.0000000020
(PID.TID 0000.0001)  MDS_WRITE_FIELD: it,rec,kS,kL,kH=      20     3  15   1  15 file=pickup_cd.0000000020
(PID.TID 0000.0001)  MDS_WRITE_FIELD: it,rec,kS,kL,kH=      20     4  15   1  15 file=pickup_cd.0000000020
(PID.TID 0000.0001)  MDS_WRITE_FIELD: it,rec,kS,kL,kH=      20    61   1   1   1 file=pickup_cd.0000000020
(PID.TID 0000.0001)  MDS_WRITE_FIELD: it,rec,kS,kL,kH=      20    -1  15   1  15 file=pickup.0000000020
(PID.TID 0000.0001)  MDS_WRITE_FIELD: it,rec,kS,kL,kH=      20    -2  15   1  15 file=pickup.0000000020
(PID.TID 0000.0001)  MDS_WRITE_FIELD: it,rec,kS,kL,kH=      20    -3  15   1  15 file=pickup.0000000020
(PID.TID 0000.0001)  MDS_WRITE_FIELD: it,rec,kS,kL,kH=      20    -4  15   1  15 file=pickup.0000000020
(PID.TID 0000.0001)  MDS_WRITE_FIELD: it,rec,kS,kL,kH=      20    -5  15   1  15 file=pickup.0000000020
(PID.TID 0000.0001)  MDS_WRITE_FIELD: it,rec,kS,kL,kH=      20    -6  15   1  15 file=pickup.0000000020
(PID.TID 0000.0001)  MDS_WRITE_FIELD: it,rec,kS,kL,kH=      20    -7  15   1  15 file=pickup.0000000020
(PID.TID 0000.0001)  MDS_WRITE_FIELD: it,rec,kS,kL,kH=      20    -8  15   1  15 file=pickup.0000000020
(PID.TID 0000.0001)  MDS_WRITE_FIELD: it,rec,kS,kL,kH=      20  -121   1   1   1 file=pickup.0000000020
(PID.TID 0000.0001)  MDS_WRITE_FIELD: it,rec,kS,kL,kH=      20  -122   1   1   1 file=pickup.0000000020
(PID.TID 0000.0001)  MDS_WRITE_FIELD: it,rec,kS,kL,kH=      20  -123   1   1   1 file=pickup.0000000020
(PID.TID 0000.0001) %CHECKPOINT        20 0000000020
 EXTERNAL_FIELDS_LOAD,        20 : iP,iLd,i0,i1=    1    2    1    2 ; Wght=  0.8333333333  0.1666666667
 EXTERNAL_FIELDS_LOAD: (fu0,1),fu,fv= -3.5633E-02 -1.4435E-02 -3.2100E-02 -5.0653E-02
 EXTERNAL_FIELDS_LOAD: SST,SSS,Q,E-P=  7.1005E-01  3.4666E+01  2.6156E+02  1.1093E-05
DEBUG_STATS_RL:          Uvel (THERMODYNAMICS)  min= -1.38232131035662E-01
DEBUG_STATS_RL:          Uvel (THERMODYNAMICS)  max=  1.72012721619747E-01
DEBUG_STATS_RL:          Uvel (THERMODYNAMICS) mean= -2.46175146875079E-03
DEBUG_STATS_RL:          Uvel (THERMODYNAMICS) S.D.=  2.63564515547955E-02
DEBUG_STATS_RL:          Vvel (THERMODYNAMICS)  min= -1.51764985515629E-01
DEBUG_STATS_RL:          Vvel (THERMODYNAMICS)  max=  1.38021343040565E-01
DEBUG_STATS_RL:          Vvel (THERMODYNAMICS) mean=  2.81795864805112E-03
DEBUG_STATS_RL:          Vvel (THERMODYNAMICS) S.D.=  1.91266810893072E-02
DEBUG_STATS_RL:          Wvel (THERMODYNAMICS)  min= -2.35268959952624E-04
DEBUG_STATS_RL:          Wvel (THERMODYNAMICS)  max=  2.73824041699485E-04
DEBUG_STATS_RL:          Wvel (THERMODYNAMICS) mean=  3.60112935625144E-07
DEBUG_STATS_RL:          Wvel (THERMODYNAMICS) S.D.=  2.40979449739704E-05
DEBUG_STATS_RL:         Theta (THERMODYNAMICS)  min= -2.01243834275901E+00
DEBUG_STATS_RL:         Theta (THERMODYNAMICS)  max=  2.98662617730509E+01
DEBUG_STATS_RL:         Theta (THERMODYNAMICS) mean=  3.23829225805231E+00
DEBUG_STATS_RL:         Theta (THERMODYNAMICS) S.D.=  5.85659706731083E+00
DEBUG_STATS_RL:          Salt (THERMODYNAMICS)  min=  3.00000000000000E-02
DEBUG_STATS_RL:          Salt (THERMODYNAMICS)  max=  3.74710986491470E+01
DEBUG_STATS_RL:          Salt (THERMODYNAMICS) mean=  1.88751260797725E+01
DEBUG_STATS_RL:          Salt (THERMODYNAMICS) S.D.=  1.73006141363609E+01
DEBUG_STATS_RL:         GtNm1 (THERMODYNAMICS)  min= -3.37672825617818E-06
DEBUG_STATS_RL:         GtNm1 (THERMODYNAMICS)  max=  3.98693175055096E-06
DEBUG_STATS_RL:         GtNm1 (THERMODYNAMICS) mean=  2.28485661190263E-09
DEBUG_STATS_RL:         GtNm1 (THERMODYNAMICS) S.D.=  2.49586787216402E-07
DEBUG_STATS_RL:         GsNm1 (THERMODYNAMICS)  min= -6.35248725003651E-07
DEBUG_STATS_RL:         GsNm1 (THERMODYNAMICS)  max=  6.29760283919198E-07
DEBUG_STATS_RL:         GsNm1 (THERMODYNAMICS) mean= -3.68319354512289E-10
DEBUG_STATS_RL:         GsNm1 (THERMODYNAMICS) S.D.=  2.33550995601960E-08
DEBUG_STATS_RL:                EtaN (DYNAMICS)  min= -2.84942942260613E+00
DEBUG_STATS_RL:                EtaN (DYNAMICS)  max=  1.54046226121032E+00
DEBUG_STATS_RL:                EtaN (DYNAMICS) mean= -1.48987497561556E-01
DEBUG_STATS_RL:                EtaN (DYNAMICS) S.D.=  7.17600458167814E-01
DEBUG_STATS_RL:                Uvel (DYNAMICS)  min= -1.38232131035662E-01
DEBUG_STATS_RL:                Uvel (DYNAMICS)  max=  1.72012721619747E-01
DEBUG_STATS_RL:                Uvel (DYNAMICS) mean= -2.46175146875079E-03
DEBUG_STATS_RL:                Uvel (DYNAMICS) S.D.=  2.63564515547955E-02
DEBUG_STATS_RL:                Vvel (DYNAMICS)  min= -1.51764985515629E-01
DEBUG_STATS_RL:                Vvel (DYNAMICS)  max=  1.38021343040565E-01
DEBUG_STATS_RL:                Vvel (DYNAMICS) mean=  2.81795864805112E-03
DEBUG_STATS_RL:                Vvel (DYNAMICS) S.D.=  1.91266810893072E-02
DEBUG_STATS_RL:                Wvel (DYNAMICS)  min= -2.35268959952624E-04
DEBUG_STATS_RL:                Wvel (DYNAMICS)  max=  2.73824041699485E-04
DEBUG_STATS_RL:                Wvel (DYNAMICS) mean=  3.60112935625144E-07
DEBUG_STATS_RL:                Wvel (DYNAMICS) S.D.=  2.40979449739704E-05
DEBUG_STATS_RL:               Theta (DYNAMICS)  min= -2.01243834275901E+00
DEBUG_STATS_RL:               Theta (DYNAMICS)  max=  2.98662617730509E+01
DEBUG_STATS_RL:               Theta (DYNAMICS) mean=  3.23829225805231E+00
DEBUG_STATS_RL:               Theta (DYNAMICS) S.D.=  5.85659706731083E+00
DEBUG_STATS_RL:                Salt (DYNAMICS)  min=  3.00000000000000E-02
DEBUG_STATS_RL:                Salt (DYNAMICS)  max=  3.74710986491470E+01
DEBUG_STATS_RL:                Salt (DYNAMICS) mean=  1.88751260797725E+01
DEBUG_STATS_RL:                Salt (DYNAMICS) S.D.=  1.73006141363609E+01
DEBUG_STATS_RL:                  Gu (DYNAMICS)  min= -1.47792540594765E-01
DEBUG_STATS_RL:                  Gu (DYNAMICS)  max=  1.70454358521038E-01
DEBUG_STATS_RL:                  Gu (DYNAMICS) mean= -2.44535726193394E-03
DEBUG_STATS_RL:                  Gu (DYNAMICS) S.D.=  2.63511185425285E-02
DEBUG_STATS_RL:                  Gv (DYNAMICS)  min= -1.33947598828351E-01
DEBUG_STATS_RL:                  Gv (DYNAMICS)  max=  1.55548122484088E-01
DEBUG_STATS_RL:                  Gv (DYNAMICS) mean=  4.37779889291985E-03
DEBUG_STATS_RL:                  Gv (DYNAMICS) S.D.=  2.08325351427412E-02
DEBUG_STATS_RL:               GuNm1 (DYNAMICS)  min= -6.60151346963938E-06
DEBUG_STATS_RL:               GuNm1 (DYNAMICS)  max=  8.15086379009961E-06
DEBUG_STATS_RL:               GuNm1 (DYNAMICS) mean= -8.50660820231135E-09
DEBUG_STATS_RL:               GuNm1 (DYNAMICS) S.D.=  1.16155122528739E-06
DEBUG_STATS_RL:               GvNm1 (DYNAMICS)  min= -8.91230402257666E-06
DEBUG_STATS_RL:               GvNm1 (DYNAMICS)  max=  1.70342319372985E-05
DEBUG_STATS_RL:               GvNm1 (DYNAMICS) mean=  7.75279768876321E-07
DEBUG_STATS_RL:               GvNm1 (DYNAMICS) S.D.=  2.60499640622373E-06
DEBUG_STATS_RL:               GtNm1 (DYNAMICS)  min= -3.37672825617818E-06
DEBUG_STATS_RL:               GtNm1 (DYNAMICS)  max=  3.98693175055096E-06
DEBUG_STATS_RL:               GtNm1 (DYNAMICS) mean=  2.28485661190263E-09
DEBUG_STATS_RL:               GtNm1 (DYNAMICS) S.D.=  2.49586787216402E-07
DEBUG_STATS_RL:               GsNm1 (DYNAMICS)  min= -6.35248725003651E-07
DEBUG_STATS_RL:               GsNm1 (DYNAMICS)  max=  6.29760283919198E-07
DEBUG_STATS_RL:               GsNm1 (DYNAMICS) mean= -3.68319354512289E-10
DEBUG_STATS_RL:               GsNm1 (DYNAMICS) S.D.=  2.33550995601960E-08
DEBUG_STATS_RL:    cg2d_b (SOLVE_FOR_PRESSURE)  min= -2.33062756577835E+04
DEBUG_STATS_RL:    cg2d_b (SOLVE_FOR_PRESSURE)  max=  2.01798360602263E+04
DEBUG_STATS_RL:    cg2d_b (SOLVE_FOR_PRESSURE) mean=  1.45770631620184E+00
DEBUG_STATS_RL:    cg2d_b (SOLVE_FOR_PRESSURE) S.D.=  3.81651090048141E+03
 cg2d: Sum(rhs),rhsMax =   1.44793195255939E-01  1.53081858602491E+00
(PID.TID 0000.0001)  cg2d: iter=     1 ; resid.=  5.41712600223967E-01
(PID.TID 0000.0001)  cg2d: iter=     2 ; resid.=  4.61203517911847E-01
(PID.TID 0000.0001)  cg2d: iter=     3 ; resid.=  4.50974168340618E-01
(PID.TID 0000.0001)  cg2d: iter=     4 ; resid.=  4.81757228957904E-01
(PID.TID 0000.0001)  cg2d: iter=     5 ; resid.=  3.85405967517420E-01
(PID.TID 0000.0001)  cg2d: iter=     6 ; resid.=  3.03862507473905E-01
(PID.TID 0000.0001)  cg2d: iter=     7 ; resid.=  2.92180417475563E-01
(PID.TID 0000.0001)  cg2d: iter=     8 ; resid.=  2.47229191875133E-01
(PID.TID 0000.0001)  cg2d: iter=     9 ; resid.=  1.89470627191173E-01
(PID.TID 0000.0001)  cg2d: iter=    10 ; resid.=  1.66759018709253E-01
(PID.TID 0000.0001)  cg2d: iter=    11 ; resid.=  1.38628486645369E-01
(PID.TID 0000.0001)  cg2d: iter=    12 ; resid.=  1.07555927411792E-01
(PID.TID 0000.0001)  cg2d: iter=    13 ; resid.=  8.30101611750731E-02
(PID.TID 0000.0001)  cg2d: iter=    14 ; resid.=  7.49472812661743E-02
(PID.TID 0000.0001)  cg2d: iter=    15 ; resid.=  6.05943671027196E-02
(PID.TID 0000.0001)  cg2d: iter=    16 ; resid.=  5.74721477919574E-02
(PID.TID 0000.0001)  cg2d: iter=    17 ; resid.=  5.37744815952086E-02
(PID.TID 0000.0001)  cg2d: iter=    18 ; resid.=  4.09413347001024E-02
(PID.TID 0000.0001)  cg2d: iter=    19 ; resid.=  3.33360163249067E-02
(PID.TID 0000.0001)  cg2d: iter=    20 ; resid.=  2.95836366114647E-02
(PID.TID 0000.0001)  cg2d: iter=    21 ; resid.=  2.41114400764715E-02
(PID.TID 0000.0001)  cg2d: iter=    22 ; resid.=  2.00610091448514E-02
(PID.TID 0000.0001)  cg2d: iter=    23 ; resid.=  1.87186732825882E-02
(PID.TID 0000.0001)  cg2d: iter=    24 ; resid.=  1.65511038941453E-02
(PID.TID 0000.0001)  cg2d: iter=    25 ; resid.=  1.20435777222874E-02
(PID.TID 0000.0001)  cg2d: iter=    26 ; resid.=  1.00229798068373E-02
(PID.TID 0000.0001)  cg2d: iter=    27 ; resid.=  8.27821613162897E-03
(PID.TID 0000.0001)  cg2d: iter=    28 ; resid.=  7.13453828604723E-03
(PID.TID 0000.0001)  cg2d: iter=    29 ; resid.=  5.63585105878076E-03
(PID.TID 0000.0001)  cg2d: iter=    30 ; resid.=  5.17863292356302E-03
(PID.TID 0000.0001)  cg2d: iter=    31 ; resid.=  4.29085192624352E-03
(PID.TID 0000.0001)  cg2d: iter=    32 ; resid.=  3.52180396303517E-03
(PID.TID 0000.0001)  cg2d: iter=    33 ; resid.=  3.08595978790233E-03
(PID.TID 0000.0001)  cg2d: iter=    34 ; resid.=  2.51464139545748E-03
(PID.TID 0000.0001)  cg2d: iter=    35 ; resid.=  1.93624852854055E-03
(PID.TID 0000.0001)  cg2d: iter=    36 ; resid.=  1.59883702037432E-03
(PID.TID 0000.0001)  cg2d: iter=    37 ; resid.=  1.38192768254620E-03
(PID.TID 0000.0001)  cg2d: iter=    38 ; resid.=  1.24071100545154E-03
(PID.TID 0000.0001)  cg2d: iter=    39 ; resid.=  1.11223267703426E-03
(PID.TID 0000.0001)  cg2d: iter=    40 ; resid.=  9.02111952891633E-04
(PID.TID 0000.0001)  cg2d: iter=    41 ; resid.=  6.71597003181553E-04
(PID.TID 0000.0001)  cg2d: iter=    42 ; resid.=  5.51606857074143E-04
(PID.TID 0000.0001)  cg2d: iter=    43 ; resid.=  4.35309628314160E-04
(PID.TID 0000.0001)  cg2d: iter=    44 ; resid.=  3.34118072215338E-04
(PID.TID 0000.0001)  cg2d: iter=    45 ; resid.=  2.48942801296476E-04
(PID.TID 0000.0001)  cg2d: iter=    46 ; resid.=  2.10566546930107E-04
(PID.TID 0000.0001)  cg2d: iter=    47 ; resid.=  1.83630471178398E-04
(PID.TID 0000.0001)  cg2d: iter=    48 ; resid.=  1.45698565509472E-04
(PID.TID 0000.0001)  cg2d: iter=    49 ; resid.=  1.28532280727302E-04
(PID.TID 0000.0001)  cg2d: iter=    50 ; resid.=  1.09710448364427E-04
(PID.TID 0000.0001)  cg2d: iter=    51 ; resid.=  8.71102990298237E-05
(PID.TID 0000.0001)  cg2d: iter=    52 ; resid.=  6.76656919683999E-05
(PID.TID 0000.0001)  cg2d: iter=    53 ; resid.=  5.55002765326214E-05
(PID.TID 0000.0001)  cg2d: iter=    54 ; resid.=  4.68965060696579E-05
(PID.TID 0000.0001)  cg2d: iter=    55 ; resid.=  3.93088564402465E-05
(PID.TID 0000.0001)  cg2d: iter=    56 ; resid.=  3.16788495315038E-05
(PID.TID 0000.0001)  cg2d: iter=    57 ; resid.=  2.49247187711361E-05
(PID.TID 0000.0001)  cg2d: iter=    58 ; resid.=  1.89724951947627E-05
(PID.TID 0000.0001)  cg2d: iter=    59 ; resid.=  1.53901830762040E-05
(PID.TID 0000.0001)  cg2d: iter=    60 ; resid.=  1.19860182097000E-05
(PID.TID 0000.0001)  cg2d: iter=    61 ; resid.=  9.50710686210743E-06
(PID.TID 0000.0001)  cg2d: iter=    62 ; resid.=  7.78785130380627E-06
(PID.TID 0000.0001)  cg2d: iter=    63 ; resid.=  6.68015913420450E-06
(PID.TID 0000.0001)  cg2d: iter=    64 ; resid.=  5.28104433556342E-06
(PID.TID 0000.0001)  cg2d: iter=    65 ; resid.=  4.21405422439031E-06
(PID.TID 0000.0001)  cg2d: iter=    66 ; resid.=  3.23183128979558E-06
(PID.TID 0000.0001)  cg2d: iter=    67 ; resid.=  2.71336157912946E-06
(PID.TID 0000.0001)  cg2d: iter=    68 ; resid.=  1.97965943011097E-06
(PID.TID 0000.0001)  cg2d: iter=    69 ; resid.=  1.49550338550417E-06
(PID.TID 0000.0001)  cg2d: iter=    70 ; resid.=  1.09059970601712E-06
(PID.TID 0000.0001)  cg2d: iter=    71 ; resid.=  8.52309126792351E-07
(PID.TID 0000.0001)  cg2d: iter=    72 ; resid.=  7.17815337143619E-07
(PID.TID 0000.0001)  cg2d: iter=    73 ; resid.=  6.07185470075376E-07
(PID.TID 0000.0001)  cg2d: iter=    74 ; resid.=  5.25997581315603E-07
(PID.TID 0000.0001)  cg2d: iter=    75 ; resid.=  4.33516231030038E-07
(PID.TID 0000.0001)  cg2d: iter=    76 ; resid.=  3.91737553523104E-07
(PID.TID 0000.0001)  cg2d: iter=    77 ; resid.=  3.44749853302448E-07
(PID.TID 0000.0001)  cg2d: iter=    78 ; resid.=  3.20324394093509E-07
(PID.TID 0000.0001)  cg2d: iter=    79 ; resid.=  2.86255828496854E-07
(PID.TID 0000.0001)  cg2d: iter=    80 ; resid.=  2.20443381582333E-07
(PID.TID 0000.0001)  cg2d: iter=    81 ; resid.=  1.78369407869904E-07
(PID.TID 0000.0001)  cg2d: iter=    82 ; resid.=  1.41784865458852E-07
(PID.TID 0000.0001)  cg2d: iter=    83 ; resid.=  1.13738516628776E-07
(PID.TID 0000.0001)  cg2d: iter=    84 ; resid.=  9.65407762224142E-08
(PID.TID 0000.0001)  cg2d: iter=    85 ; resid.=  7.79559936603075E-08
(PID.TID 0000.0001)  cg2d: iter=    86 ; resid.=  6.29203689895002E-08
(PID.TID 0000.0001)  cg2d: iter=    87 ; resid.=  5.29363313040022E-08
(PID.TID 0000.0001)  cg2d: iter=    88 ; resid.=  4.42198103930980E-08
(PID.TID 0000.0001)  cg2d: iter=    89 ; resid.=  3.66825734024087E-08
(PID.TID 0000.0001)  cg2d: iter=    90 ; resid.=  2.76306658173761E-08
(PID.TID 0000.0001)  cg2d: iter=    91 ; resid.=  2.15310605149228E-08
(PID.TID 0000.0001)  cg2d: iter=    92 ; resid.=  1.56979426717895E-08
(PID.TID 0000.0001)  cg2d: iter=    93 ; resid.=  1.07972815441275E-08
(PID.TID 0000.0001)  cg2d: iter=    94 ; resid.=  8.63199720736788E-09
(PID.TID 0000.0001)  cg2d: iter=    95 ; resid.=  7.05209718114330E-09
(PID.TID 0000.0001)  cg2d: iter=    96 ; resid.=  5.64531189462442E-09
(PID.TID 0000.0001)  cg2d: iter=    97 ; resid.=  4.69471872019147E-09
(PID.TID 0000.0001)  cg2d: iter=    98 ; resid.=  4.02681934575866E-09
(PID.TID 0000.0001)  cg2d: iter=    99 ; resid.=  3.68077178824020E-09
(PID.TID 0000.0001)  cg2d: iter=   100 ; resid.=  3.25708839867541E-09
(PID.TID 0000.0001)  cg2d: iter=   101 ; resid.=  2.67168336293372E-09
(PID.TID 0000.0001)  cg2d: iter=   102 ; resid.=  2.20103952508827E-09
(PID.TID 0000.0001)  cg2d: iter=   103 ; resid.=  1.80980071742905E-09
(PID.TID 0000.0001)  cg2d: iter=   104 ; resid.=  1.31014289818236E-09
(PID.TID 0000.0001)  cg2d: iter=   105 ; resid.=  9.21802319868563E-10
(PID.TID 0000.0001)  cg2d: iter=   106 ; resid.=  6.63347292331812E-10
(PID.TID 0000.0001)  cg2d: iter=   107 ; resid.=  4.46071865526911E-10
(PID.TID 0000.0001)  cg2d: iter=   108 ; resid.=  3.19368963211028E-10
(PID.TID 0000.0001)  cg2d: iter=   109 ; resid.=  2.35787776676280E-10
(PID.TID 0000.0001)  cg2d: iter=   110 ; resid.=  1.84580619959607E-10
(PID.TID 0000.0001)  cg2d: iter=   111 ; resid.=  1.58472632279922E-10
(PID.TID 0000.0001)  cg2d: iter=   112 ; resid.=  1.22274376501769E-10
(PID.TID 0000.0001)  cg2d: iter=   113 ; resid.=  9.36402576207970E-11
(PID.TID 0000.0001)  cg2d: iter=   114 ; resid.=  7.86506802615384E-11
(PID.TID 0000.0001)  cg2d: iter=   115 ; resid.=  5.85722404884602E-11
(PID.TID 0000.0001)  cg2d: iter=   116 ; resid.=  4.23750813404801E-11
(PID.TID 0000.0001)  cg2d: iter=   117 ; resid.=  3.40041255889550E-11
(PID.TID 0000.0001)  cg2d: iter=   118 ; resid.=  2.53761213029336E-11
(PID.TID 0000.0001)  cg2d: iter=   119 ; resid.=  1.97153099556665E-11
(PID.TID 0000.0001)  cg2d: iter=   120 ; resid.=  1.45968721571158E-11
(PID.TID 0000.0001)  cg2d: iter=   121 ; resid.=  1.13099167850170E-11
(PID.TID 0000.0001)  cg2d: iter=   122 ; resid.=  8.53510407575177E-12
(PID.TID 0000.0001)  cg2d: iter=   123 ; resid.=  5.99157075847668E-12
(PID.TID 0000.0001)  cg2d: iter=   124 ; resid.=  4.13597614183895E-12
(PID.TID 0000.0001)  cg2d: iter=   125 ; resid.=  2.81220240237501E-12
(PID.TID 0000.0001)  cg2d: iter=   126 ; resid.=  2.05796238806822E-12
(PID.TID 0000.0001)  cg2d: iter=   127 ; resid.=  1.33338584659490E-12
(PID.TID 0000.0001)  cg2d: iter=   128 ; resid.=  8.84509058734505E-13
(PID.TID 0000.0001)  cg2d: iter=   129 ; resid.=  6.37868788207758E-13
(PID.TID 0000.0001)  cg2d: iter=   130 ; resid.=  4.71334349824952E-13
(PID.TID 0000.0001)  cg2d: iter=   131 ; resid.=  3.81947947323584E-13
(PID.TID 0000.0001)  cg2d: iter=   132 ; resid.=  3.01731739136940E-13
(PID.TID 0000.0001)  cg2d: iter=   133 ; resid.=  2.44205949947974E-13
(PID.TID 0000.0001)  cg2d: iter=   134 ; resid.=  2.02438509389882E-13
(PID.TID 0000.0001)  cg2d: iter=   135 ; resid.=  1.63614176687946E-13
(PID.TID 0000.0001)  cg2d: iter=   136 ; resid.=  1.11024073168771E-13
(PID.TID 0000.0001)  cg2d: iter=   137 ; resid.=  7.92271752426567E-14
DEBUG_STATS_RL:    cg2d_x (SOLVE_FOR_PRESSURE)  min= -2.57371760153639E+01
DEBUG_STATS_RL:    cg2d_x (SOLVE_FOR_PRESSURE)  max=  1.49253681472397E+01
DEBUG_STATS_RL:    cg2d_x (SOLVE_FOR_PRESSURE) mean= -1.42737414501373E+00
DEBUG_STATS_RL:    cg2d_x (SOLVE_FOR_PRESSURE) S.D.=  7.03756436916587E+00
(PID.TID 0000.0001)      cg2d_init_res =   6.60045941682419E-01
(PID.TID 0000.0001)      cg2d_iters(min,last) =      -1     137
(PID.TID 0000.0001)      cg2d_last_res =   7.92271752426567E-14
(PID.TID 0000.0001) // =======================================================
(PID.TID 0000.0001) // Begin MONITOR dynamic field statistics
(PID.TID 0000.0001) // =======================================================
(PID.TID 0000.0001) %MON time_tsnumber                =                    21
(PID.TID 0000.0001) %MON time_secondsf                =   1.8144000000000E+06
(PID.TID 0000.0001) %MON dynstat_eta_max              =   1.5214442555800E+00
(PID.TID 0000.0001) %MON dynstat_eta_min              =  -2.6235653430543E+00
(PID.TID 0000.0001) %MON dynstat_eta_mean             =  -1.5209357913404E-03
(PID.TID 0000.0001) %MON dynstat_eta_sd               =   6.3527992579202E-01
(PID.TID 0000.0001) %MON dynstat_eta_del2             =   2.0181919267949E-03
(PID.TID 0000.0001) %MON dynstat_uvel_max             =   1.6872176611684E-01
(PID.TID 0000.0001) %MON dynstat_uvel_min             =  -1.4513637886341E-01
(PID.TID 0000.0001) %MON dynstat_uvel_mean            =  -4.4400783264648E-03
(PID.TID 0000.0001) %MON dynstat_uvel_sd              =   2.1962106748578E-02
(PID.TID 0000.0001) %MON dynstat_uvel_del2            =   1.1273819249307E-04
(PID.TID 0000.0001) %MON dynstat_vvel_max             =   1.3830522094552E-01
(PID.TID 0000.0001) %MON dynstat_vvel_min             =  -1.4577419649635E-01
(PID.TID 0000.0001) %MON dynstat_vvel_mean            =   1.1276724661027E-03
(PID.TID 0000.0001) %MON dynstat_vvel_sd              =   1.3153819937233E-02
(PID.TID 0000.0001) %MON dynstat_vvel_del2            =   1.1004224800228E-04
(PID.TID 0000.0001) %MON dynstat_wvel_max             =   2.4806067636106E-04
(PID.TID 0000.0001) %MON dynstat_wvel_min             =  -2.0977634291061E-04
(PID.TID 0000.0001) %MON dynstat_wvel_mean            =  -2.2670854577828E-22
(PID.TID 0000.0001) %MON dynstat_wvel_sd              =   2.5666247461919E-05
(PID.TID 0000.0001) %MON dynstat_wvel_del2            =   2.8012972700246E-07
(PID.TID 0000.0001) %MON dynstat_theta_max            =   2.9866261773051E+01
(PID.TID 0000.0001) %MON dynstat_theta_min            =  -2.0124383427590E+00
(PID.TID 0000.0001) %MON dynstat_theta_mean           =   3.6501286548687E+00
(PID.TID 0000.0001) %MON dynstat_theta_sd             =   4.4159232671091E+00
(PID.TID 0000.0001) %MON dynstat_theta_del2           =   4.8878949805613E-03
(PID.TID 0000.0001) %MON dynstat_salt_max             =   3.7471098649147E+01
(PID.TID 0000.0001) %MON dynstat_salt_min             =   2.9789130892155E+01
(PID.TID 0000.0001) %MON dynstat_salt_mean            =   3.4747931153844E+01
(PID.TID 0000.0001) %MON dynstat_salt_sd              =   2.9620753472441E-01
(PID.TID 0000.0001) %MON dynstat_salt_del2            =   1.0112736926536E-03
(PID.TID 0000.0001) %MON dynstat_sst_max              =   2.9866261773051E+01
(PID.TID 0000.0001) %MON dynstat_sst_min              =  -2.0124383427590E+00
(PID.TID 0000.0001) %MON dynstat_sst_mean             =   1.8715497603221E+01
(PID.TID 0000.0001) %MON dynstat_sst_sd               =   9.0595842763279E+00
(PID.TID 0000.0001) %MON dynstat_sst_del2             =   2.6379197995704E-02
(PID.TID 0000.0001) %MON dynstat_sss_max              =   3.7459480812475E+01
(PID.TID 0000.0001) %MON dynstat_sss_min              =   2.9789130892155E+01
(PID.TID 0000.0001) %MON dynstat_sss_mean             =   3.4882260833232E+01
(PID.TID 0000.0001) %MON dynstat_sss_sd               =   9.7273897705146E-01
(PID.TID 0000.0001) %MON dynstat_sss_del2             =   7.9719173929534E-03
(PID.TID 0000.0001) %MON forcing_qnet_max             =   4.2501818339030E+02
(PID.TID 0000.0001) %MON forcing_qnet_min             =  -1.7882195027669E+02
(PID.TID 0000.0001) %MON forcing_qnet_mean            =  -1.6087980164027E+01
(PID.TID 0000.0001) %MON forcing_qnet_sd              =   1.0451573706380E+02
(PID.TID 0000.0001) %MON forcing_qnet_del2            =   1.0046269814196E+00
(PID.TID 0000.0001) %MON forcing_qsw_max              =   0.0000000000000E+00
(PID.TID 0000.0001) %MON forcing_qsw_min              =   0.0000000000000E+00
(PID.TID 0000.0001) %MON forcing_qsw_mean             =   0.0000000000000E+00
(PID.TID 0000.0001) %MON forcing_qsw_sd               =   0.0000000000000E+00
(PID.TID 0000.0001) %MON forcing_qsw_del2             =   0.0000000000000E+00
(PID.TID 0000.0001) %MON forcing_empmr_max            =   8.0603790308942E-05
(PID.TID 0000.0001) %MON forcing_empmr_min            =  -7.6554177515694E-05
(PID.TID 0000.0001) %MON forcing_empmr_mean           =   9.2634904841042E-07
(PID.TID 0000.0001) %MON forcing_empmr_sd             =   2.8551238028456E-05
(PID.TID 0000.0001) %MON forcing_empmr_del2           =   3.6194392674950E-07
(PID.TID 0000.0001) %MON forcing_fu_max               =   2.7779850363731E-01
(PID.TID 0000.0001) %MON forcing_fu_min               =  -1.7423425614834E-01
(PID.TID 0000.0001) %MON forcing_fu_mean              =   1.6273236229911E-02
(PID.TID 0000.0001) %MON forcing_fu_sd                =   9.0302370992227E-02
(PID.TID 0000.0001) %MON forcing_fu_del2              =   6.9156155412209E-04
(PID.TID 0000.0001) %MON forcing_fv_max               =   2.1707908560832E-01
(PID.TID 0000.0001) %MON forcing_fv_min               =  -1.7318040132523E-01
(PID.TID 0000.0001) %MON forcing_fv_mean              =  -5.5852022730810E-03
(PID.TID 0000.0001) %MON forcing_fv_sd                =   4.6781725511238E-02
(PID.TID 0000.0001) %MON forcing_fv_del2              =   4.7604155407923E-04
(PID.TID 0000.0001) %MON trAdv_CFL_u_max              =   7.5571990900425E-02
(PID.TID 0000.0001) %MON trAdv_CFL_v_max              =   2.8246927634688E-02
(PID.TID 0000.0001) %MON trAdv_CFL_w_max              =   8.4729619885705E-02
(PID.TID 0000.0001) %MON advcfl_uvel_max              =   6.1555477427768E-02
(PID.TID 0000.0001) %MON advcfl_vvel_max              =   2.8321588442209E-02
(PID.TID 0000.0001) %MON advcfl_wvel_max              =   6.8802024783603E-02
(PID.TID 0000.0001) %MON advcfl_W_hf_max              =   8.1636773277978E-02
(PID.TID 0000.0001) %MON pe_b_mean                    =   5.1643296216120E-04
(PID.TID 0000.0001) %MON ke_max                       =   1.6142084506352E-02
(PID.TID 0000.0001) %MON ke_mean                      =   3.0633669582800E-04
(PID.TID 0000.0001) %MON ke_vol                       =   1.3226782436723E+18
(PID.TID 0000.0001) %MON vort_r_min                   =  -5.0547391773202E-07
(PID.TID 0000.0001) %MON vort_r_max                   =   6.1740580989234E-07
(PID.TID 0000.0001) %MON vort_a_mean                  =  -2.5274806847711E-05
(PID.TID 0000.0001) %MON vort_a_sd                    =   7.3603670053645E-05
(PID.TID 0000.0001) %MON vort_p_mean                  =  -3.1845655106813E-05
(PID.TID 0000.0001) %MON vort_p_sd                    =   1.3162338280448E-04
(PID.TID 0000.0001) %MON surfExpan_theta_mean         =  -1.0596356283973E-07
(PID.TID 0000.0001) %MON surfExpan_salt_mean          =   2.6460579139596E-07
(PID.TID 0000.0001) // =======================================================
(PID.TID 0000.0001) // End MONITOR dynamic field statistics
(PID.TID 0000.0001) // =======================================================
 EXTERNAL_FIELDS_LOAD,        21 : iP,iLd,i0,i1=    1    2    1    2 ; Wght=  0.8000000000  0.2000000000
 EXTERNAL_FIELDS_LOAD: (fu0,1),fu,fv= -3.5633E-02 -1.4435E-02 -3.1393E-02 -4.9332E-02
 EXTERNAL_FIELDS_LOAD: SST,SSS,Q,E-P=  6.6037E-01  3.4656E+01  2.6071E+02  1.0985E-05
DEBUG_STATS_RL:          Uvel (THERMODYNAMICS)  min= -1.45136378863412E-01
DEBUG_STATS_RL:          Uvel (THERMODYNAMICS)  max=  1.68721766116841E-01
DEBUG_STATS_RL:          Uvel (THERMODYNAMICS) mean= -2.07986497751460E-03
DEBUG_STATS_RL:          Uvel (THERMODYNAMICS) S.D.=  2.57270209129672E-02
DEBUG_STATS_RL:          Vvel (THERMODYNAMICS)  min= -1.45774196496346E-01
DEBUG_STATS_RL:          Vvel (THERMODYNAMICS)  max=  1.38305220945517E-01
DEBUG_STATS_RL:          Vvel (THERMODYNAMICS) mean=  2.82581986245057E-03
DEBUG_STATS_RL:          Vvel (THERMODYNAMICS) S.D.=  1.93399321789083E-02
DEBUG_STATS_RL:          Wvel (THERMODYNAMICS)  min= -2.09776342910608E-04
DEBUG_STATS_RL:          Wvel (THERMODYNAMICS)  max=  2.48060676361057E-04
DEBUG_STATS_RL:          Wvel (THERMODYNAMICS) mean=  3.72512973979815E-07
DEBUG_STATS_RL:          Wvel (THERMODYNAMICS) S.D.=  2.30741990256779E-05
DEBUG_STATS_RL:         Theta (THERMODYNAMICS)  min= -2.01053420825469E+00
DEBUG_STATS_RL:         Theta (THERMODYNAMICS)  max=  2.98766246792840E+01
DEBUG_STATS_RL:         Theta (THERMODYNAMICS) mean=  3.23831944610567E+00
DEBUG_STATS_RL:         Theta (THERMODYNAMICS) S.D.=  5.85682961844693E+00
DEBUG_STATS_RL:          Salt (THERMODYNAMICS)  min=  3.00000000000000E-02
DEBUG_STATS_RL:          Salt (THERMODYNAMICS)  max=  3.74716229097300E+01
DEBUG_STATS_RL:          Salt (THERMODYNAMICS) mean=  1.88751081001872E+01
DEBUG_STATS_RL:          Salt (THERMODYNAMICS) S.D.=  1.73005970956781E+01
DEBUG_STATS_RL:         GtNm1 (THERMODYNAMICS)  min= -3.50865289257167E-06
DEBUG_STATS_RL:         GtNm1 (THERMODYNAMICS)  max=  3.95523691951790E-06
DEBUG_STATS_RL:         GtNm1 (THERMODYNAMICS) mean=  1.22509550182032E-09
DEBUG_STATS_RL:         GtNm1 (THERMODYNAMICS) S.D.=  2.49329569013533E-07
DEBUG_STATS_RL:         GsNm1 (THERMODYNAMICS)  min= -5.83690099931045E-07
DEBUG_STATS_RL:         GsNm1 (THERMODYNAMICS)  max=  5.21102944624829E-07
DEBUG_STATS_RL:         GsNm1 (THERMODYNAMICS) mean= -4.46008215570541E-10
DEBUG_STATS_RL:         GsNm1 (THERMODYNAMICS) S.D.=  2.31045666374448E-08
DEBUG_STATS_RL:                EtaN (DYNAMICS)  min= -2.62356534305435E+00
DEBUG_STATS_RL:                EtaN (DYNAMICS)  max=  1.52144425557999E+00
DEBUG_STATS_RL:                EtaN (DYNAMICS) mean= -1.45501951581420E-01
DEBUG_STATS_RL:                EtaN (DYNAMICS) S.D.=  7.17386785847696E-01
DEBUG_STATS_RL:                Uvel (DYNAMICS)  min= -1.45136378863412E-01
DEBUG_STATS_RL:                Uvel (DYNAMICS)  max=  1.68721766116841E-01
DEBUG_STATS_RL:                Uvel (DYNAMICS) mean= -2.07986497751460E-03
DEBUG_STATS_RL:                Uvel (DYNAMICS) S.D.=  2.57270209129672E-02
DEBUG_STATS_RL:                Vvel (DYNAMICS)  min= -1.45774196496346E-01
DEBUG_STATS_RL:                Vvel (DYNAMICS)  max=  1.38305220945517E-01
DEBUG_STATS_RL:                Vvel (DYNAMICS) mean=  2.82581986245057E-03
DEBUG_STATS_RL:                Vvel (DYNAMICS) S.D.=  1.93399321789083E-02
DEBUG_STATS_RL:                Wvel (DYNAMICS)  min= -2.09776342910608E-04
DEBUG_STATS_RL:                Wvel (DYNAMICS)  max=  2.48060676361057E-04
DEBUG_STATS_RL:                Wvel (DYNAMICS) mean=  3.72512973979815E-07
DEBUG_STATS_RL:                Wvel (DYNAMICS) S.D.=  2.30741990256779E-05
DEBUG_STATS_RL:               Theta (DYNAMICS)  min= -2.01053420825469E+00
DEBUG_STATS_RL:               Theta (DYNAMICS)  max=  2.98766246792840E+01
DEBUG_STATS_RL:               Theta (DYNAMICS) mean=  3.23831944610567E+00
DEBUG_STATS_RL:               Theta (DYNAMICS) S.D.=  5.85682961844693E+00
DEBUG_STATS_RL:                Salt (DYNAMICS)  min=  3.00000000000000E-02
DEBUG_STATS_RL:                Salt (DYNAMICS)  max=  3.74716229097300E+01
DEBUG_STATS_RL:                Salt (DYNAMICS) mean=  1.88751081001872E+01
DEBUG_STATS_RL:                Salt (DYNAMICS) S.D.=  1.73005970956781E+01
DEBUG_STATS_RL:                  Gu (DYNAMICS)  min= -1.54195616157308E-01
DEBUG_STATS_RL:                  Gu (DYNAMICS)  max=  1.68155038503783E-01
DEBUG_STATS_RL:                  Gu (DYNAMICS) mean= -1.74144449837017E-03
DEBUG_STATS_RL:                  Gu (DYNAMICS) S.D.=  2.59499310195422E-02
DEBUG_STATS_RL:                  Gv (DYNAMICS)  min= -1.33319815557487E-01
DEBUG_STATS_RL:                  Gv (DYNAMICS)  max=  1.58550706969481E-01
DEBUG_STATS_RL:                  Gv (DYNAMICS) mean=  4.50841843687203E-03
DEBUG_STATS_RL:                  Gv (DYNAMICS) S.D.=  2.09208483053960E-02
DEBUG_STATS_RL:               GuNm1 (DYNAMICS)  min= -6.60911457924086E-06
DEBUG_STATS_RL:               GuNm1 (DYNAMICS)  max=  8.21261952555988E-06
DEBUG_STATS_RL:               GuNm1 (DYNAMICS) mean= -6.46614003564571E-09
DEBUG_STATS_RL:               GuNm1 (DYNAMICS) S.D.=  1.17278164656696E-06
DEBUG_STATS_RL:               GvNm1 (DYNAMICS)  min= -9.17018950081853E-06
DEBUG_STATS_RL:               GvNm1 (DYNAMICS)  max=  1.70519362138305E-05
DEBUG_STATS_RL:               GvNm1 (DYNAMICS) mean=  7.76697527089323E-07
DEBUG_STATS_RL:               GvNm1 (DYNAMICS) S.D.=  2.61401237635522E-06
DEBUG_STATS_RL:               GtNm1 (DYNAMICS)  min= -3.50865289257167E-06
DEBUG_STATS_RL:               GtNm1 (DYNAMICS)  max=  3.95523691951790E-06
DEBUG_STATS_RL:               GtNm1 (DYNAMICS) mean=  1.22509550182032E-09
DEBUG_STATS_RL:               GtNm1 (DYNAMICS) S.D.=  2.49329569013533E-07
DEBUG_STATS_RL:               GsNm1 (DYNAMICS)  min= -5.83690099931045E-07
DEBUG_STATS_RL:               GsNm1 (DYNAMICS)  max=  5.21102944624829E-07
DEBUG_STATS_RL:               GsNm1 (DYNAMICS) mean= -4.46008215570541E-10
DEBUG_STATS_RL:               GsNm1 (DYNAMICS) S.D.=  2.31045666374448E-08
DEBUG_STATS_RL:    cg2d_b (SOLVE_FOR_PRESSURE)  min= -2.40139928616541E+04
DEBUG_STATS_RL:    cg2d_b (SOLVE_FOR_PRESSURE)  max=  2.07667451983170E+04
DEBUG_STATS_RL:    cg2d_b (SOLVE_FOR_PRESSURE) mean=  1.53187610020338E+00
DEBUG_STATS_RL:    cg2d_b (SOLVE_FOR_PRESSURE) S.D.=  3.87721439475118E+03
 cg2d: Sum(rhs),rhsMax =   1.47676115021779E-01  1.57730334683537E+00
(PID.TID 0000.0001)  cg2d: iter=     1 ; resid.=  5.01479630627185E-01
(PID.TID 0000.0001)  cg2d: iter=     2 ; resid.=  4.23962639297014E-01
(PID.TID 0000.0001)  cg2d: iter=     3 ; resid.=  4.18077331173610E-01
(PID.TID 0000.0001)  cg2d: iter=     4 ; resid.=  4.48946101358817E-01
(PID.TID 0000.0001)  cg2d: iter=     5 ; resid.=  3.63412385202944E-01
(PID.TID 0000.0001)  cg2d: iter=     6 ; resid.=  2.80546588579600E-01
(PID.TID 0000.0001)  cg2d: iter=     7 ; resid.=  2.56928817719351E-01
(PID.TID 0000.0001)  cg2d: iter=     8 ; resid.=  2.12200262126079E-01
(PID.TID 0000.0001)  cg2d: iter=     9 ; resid.=  1.60908584496705E-01
(PID.TID 0000.0001)  cg2d: iter=    10 ; resid.=  1.43039828900337E-01
(PID.TID 0000.0001)  cg2d: iter=    11 ; resid.=  1.27608302746166E-01
(PID.TID 0000.0001)  cg2d: iter=    12 ; resid.=  1.02894248357912E-01
(PID.TID 0000.0001)  cg2d: iter=    13 ; resid.=  8.06057797582579E-02
(PID.TID 0000.0001)  cg2d: iter=    14 ; resid.=  6.88008030882631E-02
(PID.TID 0000.0001)  cg2d: iter=    15 ; resid.=  5.36613670185822E-02
(PID.TID 0000.0001)  cg2d: iter=    16 ; resid.=  4.97504472954181E-02
(PID.TID 0000.0001)  cg2d: iter=    17 ; resid.=  4.72967838661678E-02
(PID.TID 0000.0001)  cg2d: iter=    18 ; resid.=  3.70419446336162E-02
(PID.TID 0000.0001)  cg2d: iter=    19 ; resid.=  3.14976714782653E-02
(PID.TID 0000.0001)  cg2d: iter=    20 ; resid.=  2.80527325840661E-02
(PID.TID 0000.0001)  cg2d: iter=    21 ; resid.=  2.30171912365980E-02
(PID.TID 0000.0001)  cg2d: iter=    22 ; resid.=  1.83971339404651E-02
(PID.TID 0000.0001)  cg2d: iter=    23 ; resid.=  1.63799497833032E-02
(PID.TID 0000.0001)  cg2d: iter=    24 ; resid.=  1.42161149113326E-02
(PID.TID 0000.0001)  cg2d: iter=    25 ; resid.=  1.08038103080170E-02
(PID.TID 0000.0001)  cg2d: iter=    26 ; resid.=  9.18742402390958E-03
(PID.TID 0000.0001)  cg2d: iter=    27 ; resid.=  7.91739007112748E-03
(PID.TID 0000.0001)  cg2d: iter=    28 ; resid.=  6.68812213765121E-03
(PID.TID 0000.0001)  cg2d: iter=    29 ; resid.=  5.35513925598442E-03
(PID.TID 0000.0001)  cg2d: iter=    30 ; resid.=  4.79045054844835E-03
(PID.TID 0000.0001)  cg2d: iter=    31 ; resid.=  3.88328653035594E-03
(PID.TID 0000.0001)  cg2d: iter=    32 ; resid.=  3.09164671761268E-03
(PID.TID 0000.0001)  cg2d: iter=    33 ; resid.=  2.71964492045138E-03
(PID.TID 0000.0001)  cg2d: iter=    34 ; resid.=  2.25384688634964E-03
(PID.TID 0000.0001)  cg2d: iter=    35 ; resid.=  1.79203552931514E-03
(PID.TID 0000.0001)  cg2d: iter=    36 ; resid.=  1.50535056957540E-03
(PID.TID 0000.0001)  cg2d: iter=    37 ; resid.=  1.32216038030374E-03
(PID.TID 0000.0001)  cg2d: iter=    38 ; resid.=  1.19262908614337E-03
(PID.TID 0000.0001)  cg2d: iter=    39 ; resid.=  1.05285128735766E-03
(PID.TID 0000.0001)  cg2d: iter=    40 ; resid.=  8.39462405134473E-04
(PID.TID 0000.0001)  cg2d: iter=    41 ; resid.=  6.28070072566268E-04
(PID.TID 0000.0001)  cg2d: iter=    42 ; resid.=  5.34052376101644E-04
(PID.TID 0000.0001)  cg2d: iter=    43 ; resid.=  4.37977507658786E-04
(PID.TID 0000.0001)  cg2d: iter=    44 ; resid.=  3.39491855594836E-04
(PID.TID 0000.0001)  cg2d: iter=    45 ; resid.=  2.47227169518810E-04
(PID.TID 0000.0001)  cg2d: iter=    46 ; resid.=  2.02521209112321E-04
(PID.TID 0000.0001)  cg2d: iter=    47 ; resid.=  1.71283944580299E-04
(PID.TID 0000.0001)  cg2d: iter=    48 ; resid.=  1.33163927320041E-04
(PID.TID 0000.0001)  cg2d: iter=    49 ; resid.=  1.12258647109268E-04
(PID.TID 0000.0001)  cg2d: iter=    50 ; resid.=  9.67710421703976E-05
(PID.TID 0000.0001)  cg2d: iter=    51 ; resid.=  8.01175903882735E-05
(PID.TID 0000.0001)  cg2d: iter=    52 ; resid.=  6.67144013556069E-05
(PID.TID 0000.0001)  cg2d: iter=    53 ; resid.=  5.66335708286658E-05
(PID.TID 0000.0001)  cg2d: iter=    54 ; resid.=  4.77779689815022E-05
(PID.TID 0000.0001)  cg2d: iter=    55 ; resid.=  3.95634283615096E-05
(PID.TID 0000.0001)  cg2d: iter=    56 ; resid.=  3.30008231244750E-05
(PID.TID 0000.0001)  cg2d: iter=    57 ; resid.=  2.63515233288610E-05
(PID.TID 0000.0001)  cg2d: iter=    58 ; resid.=  1.99048053267714E-05
(PID.TID 0000.0001)  cg2d: iter=    59 ; resid.=  1.59736495397555E-05
(PID.TID 0000.0001)  cg2d: iter=    60 ; resid.=  1.25270007710712E-05
(PID.TID 0000.0001)  cg2d: iter=    61 ; resid.=  9.88948764578437E-06
(PID.TID 0000.0001)  cg2d: iter=    62 ; resid.=  8.11437667735330E-06
(PID.TID 0000.0001)  cg2d: iter=    63 ; resid.=  6.93127325549168E-06
(PID.TID 0000.0001)  cg2d: iter=    64 ; resid.=  5.55433830239490E-06
(PID.TID 0000.0001)  cg2d: iter=    65 ; resid.=  4.56468388031062E-06
(PID.TID 0000.0001)  cg2d: iter=    66 ; resid.=  3.56568925445079E-06
(PID.TID 0000.0001)  cg2d: iter=    67 ; resid.=  3.01208500752732E-06
(PID.TID 0000.0001)  cg2d: iter=    68 ; resid.=  2.24337327315352E-06
(PID.TID 0000.0001)  cg2d: iter=    69 ; resid.=  1.83321421070659E-06
(PID.TID 0000.0001)  cg2d: iter=    70 ; resid.=  1.47449687451939E-06
(PID.TID 0000.0001)  cg2d: iter=    71 ; resid.=  1.25703302657125E-06
(PID.TID 0000.0001)  cg2d: iter=    72 ; resid.=  1.13543036207974E-06
(PID.TID 0000.0001)  cg2d: iter=    73 ; resid.=  1.03403828854738E-06
(PID.TID 0000.0001)  cg2d: iter=    74 ; resid.=  8.99790433682294E-07
(PID.TID 0000.0001)  cg2d: iter=    75 ; resid.=  7.41922248029363E-07
(PID.TID 0000.0001)  cg2d: iter=    76 ; resid.=  6.45711434270088E-07
(PID.TID 0000.0001)  cg2d: iter=    77 ; resid.=  5.45580638314480E-07
(PID.TID 0000.0001)  cg2d: iter=    78 ; resid.=  4.72043450578547E-07
(PID.TID 0000.0001)  cg2d: iter=    79 ; resid.=  4.04125634389766E-07
(PID.TID 0000.0001)  cg2d: iter=    80 ; resid.=  2.97707509381279E-07
(PID.TID 0000.0001)  cg2d: iter=    81 ; resid.=  2.34911761375639E-07
(PID.TID 0000.0001)  cg2d: iter=    82 ; resid.=  1.81601050182684E-07
(PID.TID 0000.0001)  cg2d: iter=    83 ; resid.=  1.40801361979909E-07
(PID.TID 0000.0001)  cg2d: iter=    84 ; resid.=  1.13689136107880E-07
(PID.TID 0000.0001)  cg2d: iter=    85 ; resid.=  8.72992626462762E-08
(PID.TID 0000.0001)  cg2d: iter=    86 ; resid.=  6.93432499578550E-08
(PID.TID 0000.0001)  cg2d: iter=    87 ; resid.=  5.72843140899200E-08
(PID.TID 0000.0001)  cg2d: iter=    88 ; resid.=  4.78956632234799E-08
(PID.TID 0000.0001)  cg2d: iter=    89 ; resid.=  3.93262805074787E-08
(PID.TID 0000.0001)  cg2d: iter=    90 ; resid.=  2.94361095377407E-08
(PID.TID 0000.0001)  cg2d: iter=    91 ; resid.=  2.23986351792361E-08
(PID.TID 0000.0001)  cg2d: iter=    92 ; resid.=  1.60493942715063E-08
(PID.TID 0000.0001)  cg2d: iter=    93 ; resid.=  1.05981338977746E-08
(PID.TID 0000.0001)  cg2d: iter=    94 ; resid.=  7.85546495288733E-09
(PID.TID 0000.0001)  cg2d: iter=    95 ; resid.=  6.11929569048370E-09
(PID.TID 0000.0001)  cg2d: iter=    96 ; resid.=  4.84404321551502E-09
(PID.TID 0000.0001)  cg2d: iter=    97 ; resid.=  3.99681323835443E-09
(PID.TID 0000.0001)  cg2d: iter=    98 ; resid.=  3.40581601979655E-09
(PID.TID 0000.0001)  cg2d: iter=    99 ; resid.=  3.08491738874674E-09
(PID.TID 0000.0001)  cg2d: iter=   100 ; resid.=  2.81290273633842E-09
(PID.TID 0000.0001)  cg2d: iter=   101 ; resid.=  2.39565443401626E-09
(PID.TID 0000.0001)  cg2d: iter=   102 ; resid.=  2.01146529930370E-09
(PID.TID 0000.0001)  cg2d: iter=   103 ; resid.=  1.64834564737570E-09
(PID.TID 0000.0001)  cg2d: iter=   104 ; resid.=  1.20026532660038E-09
(PID.TID 0000.0001)  cg2d: iter=   105 ; resid.=  8.40924187503789E-10
(PID.TID 0000.0001)  cg2d: iter=   106 ; resid.=  6.31517255599090E-10
(PID.TID 0000.0001)  cg2d: iter=   107 ; resid.=  4.36426092489771E-10
(PID.TID 0000.0001)  cg2d: iter=   108 ; resid.=  3.12272494614664E-10
(PID.TID 0000.0001)  cg2d: iter=   109 ; resid.=  2.32817637813712E-10
(PID.TID 0000.0001)  cg2d: iter=   110 ; resid.=  1.78846232772235E-10
(PID.TID 0000.0001)  cg2d: iter=   111 ; resid.=  1.48679737525064E-10
(PID.TID 0000.0001)  cg2d: iter=   112 ; resid.=  1.12605634901423E-10
(PID.TID 0000.0001)  cg2d: iter=   113 ; resid.=  8.57762556432898E-11
(PID.TID 0000.0001)  cg2d: iter=   114 ; resid.=  7.09948569187756E-11
(PID.TID 0000.0001)  cg2d: iter=   115 ; resid.=  5.17196629133275E-11
(PID.TID 0000.0001)  cg2d: iter=   116 ; resid.=  3.73591524533605E-11
(PID.TID 0000.0001)  cg2d: iter=   117 ; resid.=  2.99113926796842E-11
(PID.TID 0000.0001)  cg2d: iter=   118 ; resid.=  2.23778034049516E-11
(PID.TID 0000.0001)  cg2d: iter=   119 ; resid.=  1.80182523126553E-11
(PID.TID 0000.0001)  cg2d: iter=   120 ; resid.=  1.35382743678471E-11
(PID.TID 0000.0001)  cg2d: iter=   121 ; resid.=  1.04213634930452E-11
(PID.TID 0000.0001)  cg2d: iter=   122 ; resid.=  8.05758120094740E-12
(PID.TID 0000.0001)  cg2d: iter=   123 ; resid.=  5.71831536830621E-12
(PID.TID 0000.0001)  cg2d: iter=   124 ; resid.=  3.91452834784875E-12
(PID.TID 0000.0001)  cg2d: iter=   125 ; resid.=  2.69793719483552E-12
(PID.TID 0000.0001)  cg2d: iter=   126 ; resid.=  1.94466844048537E-12
(PID.TID 0000.0001)  cg2d: iter=   127 ; resid.=  1.29187608493386E-12
(PID.TID 0000.0001)  cg2d: iter=   128 ; resid.=  8.99164299592124E-13
(PID.TID 0000.0001)  cg2d: iter=   129 ; resid.=  6.86124940750936E-13
(PID.TID 0000.0001)  cg2d: iter=   130 ; resid.=  5.13354612531129E-13
(PID.TID 0000.0001)  cg2d: iter=   131 ; resid.=  4.02909366037785E-13
(PID.TID 0000.0001)  cg2d: iter=   132 ; resid.=  3.06718161306844E-13
(PID.TID 0000.0001)  cg2d: iter=   133 ; resid.=  2.50253005452552E-13
(PID.TID 0000.0001)  cg2d: iter=   134 ; resid.=  1.96824488297369E-13
(PID.TID 0000.0001)  cg2d: iter=   135 ; resid.=  1.51286648542798E-13
(PID.TID 0000.0001)  cg2d: iter=   136 ; resid.=  9.95131623957477E-14
DEBUG_STATS_RL:    cg2d_x (SOLVE_FOR_PRESSURE)  min= -2.21728401383675E+01
DEBUG_STATS_RL:    cg2d_x (SOLVE_FOR_PRESSURE)  max=  1.74451399859630E+01
DEBUG_STATS_RL:    cg2d_x (SOLVE_FOR_PRESSURE) mean= -1.40128418393652E+00
DEBUG_STATS_RL:    cg2d_x (SOLVE_FOR_PRESSURE) S.D.=  7.08285756069383E+00
(PID.TID 0000.0001)      cg2d_init_res =   6.30577990904072E-01
(PID.TID 0000.0001)      cg2d_iters(min,last) =      -1     136
(PID.TID 0000.0001)      cg2d_last_res =   9.95131623957477E-14
(PID.TID 0000.0001) // =======================================================
(PID.TID 0000.0001) // Begin MONITOR dynamic field statistics
(PID.TID 0000.0001) // =======================================================
(PID.TID 0000.0001) %MON time_tsnumber                =                    22
(PID.TID 0000.0001) %MON time_secondsf                =   1.9008000000000E+06
(PID.TID 0000.0001) %MON dynstat_eta_max              =   1.7783017314947E+00
(PID.TID 0000.0001) %MON dynstat_eta_min              =  -2.2602283525348E+00
(PID.TID 0000.0001) %MON dynstat_eta_mean             =  -1.5983227641961E-03
(PID.TID 0000.0001) %MON dynstat_eta_sd               =   6.2974391582405E-01
(PID.TID 0000.0001) %MON dynstat_eta_del2             =   2.0386392167659E-03
(PID.TID 0000.0001) %MON dynstat_uvel_max             =   1.6767871095185E-01
(PID.TID 0000.0001) %MON dynstat_uvel_min             =  -1.5177604437343E-01
(PID.TID 0000.0001) %MON dynstat_uvel_mean            =  -3.7802025750703E-03
(PID.TID 0000.0001) %MON dynstat_uvel_sd              =   2.1578174421121E-02
(PID.TID 0000.0001) %MON dynstat_uvel_del2            =   1.1057427644834E-04
(PID.TID 0000.0001) %MON dynstat_vvel_max             =   1.4056151164456E-01
(PID.TID 0000.0001) %MON dynstat_vvel_min             =  -1.3518649401044E-01
(PID.TID 0000.0001) %MON dynstat_vvel_mean            =   1.0331861687244E-03
(PID.TID 0000.0001) %MON dynstat_vvel_sd              =   1.3257887570160E-02
(PID.TID 0000.0001) %MON dynstat_vvel_del2            =   1.0858128760462E-04
(PID.TID 0000.0001) %MON dynstat_wvel_max             =   2.1779629490151E-04
(PID.TID 0000.0001) %MON dynstat_wvel_min             =  -1.7890187141089E-04
(PID.TID 0000.0001) %MON dynstat_wvel_mean            =   4.2341559642524E-23
(PID.TID 0000.0001) %MON dynstat_wvel_sd              =   2.4515781872251E-05
(PID.TID 0000.0001) %MON dynstat_wvel_del2            =   2.6481139040048E-07
(PID.TID 0000.0001) %MON dynstat_theta_max            =   2.9876624679284E+01
(PID.TID 0000.0001) %MON dynstat_theta_min            =  -2.0105342082547E+00
(PID.TID 0000.0001) %MON dynstat_theta_mean           =   3.6502213341482E+00
(PID.TID 0000.0001) %MON dynstat_theta_sd             =   4.4160701381618E+00
(PID.TID 0000.0001) %MON dynstat_theta_del2           =   4.8873827461704E-03
(PID.TID 0000.0001) %MON dynstat_salt_max             =   3.7471622909730E+01
(PID.TID 0000.0001) %MON dynstat_salt_min             =   2.9804632121375E+01
(PID.TID 0000.0001) %MON dynstat_salt_mean            =   3.4747926218930E+01
(PID.TID 0000.0001) %MON dynstat_salt_sd              =   2.9618478996771E-01
(PID.TID 0000.0001) %MON dynstat_salt_del2            =   1.0102364734010E-03
(PID.TID 0000.0001) %MON dynstat_sst_max              =   2.9876624679284E+01
(PID.TID 0000.0001) %MON dynstat_sst_min              =  -2.0105342082547E+00
(PID.TID 0000.0001) %MON dynstat_sst_mean             =   1.8720460087528E+01
(PID.TID 0000.0001) %MON dynstat_sst_sd               =   9.0594410485148E+00
(PID.TID 0000.0001) %MON dynstat_sst_del2             =   2.6383276450502E-02
(PID.TID 0000.0001) %MON dynstat_sss_max              =   3.7459459602589E+01
(PID.TID 0000.0001) %MON dynstat_sss_min              =   2.9804632121375E+01
(PID.TID 0000.0001) %MON dynstat_sss_mean             =   3.4881670828923E+01
(PID.TID 0000.0001) %MON dynstat_sss_sd               =   9.7304887666767E-01
(PID.TID 0000.0001) %MON dynstat_sss_del2             =   7.9648054342381E-03
(PID.TID 0000.0001) %MON forcing_qnet_max             =   4.2169909667969E+02
(PID.TID 0000.0001) %MON forcing_qnet_min             =  -1.7858243103027E+02
(PID.TID 0000.0001) %MON forcing_qnet_mean            =  -1.6003070996624E+01
(PID.TID 0000.0001) %MON forcing_qnet_sd              =   1.0345568885738E+02
(PID.TID 0000.0001) %MON forcing_qnet_del2            =   1.0009668564957E+00
(PID.TID 0000.0001) %MON forcing_qsw_max              =   0.0000000000000E+00
(PID.TID 0000.0001) %MON forcing_qsw_min              =   0.0000000000000E+00
(PID.TID 0000.0001) %MON forcing_qsw_mean             =   0.0000000000000E+00
(PID.TID 0000.0001) %MON forcing_qsw_sd               =   0.0000000000000E+00
(PID.TID 0000.0001) %MON forcing_qsw_del2             =   0.0000000000000E+00
(PID.TID 0000.0001) %MON forcing_empmr_max            =   8.0289700576941E-05
(PID.TID 0000.0001) %MON forcing_empmr_min            =  -7.6633821777250E-05
(PID.TID 0000.0001) %MON forcing_empmr_mean           =   9.2703144567037E-07
(PID.TID 0000.0001) %MON forcing_empmr_sd             =   2.8506708365835E-05
(PID.TID 0000.0001) %MON forcing_empmr_del2           =   3.6098786833147E-07
(PID.TID 0000.0001) %MON forcing_fu_max               =   2.7760242819786E-01
(PID.TID 0000.0001) %MON forcing_fu_min               =  -1.7589417994022E-01
(PID.TID 0000.0001) %MON forcing_fu_mean              =   1.6327536445380E-02
(PID.TID 0000.0001) %MON forcing_fu_sd                =   9.0202228865328E-02
(PID.TID 0000.0001) %MON forcing_fu_del2              =   6.8655513835804E-04
(PID.TID 0000.0001) %MON forcing_fv_max               =   2.1387063860893E-01
(PID.TID 0000.0001) %MON forcing_fv_min               =  -1.7218910157681E-01
(PID.TID 0000.0001) %MON forcing_fv_mean              =  -5.6504631797962E-03
(PID.TID 0000.0001) %MON forcing_fv_sd                =   4.6529078937274E-02
(PID.TID 0000.0001) %MON forcing_fv_del2              =   4.7274716093950E-04
(PID.TID 0000.0001) %MON trAdv_CFL_u_max              =   6.1567979785486E-02
(PID.TID 0000.0001) %MON trAdv_CFL_v_max              =   2.7974779262312E-02
(PID.TID 0000.0001) %MON trAdv_CFL_w_max              =   8.1636773277978E-02
(PID.TID 0000.0001) %MON advcfl_uvel_max              =   4.6704101810760E-02
(PID.TID 0000.0001) %MON advcfl_vvel_max              =   2.7308847376921E-02
(PID.TID 0000.0001) %MON advcfl_wvel_max              =   6.4911143594098E-02
(PID.TID 0000.0001) %MON advcfl_W_hf_max              =   7.6502419235901E-02
(PID.TID 0000.0001) %MON pe_b_mean                    =   5.0747185224336E-04
(PID.TID 0000.0001) %MON ke_max                       =   1.6065602392103E-02
(PID.TID 0000.0001) %MON ke_mean                      =   2.9742006375114E-04
(PID.TID 0000.0001) %MON ke_vol                       =   1.3226782436723E+18
(PID.TID 0000.0001) %MON vort_r_min                   =  -5.2430122768963E-07
(PID.TID 0000.0001) %MON vort_r_max                   =   6.1703659965820E-07
(PID.TID 0000.0001) %MON vort_a_mean                  =  -2.5274806489957E-05
(PID.TID 0000.0001) %MON vort_a_sd                    =   7.3603740759467E-05
(PID.TID 0000.0001) %MON vort_p_mean                  =  -3.1845654656052E-05
(PID.TID 0000.0001) %MON vort_p_sd                    =   1.3162447502060E-04
(PID.TID 0000.0001) %MON surfExpan_theta_mean         =  -3.1310079614536E-07
(PID.TID 0000.0001) %MON surfExpan_salt_mean          =   2.3998763102289E-07
(PID.TID 0000.0001) // =======================================================
(PID.TID 0000.0001) // End MONITOR dynamic field statistics
(PID.TID 0000.0001) // =======================================================
 EXTERNAL_FIELDS_LOAD,        22 : iP,iLd,i0,i1=    1    2    1    2 ; Wght=  0.7666666667  0.2333333333
 EXTERNAL_FIELDS_LOAD: (fu0,1),fu,fv= -3.5633E-02 -1.4435E-02 -3.0687E-02 -4.8012E-02
 EXTERNAL_FIELDS_LOAD: SST,SSS,Q,E-P=  6.1069E-01  3.4646E+01  2.5987E+02  1.0876E-05
DEBUG_STATS_RL:          Uvel (THERMODYNAMICS)  min= -1.51776044373433E-01
DEBUG_STATS_RL:          Uvel (THERMODYNAMICS)  max=  1.67678710951848E-01
DEBUG_STATS_RL:          Uvel (THERMODYNAMICS) mean= -1.48006879642126E-03
DEBUG_STATS_RL:          Uvel (THERMODYNAMICS) S.D.=  2.52897949240129E-02
DEBUG_STATS_RL:          Vvel (THERMODYNAMICS)  min= -1.35186494010440E-01
DEBUG_STATS_RL:          Vvel (THERMODYNAMICS)  max=  1.40561511644564E-01
DEBUG_STATS_RL:          Vvel (THERMODYNAMICS) mean=  2.69291840279332E-03
DEBUG_STATS_RL:          Vvel (THERMODYNAMICS) S.D.=  1.94139651661122E-02
DEBUG_STATS_RL:          Wvel (THERMODYNAMICS)  min= -1.78901871410889E-04
DEBUG_STATS_RL:          Wvel (THERMODYNAMICS)  max=  2.17796294901509E-04
DEBUG_STATS_RL:          Wvel (THERMODYNAMICS) mean=  3.71794388360606E-07
DEBUG_STATS_RL:          Wvel (THERMODYNAMICS) S.D.=  2.19783781588622E-05
DEBUG_STATS_RL:         Theta (THERMODYNAMICS)  min= -2.00950793261490E+00
DEBUG_STATS_RL:         Theta (THERMODYNAMICS)  max=  2.98884716642126E+01
DEBUG_STATS_RL:         Theta (THERMODYNAMICS) mean=  3.23832071620505E+00
DEBUG_STATS_RL:         Theta (THERMODYNAMICS) S.D.=  5.85705113525199E+00
DEBUG_STATS_RL:          Salt (THERMODYNAMICS)  min=  3.00000000000000E-02
DEBUG_STATS_RL:          Salt (THERMODYNAMICS)  max=  3.74722083192199E+01
DEBUG_STATS_RL:          Salt (THERMODYNAMICS) mean=  1.88750872002491E+01
DEBUG_STATS_RL:          Salt (THERMODYNAMICS) S.D.=  1.73005773700862E+01
DEBUG_STATS_RL:         GtNm1 (THERMODYNAMICS)  min= -3.49675798784457E-06
DEBUG_STATS_RL:         GtNm1 (THERMODYNAMICS)  max=  3.84045098673544E-06
DEBUG_STATS_RL:         GtNm1 (THERMODYNAMICS) mean=  4.96747405623876E-10
DEBUG_STATS_RL:         GtNm1 (THERMODYNAMICS) S.D.=  2.48551699850481E-07
DEBUG_STATS_RL:         GsNm1 (THERMODYNAMICS)  min= -5.70600206044936E-07
DEBUG_STATS_RL:         GsNm1 (THERMODYNAMICS)  max=  5.10913626803504E-07
DEBUG_STATS_RL:         GsNm1 (THERMODYNAMICS) mean= -5.18020923801361E-10
DEBUG_STATS_RL:         GsNm1 (THERMODYNAMICS) S.D.=  2.33575508543529E-08
DEBUG_STATS_RL:                EtaN (DYNAMICS)  min= -2.26022835253480E+00
DEBUG_STATS_RL:                EtaN (DYNAMICS)  max=  1.77830173149470E+00
DEBUG_STATS_RL:                EtaN (DYNAMICS) mean= -1.42842424458361E-01
DEBUG_STATS_RL:                EtaN (DYNAMICS) S.D.=  7.22003828816906E-01
DEBUG_STATS_RL:                Uvel (DYNAMICS)  min= -1.51776044373433E-01
DEBUG_STATS_RL:                Uvel (DYNAMICS)  max=  1.67678710951848E-01
DEBUG_STATS_RL:                Uvel (DYNAMICS) mean= -1.48006879642126E-03
DEBUG_STATS_RL:                Uvel (DYNAMICS) S.D.=  2.52897949240129E-02
DEBUG_STATS_RL:                Vvel (DYNAMICS)  min= -1.35186494010440E-01
DEBUG_STATS_RL:                Vvel (DYNAMICS)  max=  1.40561511644564E-01
DEBUG_STATS_RL:                Vvel (DYNAMICS) mean=  2.69291840279332E-03
DEBUG_STATS_RL:                Vvel (DYNAMICS) S.D.=  1.94139651661122E-02
DEBUG_STATS_RL:                Wvel (DYNAMICS)  min= -1.78901871410889E-04
DEBUG_STATS_RL:                Wvel (DYNAMICS)  max=  2.17796294901509E-04
DEBUG_STATS_RL:                Wvel (DYNAMICS) mean=  3.71794388360606E-07
DEBUG_STATS_RL:                Wvel (DYNAMICS) S.D.=  2.19783781588622E-05
DEBUG_STATS_RL:               Theta (DYNAMICS)  min= -2.00950793261490E+00
DEBUG_STATS_RL:               Theta (DYNAMICS)  max=  2.98884716642126E+01
DEBUG_STATS_RL:               Theta (DYNAMICS) mean=  3.23832071620505E+00
DEBUG_STATS_RL:               Theta (DYNAMICS) S.D.=  5.85705113525199E+00
DEBUG_STATS_RL:                Salt (DYNAMICS)  min=  3.00000000000000E-02
DEBUG_STATS_RL:                Salt (DYNAMICS)  max=  3.74722083192199E+01
DEBUG_STATS_RL:                Salt (DYNAMICS) mean=  1.88750872002491E+01
DEBUG_STATS_RL:                Salt (DYNAMICS) S.D.=  1.73005773700862E+01
DEBUG_STATS_RL:                  Gu (DYNAMICS)  min= -1.60281990247969E-01
DEBUG_STATS_RL:                  Gu (DYNAMICS)  max=  1.68306900888662E-01
DEBUG_STATS_RL:                  Gu (DYNAMICS) mean= -8.73712494516780E-04
DEBUG_STATS_RL:                  Gu (DYNAMICS) S.D.=  2.57955438922632E-02
DEBUG_STATS_RL:                  Gv (DYNAMICS)  min= -1.37051432996963E-01
DEBUG_STATS_RL:                  Gv (DYNAMICS)  max=  1.58309275766117E-01
DEBUG_STATS_RL:                  Gv (DYNAMICS) mean=  4.49240302567462E-03
DEBUG_STATS_RL:                  Gv (DYNAMICS) S.D.=  2.08301482158398E-02
DEBUG_STATS_RL:               GuNm1 (DYNAMICS)  min= -6.62887146494052E-06
DEBUG_STATS_RL:               GuNm1 (DYNAMICS)  max=  8.24299170949875E-06
DEBUG_STATS_RL:               GuNm1 (DYNAMICS) mean= -5.25705194028757E-09
DEBUG_STATS_RL:               GuNm1 (DYNAMICS) S.D.=  1.18373457941713E-06
DEBUG_STATS_RL:               GvNm1 (DYNAMICS)  min= -9.43806107186916E-06
DEBUG_STATS_RL:               GvNm1 (DYNAMICS)  max=  1.70802101423030E-05
DEBUG_STATS_RL:               GvNm1 (DYNAMICS) mean=  7.77758694374993E-07
DEBUG_STATS_RL:               GvNm1 (DYNAMICS) S.D.=  2.62418913651222E-06
DEBUG_STATS_RL:               GtNm1 (DYNAMICS)  min= -3.49675798784457E-06
DEBUG_STATS_RL:               GtNm1 (DYNAMICS)  max=  3.84045098673544E-06
DEBUG_STATS_RL:               GtNm1 (DYNAMICS) mean=  4.96747405623876E-10
DEBUG_STATS_RL:               GtNm1 (DYNAMICS) S.D.=  2.48551699850481E-07
DEBUG_STATS_RL:               GsNm1 (DYNAMICS)  min= -5.70600206044936E-07
DEBUG_STATS_RL:               GsNm1 (DYNAMICS)  max=  5.10913626803504E-07
DEBUG_STATS_RL:               GsNm1 (DYNAMICS) mean= -5.18020923801361E-10
DEBUG_STATS_RL:               GsNm1 (DYNAMICS) S.D.=  2.33575508543529E-08
DEBUG_STATS_RL:    cg2d_b (SOLVE_FOR_PRESSURE)  min= -2.43898223493206E+04
DEBUG_STATS_RL:    cg2d_b (SOLVE_FOR_PRESSURE)  max=  2.15614358006667E+04
DEBUG_STATS_RL:    cg2d_b (SOLVE_FOR_PRESSURE) mean=  1.60610048133565E+00
DEBUG_STATS_RL:    cg2d_b (SOLVE_FOR_PRESSURE) S.D.=  3.93461735845046E+03
 cg2d: Sum(rhs),rhsMax =   1.52445662007668E-01  1.60198883384084E+00
(PID.TID 0000.0001)  cg2d: iter=     1 ; resid.=  4.77616184057396E-01
(PID.TID 0000.0001)  cg2d: iter=     2 ; resid.=  4.05223113232108E-01
(PID.TID 0000.0001)  cg2d: iter=     3 ; resid.=  3.96296860323425E-01
(PID.TID 0000.0001)  cg2d: iter=     4 ; resid.=  4.12253205338852E-01
(PID.TID 0000.0001)  cg2d: iter=     5 ; resid.=  3.28128751876382E-01
(PID.TID 0000.0001)  cg2d: iter=     6 ; resid.=  2.50462057963983E-01
(PID.TID 0000.0001)  cg2d: iter=     7 ; resid.=  2.24807911641149E-01
(PID.TID 0000.0001)  cg2d: iter=     8 ; resid.=  1.90270251335630E-01
(PID.TID 0000.0001)  cg2d: iter=     9 ; resid.=  1.46732150088878E-01
(PID.TID 0000.0001)  cg2d: iter=    10 ; resid.=  1.32338561855472E-01
(PID.TID 0000.0001)  cg2d: iter=    11 ; resid.=  1.19772810060245E-01
(PID.TID 0000.0001)  cg2d: iter=    12 ; resid.=  9.65698129190776E-02
(PID.TID 0000.0001)  cg2d: iter=    13 ; resid.=  7.57461100176941E-02
(PID.TID 0000.0001)  cg2d: iter=    14 ; resid.=  6.31133257723276E-02
(PID.TID 0000.0001)  cg2d: iter=    15 ; resid.=  4.87641055045376E-02
(PID.TID 0000.0001)  cg2d: iter=    16 ; resid.=  4.46328797903852E-02
(PID.TID 0000.0001)  cg2d: iter=    17 ; resid.=  4.24550142924739E-02
(PID.TID 0000.0001)  cg2d: iter=    18 ; resid.=  3.38715924060332E-02
(PID.TID 0000.0001)  cg2d: iter=    19 ; resid.=  2.91509327479922E-02
(PID.TID 0000.0001)  cg2d: iter=    20 ; resid.=  2.53680504609151E-02
(PID.TID 0000.0001)  cg2d: iter=    21 ; resid.=  2.07957321407077E-02
(PID.TID 0000.0001)  cg2d: iter=    22 ; resid.=  1.63470137523413E-02
(PID.TID 0000.0001)  cg2d: iter=    23 ; resid.=  1.41238941987247E-02
(PID.TID 0000.0001)  cg2d: iter=    24 ; resid.=  1.21811792968629E-02
(PID.TID 0000.0001)  cg2d: iter=    25 ; resid.=  9.46031587229171E-03
(PID.TID 0000.0001)  cg2d: iter=    26 ; resid.=  8.19965033366690E-03
(PID.TID 0000.0001)  cg2d: iter=    27 ; resid.=  7.31079942706356E-03
(PID.TID 0000.0001)  cg2d: iter=    28 ; resid.=  6.05542159124026E-03
(PID.TID 0000.0001)  cg2d: iter=    29 ; resid.=  4.83864165155044E-03
(PID.TID 0000.0001)  cg2d: iter=    30 ; resid.=  4.24555868762180E-03
(PID.TID 0000.0001)  cg2d: iter=    31 ; resid.=  3.43266109543531E-03
(PID.TID 0000.0001)  cg2d: iter=    32 ; resid.=  2.68783369186502E-03
(PID.TID 0000.0001)  cg2d: iter=    33 ; resid.=  2.37586144279934E-03
(PID.TID 0000.0001)  cg2d: iter=    34 ; resid.=  1.98647917564243E-03
(PID.TID 0000.0001)  cg2d: iter=    35 ; resid.=  1.61970870532090E-03
(PID.TID 0000.0001)  cg2d: iter=    36 ; resid.=  1.36241012355270E-03
(PID.TID 0000.0001)  cg2d: iter=    37 ; resid.=  1.20265296847565E-03
(PID.TID 0000.0001)  cg2d: iter=    38 ; resid.=  1.08288407092518E-03
(PID.TID 0000.0001)  cg2d: iter=    39 ; resid.=  9.63685193747559E-04
(PID.TID 0000.0001)  cg2d: iter=    40 ; resid.=  7.85182153935725E-04
(PID.TID 0000.0001)  cg2d: iter=    41 ; resid.=  6.04469553159770E-04
(PID.TID 0000.0001)  cg2d: iter=    42 ; resid.=  5.26620441972435E-04
(PID.TID 0000.0001)  cg2d: iter=    43 ; resid.=  4.47183263484219E-04
(PID.TID 0000.0001)  cg2d: iter=    44 ; resid.=  3.50386110602284E-04
(PID.TID 0000.0001)  cg2d: iter=    45 ; resid.=  2.52006359566403E-04
(PID.TID 0000.0001)  cg2d: iter=    46 ; resid.=  1.97575159398816E-04
(PID.TID 0000.0001)  cg2d: iter=    47 ; resid.=  1.63896362118066E-04
(PID.TID 0000.0001)  cg2d: iter=    48 ; resid.=  1.27068486841661E-04
(PID.TID 0000.0001)  cg2d: iter=    49 ; resid.=  1.05049817835441E-04
(PID.TID 0000.0001)  cg2d: iter=    50 ; resid.=  9.05958121486659E-05
(PID.TID 0000.0001)  cg2d: iter=    51 ; resid.=  7.62443669469595E-05
(PID.TID 0000.0001)  cg2d: iter=    52 ; resid.=  6.64596351103295E-05
(PID.TID 0000.0001)  cg2d: iter=    53 ; resid.=  5.80517472501905E-05
(PID.TID 0000.0001)  cg2d: iter=    54 ; resid.=  4.89922205741884E-05
(PID.TID 0000.0001)  cg2d: iter=    55 ; resid.=  4.03712358317561E-05
(PID.TID 0000.0001)  cg2d: iter=    56 ; resid.=  3.45217826060508E-05
(PID.TID 0000.0001)  cg2d: iter=    57 ; resid.=  2.81468664084837E-05
(PID.TID 0000.0001)  cg2d: iter=    58 ; resid.=  2.15680305990748E-05
(PID.TID 0000.0001)  cg2d: iter=    59 ; resid.=  1.73199469958127E-05
(PID.TID 0000.0001)  cg2d: iter=    60 ; resid.=  1.36850352285769E-05
(PID.TID 0000.0001)  cg2d: iter=    61 ; resid.=  1.08902656931408E-05
(PID.TID 0000.0001)  cg2d: iter=    62 ; resid.=  9.04467258183501E-06
(PID.TID 0000.0001)  cg2d: iter=    63 ; resid.=  7.68946345123832E-06
(PID.TID 0000.0001)  cg2d: iter=    64 ; resid.=  6.22054886951469E-06
(PID.TID 0000.0001)  cg2d: iter=    65 ; resid.=  5.23754430200349E-06
(PID.TID 0000.0001)  cg2d: iter=    66 ; resid.=  4.20049658380729E-06
(PID.TID 0000.0001)  cg2d: iter=    67 ; resid.=  3.57332794352637E-06
(PID.TID 0000.0001)  cg2d: iter=    68 ; resid.=  2.72878798304645E-06
(PID.TID 0000.0001)  cg2d: iter=    69 ; resid.=  2.32318234988557E-06
(PID.TID 0000.0001)  cg2d: iter=    70 ; resid.=  1.94234390201032E-06
(PID.TID 0000.0001)  cg2d: iter=    71 ; resid.=  1.64957476702429E-06
(PID.TID 0000.0001)  cg2d: iter=    72 ; resid.=  1.47773257207831E-06
(PID.TID 0000.0001)  cg2d: iter=    73 ; resid.=  1.34604272458130E-06
(PID.TID 0000.0001)  cg2d: iter=    74 ; resid.=  1.12246529719022E-06
(PID.TID 0000.0001)  cg2d: iter=    75 ; resid.=  8.84595579881512E-07
(PID.TID 0000.0001)  cg2d: iter=    76 ; resid.=  7.36034049723827E-07
(PID.TID 0000.0001)  cg2d: iter=    77 ; resid.=  5.95905691699985E-07
(PID.TID 0000.0001)  cg2d: iter=    78 ; resid.=  5.01566711971571E-07
(PID.TID 0000.0001)  cg2d: iter=    79 ; resid.=  4.28273628950984E-07
(PID.TID 0000.0001)  cg2d: iter=    80 ; resid.=  3.13409164797906E-07
(PID.TID 0000.0001)  cg2d: iter=    81 ; resid.=  2.45034772921758E-07
(PID.TID 0000.0001)  cg2d: iter=    82 ; resid.=  1.85229399817603E-07
(PID.TID 0000.0001)  cg2d: iter=    83 ; resid.=  1.39517688984378E-07
(PID.TID 0000.0001)  cg2d: iter=    84 ; resid.=  1.08377560801274E-07
(PID.TID 0000.0001)  cg2d: iter=    85 ; resid.=  8.09834823203409E-08
(PID.TID 0000.0001)  cg2d: iter=    86 ; resid.=  6.43836277970099E-08
(PID.TID 0000.0001)  cg2d: iter=    87 ; resid.=  5.34262987266854E-08
(PID.TID 0000.0001)  cg2d: iter=    88 ; resid.=  4.58154661693013E-08
(PID.TID 0000.0001)  cg2d: iter=    89 ; resid.=  3.84283854423726E-08
(PID.TID 0000.0001)  cg2d: iter=    90 ; resid.=  2.91453471469738E-08
(PID.TID 0000.0001)  cg2d: iter=    91 ; resid.=  2.16082283437297E-08
(PID.TID 0000.0001)  cg2d: iter=    92 ; resid.=  1.49148216432033E-08
(PID.TID 0000.0001)  cg2d: iter=    93 ; resid.=  9.43658447831050E-09
(PID.TID 0000.0001)  cg2d: iter=    94 ; resid.=  6.53014629040157E-09
(PID.TID 0000.0001)  cg2d: iter=    95 ; resid.=  4.96566933977049E-09
(PID.TID 0000.0001)  cg2d: iter=    96 ; resid.=  3.88862476892859E-09
(PID.TID 0000.0001)  cg2d: iter=    97 ; resid.=  3.15641864917538E-09
(PID.TID 0000.0001)  cg2d: iter=    98 ; resid.=  2.64370151090527E-09
(PID.TID 0000.0001)  cg2d: iter=    99 ; resid.=  2.36042387553205E-09
(PID.TID 0000.0001)  cg2d: iter=   100 ; resid.=  2.15858211205322E-09
(PID.TID 0000.0001)  cg2d: iter=   101 ; resid.=  1.84135369077551E-09
(PID.TID 0000.0001)  cg2d: iter=   102 ; resid.=  1.51704601636847E-09
(PID.TID 0000.0001)  cg2d: iter=   103 ; resid.=  1.25585861622812E-09
(PID.TID 0000.0001)  cg2d: iter=   104 ; resid.=  9.67946276169048E-10
(PID.TID 0000.0001)  cg2d: iter=   105 ; resid.=  7.25046053361131E-10
(PID.TID 0000.0001)  cg2d: iter=   106 ; resid.=  5.92931911999705E-10
(PID.TID 0000.0001)  cg2d: iter=   107 ; resid.=  4.46369330115702E-10
(PID.TID 0000.0001)  cg2d: iter=   108 ; resid.=  3.36523960994683E-10
(PID.TID 0000.0001)  cg2d: iter=   109 ; resid.=  2.62132763604115E-10
(PID.TID 0000.0001)  cg2d: iter=   110 ; resid.=  1.99132854869000E-10
(PID.TID 0000.0001)  cg2d: iter=   111 ; resid.=  1.58271137594258E-10
(PID.TID 0000.0001)  cg2d: iter=   112 ; resid.=  1.16630272460990E-10
(PID.TID 0000.0001)  cg2d: iter=   113 ; resid.=  8.83040298026848E-11
(PID.TID 0000.0001)  cg2d: iter=   114 ; resid.=  7.15708886904507E-11
(PID.TID 0000.0001)  cg2d: iter=   115 ; resid.=  5.20750269107693E-11
(PID.TID 0000.0001)  cg2d: iter=   116 ; resid.=  3.89920308328272E-11
(PID.TID 0000.0001)  cg2d: iter=   117 ; resid.=  3.19089509312691E-11
(PID.TID 0000.0001)  cg2d: iter=   118 ; resid.=  2.37820522259736E-11
(PID.TID 0000.0001)  cg2d: iter=   119 ; resid.=  1.90900956215031E-11
(PID.TID 0000.0001)  cg2d: iter=   120 ; resid.=  1.40784398953237E-11
(PID.TID 0000.0001)  cg2d: iter=   121 ; resid.=  1.07184248984859E-11
(PID.TID 0000.0001)  cg2d: iter=   122 ; resid.=  8.39954795762761E-12
(PID.TID 0000.0001)  cg2d: iter=   123 ; resid.=  5.97926928363669E-12
(PID.TID 0000.0001)  cg2d: iter=   124 ; resid.=  4.11621422689741E-12
(PID.TID 0000.0001)  cg2d: iter=   125 ; resid.=  2.96459838872574E-12
(PID.TID 0000.0001)  cg2d: iter=   126 ; resid.=  2.20093183529849E-12
(PID.TID 0000.0001)  cg2d: iter=   127 ; resid.=  1.53697465393283E-12
(PID.TID 0000.0001)  cg2d: iter=   128 ; resid.=  1.11050504314409E-12
(PID.TID 0000.0001)  cg2d: iter=   129 ; resid.=  8.57169757845612E-13
(PID.TID 0000.0001)  cg2d: iter=   130 ; resid.=  6.34143872289265E-13
(PID.TID 0000.0001)  cg2d: iter=   131 ; resid.=  4.83444537988644E-13
(PID.TID 0000.0001)  cg2d: iter=   132 ; resid.=  3.52317969085834E-13
(PID.TID 0000.0001)  cg2d: iter=   133 ; resid.=  2.84028157329993E-13
(PID.TID 0000.0001)  cg2d: iter=   134 ; resid.=  2.11893048067557E-13
(PID.TID 0000.0001)  cg2d: iter=   135 ; resid.=  1.55852158561917E-13
(PID.TID 0000.0001)  cg2d: iter=   136 ; resid.=  1.02633301936154E-13
(PID.TID 0000.0001)  cg2d: iter=   137 ; resid.=  7.27430165967096E-14
DEBUG_STATS_RL:    cg2d_x (SOLVE_FOR_PRESSURE)  min= -2.12118466316676E+01
DEBUG_STATS_RL:    cg2d_x (SOLVE_FOR_PRESSURE)  max=  1.71704203218114E+01
DEBUG_STATS_RL:    cg2d_x (SOLVE_FOR_PRESSURE) mean= -1.37974138925366E+00
DEBUG_STATS_RL:    cg2d_x (SOLVE_FOR_PRESSURE) S.D.=  7.14813092541166E+00
(PID.TID 0000.0001)      cg2d_init_res =   6.07500374247383E-01
(PID.TID 0000.0001)      cg2d_iters(min,last) =      -1     137
(PID.TID 0000.0001)      cg2d_last_res =   7.27430165967096E-14
(PID.TID 0000.0001) // =======================================================
(PID.TID 0000.0001) // Begin MONITOR dynamic field statistics
(PID.TID 0000.0001) // =======================================================
(PID.TID 0000.0001) %MON time_tsnumber                =                    23
(PID.TID 0000.0001) %MON time_secondsf                =   1.9872000000000E+06
(PID.TID 0000.0001) %MON dynstat_eta_max              =   1.7502976882580E+00
(PID.TID 0000.0001) %MON dynstat_eta_min              =  -2.1622677504248E+00
(PID.TID 0000.0001) %MON dynstat_eta_mean             =  -1.6757667023887E-03
(PID.TID 0000.0001) %MON dynstat_eta_sd               =   6.2853181778186E-01
(PID.TID 0000.0001) %MON dynstat_eta_del2             =   2.0588169521898E-03
(PID.TID 0000.0001) %MON dynstat_uvel_max             =   1.6660598719954E-01
(PID.TID 0000.0001) %MON dynstat_uvel_min             =  -1.5812238817661E-01
(PID.TID 0000.0001) %MON dynstat_uvel_mean            =  -2.9733626125367E-03
(PID.TID 0000.0001) %MON dynstat_uvel_sd              =   2.1334326839055E-02
(PID.TID 0000.0001) %MON dynstat_uvel_del2            =   1.0930723142599E-04
(PID.TID 0000.0001) %MON dynstat_vvel_max             =   1.4000027983478E-01
(PID.TID 0000.0001) %MON dynstat_vvel_min             =  -1.4055516104680E-01
(PID.TID 0000.0001) %MON dynstat_vvel_mean            =   8.7789921421260E-04
(PID.TID 0000.0001) %MON dynstat_vvel_sd              =   1.3286689586673E-02
(PID.TID 0000.0001) %MON dynstat_vvel_del2            =   1.0658248093238E-04
(PID.TID 0000.0001) %MON dynstat_wvel_max             =   1.8402597343326E-04
(PID.TID 0000.0001) %MON dynstat_wvel_min             =  -1.8713488807991E-04
(PID.TID 0000.0001) %MON dynstat_wvel_mean            =  -1.5762253405386E-22
(PID.TID 0000.0001) %MON dynstat_wvel_sd              =   2.3386881560210E-05
(PID.TID 0000.0001) %MON dynstat_wvel_del2            =   2.5007364936975E-07
(PID.TID 0000.0001) %MON dynstat_theta_max            =   2.9888471664213E+01
(PID.TID 0000.0001) %MON dynstat_theta_min            =  -2.0095079326149E+00
(PID.TID 0000.0001) %MON dynstat_theta_mean           =   3.6503193773915E+00
(PID.TID 0000.0001) %MON dynstat_theta_sd             =   4.4162418321482E+00
(PID.TID 0000.0001) %MON dynstat_theta_del2           =   4.8882942573332E-03
(PID.TID 0000.0001) %MON dynstat_salt_max             =   3.7472208319220E+01
(PID.TID 0000.0001) %MON dynstat_salt_min             =   2.9819391923818E+01
(PID.TID 0000.0001) %MON dynstat_salt_mean            =   3.4747922120584E+01
(PID.TID 0000.0001) %MON dynstat_salt_sd              =   2.9616336546029E-01
(PID.TID 0000.0001) %MON dynstat_salt_del2            =   1.0089357869301E-03
(PID.TID 0000.0001) %MON dynstat_sst_max              =   2.9888471664213E+01
(PID.TID 0000.0001) %MON dynstat_sst_min              =  -2.0095079326149E+00
(PID.TID 0000.0001) %MON dynstat_sst_mean             =   1.8725207120566E+01
(PID.TID 0000.0001) %MON dynstat_sst_sd               =   9.0594391100347E+00
(PID.TID 0000.0001) %MON dynstat_sst_del2             =   2.6389590124494E-02
(PID.TID 0000.0001) %MON dynstat_sss_max              =   3.7459420447400E+01
(PID.TID 0000.0001) %MON dynstat_sss_min              =   2.9819391923818E+01
(PID.TID 0000.0001) %MON dynstat_sss_mean             =   3.4881027841607E+01
(PID.TID 0000.0001) %MON dynstat_sss_sd               =   9.7330105616292E-01
(PID.TID 0000.0001) %MON dynstat_sss_del2             =   7.9523959501253E-03
(PID.TID 0000.0001) %MON forcing_qnet_max             =   4.1838000996908E+02
(PID.TID 0000.0001) %MON forcing_qnet_min             =  -1.7834291178385E+02
(PID.TID 0000.0001) %MON forcing_qnet_mean            =  -1.5918161829221E+01
(PID.TID 0000.0001) %MON forcing_qnet_sd              =   1.0239971019621E+02
(PID.TID 0000.0001) %MON forcing_qnet_del2            =   9.9741913177861E-01
(PID.TID 0000.0001) %MON forcing_qsw_max              =   0.0000000000000E+00
(PID.TID 0000.0001) %MON forcing_qsw_min              =   0.0000000000000E+00
(PID.TID 0000.0001) %MON forcing_qsw_mean             =   0.0000000000000E+00
(PID.TID 0000.0001) %MON forcing_qsw_sd               =   0.0000000000000E+00
(PID.TID 0000.0001) %MON forcing_qsw_del2             =   0.0000000000000E+00
(PID.TID 0000.0001) %MON forcing_empmr_max            =   7.9975610844940E-05
(PID.TID 0000.0001) %MON forcing_empmr_min            =  -7.6713466038806E-05
(PID.TID 0000.0001) %MON forcing_empmr_mean           =   9.2771384293034E-07
(PID.TID 0000.0001) %MON forcing_empmr_sd             =   2.8463942811171E-05
(PID.TID 0000.0001) %MON forcing_empmr_del2           =   3.6008973554056E-07
(PID.TID 0000.0001) %MON forcing_fu_max               =   2.7740635275841E-01
(PID.TID 0000.0001) %MON forcing_fu_min               =  -1.7755410373211E-01
(PID.TID 0000.0001) %MON forcing_fu_mean              =   1.6381836660849E-02
(PID.TID 0000.0001) %MON forcing_fu_sd                =   9.0119528995688E-02
(PID.TID 0000.0001) %MON forcing_fu_del2              =   6.8212946826367E-04
(PID.TID 0000.0001) %MON forcing_fv_max               =   2.1066219160954E-01
(PID.TID 0000.0001) %MON forcing_fv_min               =  -1.7119780182838E-01
(PID.TID 0000.0001) %MON forcing_fv_mean              =  -5.7157240865113E-03
(PID.TID 0000.0001) %MON forcing_fv_sd                =   4.6290555441337E-02
(PID.TID 0000.0001) %MON forcing_fv_del2              =   4.6994343397308E-04
(PID.TID 0000.0001) %MON trAdv_CFL_u_max              =   4.6713587747871E-02
(PID.TID 0000.0001) %MON trAdv_CFL_v_max              =   2.9206088959390E-02
(PID.TID 0000.0001) %MON trAdv_CFL_w_max              =   7.5522084167925E-02
(PID.TID 0000.0001) %MON advcfl_uvel_max              =   4.5215141981869E-02
(PID.TID 0000.0001) %MON advcfl_vvel_max              =   2.7307613557627E-02
(PID.TID 0000.0001) %MON advcfl_wvel_max              =   6.9675399640895E-02
(PID.TID 0000.0001) %MON advcfl_W_hf_max              =   8.2117435291055E-02
(PID.TID 0000.0001) %MON pe_b_mean                    =   5.0552055889943E-04
(PID.TID 0000.0001) %MON ke_max                       =   1.6132987097002E-02
(PID.TID 0000.0001) %MON ke_mean                      =   2.9040047899968E-04
(PID.TID 0000.0001) %MON ke_vol                       =   1.3226782436723E+18
(PID.TID 0000.0001) %MON vort_r_min                   =  -5.3207235163375E-07
(PID.TID 0000.0001) %MON vort_r_max                   =   6.0532151526605E-07
(PID.TID 0000.0001) %MON vort_a_mean                  =  -2.5274806293085E-05
(PID.TID 0000.0001) %MON vort_a_sd                    =   7.3603837215087E-05
(PID.TID 0000.0001) %MON vort_p_mean                  =  -3.1845654407998E-05
(PID.TID 0000.0001) %MON vort_p_sd                    =   1.3162552467610E-04
(PID.TID 0000.0001) %MON surfExpan_theta_mean         =  -5.0590978478919E-07
(PID.TID 0000.0001) %MON surfExpan_salt_mean          =   1.9367402367088E-07
(PID.TID 0000.0001) // =======================================================
(PID.TID 0000.0001) // End MONITOR dynamic field statistics
(PID.TID 0000.0001) // =======================================================
 EXTERNAL_FIELDS_LOAD,        23 : iP,iLd,i0,i1=    1    2    1    2 ; Wght=  0.7333333333  0.2666666667
 EXTERNAL_FIELDS_LOAD: (fu0,1),fu,fv= -3.5633E-02 -1.4435E-02 -2.9980E-02 -4.6691E-02
 EXTERNAL_FIELDS_LOAD: SST,SSS,Q,E-P=  5.6102E-01  3.4636E+01  2.5903E+02  1.0767E-05
DEBUG_STATS_RL:          Uvel (THERMODYNAMICS)  min= -1.58122388176613E-01
DEBUG_STATS_RL:          Uvel (THERMODYNAMICS)  max=  1.66605987199543E-01
DEBUG_STATS_RL:          Uvel (THERMODYNAMICS) mean= -7.10230181224216E-04
DEBUG_STATS_RL:          Uvel (THERMODYNAMICS) S.D.=  2.51127442483536E-02
DEBUG_STATS_RL:          Vvel (THERMODYNAMICS)  min= -1.40555161046800E-01
DEBUG_STATS_RL:          Vvel (THERMODYNAMICS)  max=  1.40000279834784E-01
DEBUG_STATS_RL:          Vvel (THERMODYNAMICS) mean=  2.46072065709310E-03
DEBUG_STATS_RL:          Vvel (THERMODYNAMICS) S.D.=  1.93323701010786E-02
DEBUG_STATS_RL:          Wvel (THERMODYNAMICS)  min= -1.87134888079908E-04
DEBUG_STATS_RL:          Wvel (THERMODYNAMICS)  max=  1.84025973433256E-04
DEBUG_STATS_RL:          Wvel (THERMODYNAMICS) mean=  3.55702604771685E-07
DEBUG_STATS_RL:          Wvel (THERMODYNAMICS) S.D.=  2.09275333288122E-05
DEBUG_STATS_RL:         Theta (THERMODYNAMICS)  min= -2.00906469265629E+00
DEBUG_STATS_RL:         Theta (THERMODYNAMICS)  max=  2.99016063551458E+01
DEBUG_STATS_RL:         Theta (THERMODYNAMICS) mean=  3.23831051882541E+00
DEBUG_STATS_RL:         Theta (THERMODYNAMICS) S.D.=  5.85725693933861E+00
DEBUG_STATS_RL:          Salt (THERMODYNAMICS)  min=  3.00000000000000E-02
DEBUG_STATS_RL:          Salt (THERMODYNAMICS)  max=  3.74728967224583E+01
DEBUG_STATS_RL:          Salt (THERMODYNAMICS) mean=  1.88750639176345E+01
DEBUG_STATS_RL:          Salt (THERMODYNAMICS) S.D.=  1.73005555683172E+01
DEBUG_STATS_RL:         GtNm1 (THERMODYNAMICS)  min= -3.43954263894299E-06
DEBUG_STATS_RL:         GtNm1 (THERMODYNAMICS)  max=  3.63204372554066E-06
DEBUG_STATS_RL:         GtNm1 (THERMODYNAMICS) mean=  1.62089979482431E-10
DEBUG_STATS_RL:         GtNm1 (THERMODYNAMICS) S.D.=  2.48244763404286E-07
DEBUG_STATS_RL:         GsNm1 (THERMODYNAMICS)  min= -5.54999217486527E-07
DEBUG_STATS_RL:         GsNm1 (THERMODYNAMICS)  max=  5.48593335243055E-07
DEBUG_STATS_RL:         GsNm1 (THERMODYNAMICS) mean= -5.67360283752918E-10
DEBUG_STATS_RL:         GsNm1 (THERMODYNAMICS) S.D.=  2.34290265340814E-08
DEBUG_STATS_RL:                EtaN (DYNAMICS)  min= -2.16226775042485E+00
DEBUG_STATS_RL:                EtaN (DYNAMICS)  max=  1.75029768825802E+00
DEBUG_STATS_RL:                EtaN (DYNAMICS) mean= -1.40646420922901E-01
DEBUG_STATS_RL:                EtaN (DYNAMICS) S.D.=  7.28657586688244E-01
DEBUG_STATS_RL:                Uvel (DYNAMICS)  min= -1.58122388176613E-01
DEBUG_STATS_RL:                Uvel (DYNAMICS)  max=  1.66605987199543E-01
DEBUG_STATS_RL:                Uvel (DYNAMICS) mean= -7.10230181224216E-04
DEBUG_STATS_RL:                Uvel (DYNAMICS) S.D.=  2.51127442483536E-02
DEBUG_STATS_RL:                Vvel (DYNAMICS)  min= -1.40555161046800E-01
DEBUG_STATS_RL:                Vvel (DYNAMICS)  max=  1.40000279834784E-01
DEBUG_STATS_RL:                Vvel (DYNAMICS) mean=  2.46072065709310E-03
DEBUG_STATS_RL:                Vvel (DYNAMICS) S.D.=  1.93323701010786E-02
DEBUG_STATS_RL:                Wvel (DYNAMICS)  min= -1.87134888079908E-04
DEBUG_STATS_RL:                Wvel (DYNAMICS)  max=  1.84025973433256E-04
DEBUG_STATS_RL:                Wvel (DYNAMICS) mean=  3.55702604771685E-07
DEBUG_STATS_RL:                Wvel (DYNAMICS) S.D.=  2.09275333288122E-05
DEBUG_STATS_RL:               Theta (DYNAMICS)  min= -2.00906469265629E+00
DEBUG_STATS_RL:               Theta (DYNAMICS)  max=  2.99016063551458E+01
DEBUG_STATS_RL:               Theta (DYNAMICS) mean=  3.23831051882541E+00
DEBUG_STATS_RL:               Theta (DYNAMICS) S.D.=  5.85725693933861E+00
DEBUG_STATS_RL:                Salt (DYNAMICS)  min=  3.00000000000000E-02
DEBUG_STATS_RL:                Salt (DYNAMICS)  max=  3.74728967224583E+01
DEBUG_STATS_RL:                Salt (DYNAMICS) mean=  1.88750639176345E+01
DEBUG_STATS_RL:                Salt (DYNAMICS) S.D.=  1.73005555683172E+01
DEBUG_STATS_RL:                  Gu (DYNAMICS)  min= -1.66028182350026E-01
DEBUG_STATS_RL:                  Gu (DYNAMICS)  max=  1.69933307654699E-01
DEBUG_STATS_RL:                  Gu (DYNAMICS) mean=  1.01722033822605E-04
DEBUG_STATS_RL:                  Gu (DYNAMICS) S.D.=  2.59070135425005E-02
DEBUG_STATS_RL:                  Gv (DYNAMICS)  min= -1.39463403131254E-01
DEBUG_STATS_RL:                  Gv (DYNAMICS)  max=  1.54968881236152E-01
DEBUG_STATS_RL:                  Gv (DYNAMICS) mean=  4.36907547349958E-03
DEBUG_STATS_RL:                  Gv (DYNAMICS) S.D.=  2.05665304492550E-02
DEBUG_STATS_RL:               GuNm1 (DYNAMICS)  min= -6.98023644330062E-06
DEBUG_STATS_RL:               GuNm1 (DYNAMICS)  max=  8.24179624928725E-06
DEBUG_STATS_RL:               GuNm1 (DYNAMICS) mean= -4.90628850676856E-09
DEBUG_STATS_RL:               GuNm1 (DYNAMICS) S.D.=  1.19374004465791E-06
DEBUG_STATS_RL:               GvNm1 (DYNAMICS)  min= -9.70615332571869E-06
DEBUG_STATS_RL:               GvNm1 (DYNAMICS)  max=  1.70769608949739E-05
DEBUG_STATS_RL:               GvNm1 (DYNAMICS) mean=  7.78349671235399E-07
DEBUG_STATS_RL:               GvNm1 (DYNAMICS) S.D.=  2.63473458819658E-06
DEBUG_STATS_RL:               GtNm1 (DYNAMICS)  min= -3.43954263894299E-06
DEBUG_STATS_RL:               GtNm1 (DYNAMICS)  max=  3.63204372554066E-06
DEBUG_STATS_RL:               GtNm1 (DYNAMICS) mean=  1.62089979482431E-10
DEBUG_STATS_RL:               GtNm1 (DYNAMICS) S.D.=  2.48244763404286E-07
DEBUG_STATS_RL:               GsNm1 (DYNAMICS)  min= -5.54999217486527E-07
DEBUG_STATS_RL:               GsNm1 (DYNAMICS)  max=  5.48593335243055E-07
DEBUG_STATS_RL:               GsNm1 (DYNAMICS) mean= -5.67360283752918E-10
DEBUG_STATS_RL:               GsNm1 (DYNAMICS) S.D.=  2.34290265340814E-08
DEBUG_STATS_RL:    cg2d_b (SOLVE_FOR_PRESSURE)  min= -2.44092498626130E+04
DEBUG_STATS_RL:    cg2d_b (SOLVE_FOR_PRESSURE)  max=  2.22544561247034E+04
DEBUG_STATS_RL:    cg2d_b (SOLVE_FOR_PRESSURE) mean=  1.68037945959931E+00
DEBUG_STATS_RL:    cg2d_b (SOLVE_FOR_PRESSURE) S.D.=  3.98586391919141E+03
 cg2d: Sum(rhs),rhsMax =   1.59369028989674E-01  1.60326488492961E+00
(PID.TID 0000.0001)  cg2d: iter=     1 ; resid.=  4.58934389452951E-01
(PID.TID 0000.0001)  cg2d: iter=     2 ; resid.=  3.89597111357758E-01
(PID.TID 0000.0001)  cg2d: iter=     3 ; resid.=  3.75070820449416E-01
(PID.TID 0000.0001)  cg2d: iter=     4 ; resid.=  3.70787960459989E-01
(PID.TID 0000.0001)  cg2d: iter=     5 ; resid.=  2.87615245885096E-01
(PID.TID 0000.0001)  cg2d: iter=     6 ; resid.=  2.18037378029928E-01
(PID.TID 0000.0001)  cg2d: iter=     7 ; resid.=  1.94681823978425E-01
(PID.TID 0000.0001)  cg2d: iter=     8 ; resid.=  1.72598312721441E-01
(PID.TID 0000.0001)  cg2d: iter=     9 ; resid.=  1.36372868267665E-01
(PID.TID 0000.0001)  cg2d: iter=    10 ; resid.=  1.24030980949328E-01
(PID.TID 0000.0001)  cg2d: iter=    11 ; resid.=  1.10938179678180E-01
(PID.TID 0000.0001)  cg2d: iter=    12 ; resid.=  8.84201325772770E-02
(PID.TID 0000.0001)  cg2d: iter=    13 ; resid.=  6.96897635380930E-02
(PID.TID 0000.0001)  cg2d: iter=    14 ; resid.=  5.80235788878198E-02
(PID.TID 0000.0001)  cg2d: iter=    15 ; resid.=  4.52644061029189E-02
(PID.TID 0000.0001)  cg2d: iter=    16 ; resid.=  4.11258447191231E-02
(PID.TID 0000.0001)  cg2d: iter=    17 ; resid.=  3.85578013930268E-02
(PID.TID 0000.0001)  cg2d: iter=    18 ; resid.=  3.07668315751180E-02
(PID.TID 0000.0001)  cg2d: iter=    19 ; resid.=  2.61625069910045E-02
(PID.TID 0000.0001)  cg2d: iter=    20 ; resid.=  2.21710613116284E-02
(PID.TID 0000.0001)  cg2d: iter=    21 ; resid.=  1.82000909457177E-02
(PID.TID 0000.0001)  cg2d: iter=    22 ; resid.=  1.43680809249255E-02
(PID.TID 0000.0001)  cg2d: iter=    23 ; resid.=  1.22480086317424E-02
(PID.TID 0000.0001)  cg2d: iter=    24 ; resid.=  1.05011017185380E-02
(PID.TID 0000.0001)  cg2d: iter=    25 ; resid.=  8.09221390759124E-03
(PID.TID 0000.0001)  cg2d: iter=    26 ; resid.=  6.96201874763325E-03
(PID.TID 0000.0001)  cg2d: iter=    27 ; resid.=  6.25848920698561E-03
(PID.TID 0000.0001)  cg2d: iter=    28 ; resid.=  5.13573048198929E-03
(PID.TID 0000.0001)  cg2d: iter=    29 ; resid.=  4.11764728866341E-03
(PID.TID 0000.0001)  cg2d: iter=    30 ; resid.=  3.63206864960422E-03
(PID.TID 0000.0001)  cg2d: iter=    31 ; resid.=  2.99090024237769E-03
(PID.TID 0000.0001)  cg2d: iter=    32 ; resid.=  2.34585275397182E-03
(PID.TID 0000.0001)  cg2d: iter=    33 ; resid.=  2.04184951664536E-03
(PID.TID 0000.0001)  cg2d: iter=    34 ; resid.=  1.68272677657805E-03
(PID.TID 0000.0001)  cg2d: iter=    35 ; resid.=  1.36377485901865E-03
(PID.TID 0000.0001)  cg2d: iter=    36 ; resid.=  1.13340467750904E-03
(PID.TID 0000.0001)  cg2d: iter=    37 ; resid.=  1.00904161580070E-03
(PID.TID 0000.0001)  cg2d: iter=    38 ; resid.=  9.11389161951318E-04
(PID.TID 0000.0001)  cg2d: iter=    39 ; resid.=  8.18545072452622E-04
(PID.TID 0000.0001)  cg2d: iter=    40 ; resid.=  6.89723712321498E-04
(PID.TID 0000.0001)  cg2d: iter=    41 ; resid.=  5.49778550373096E-04
(PID.TID 0000.0001)  cg2d: iter=    42 ; resid.=  4.84756596241176E-04
(PID.TID 0000.0001)  cg2d: iter=    43 ; resid.=  4.23446573637664E-04
(PID.TID 0000.0001)  cg2d: iter=    44 ; resid.=  3.40264857499828E-04
(PID.TID 0000.0001)  cg2d: iter=    45 ; resid.=  2.48981237863664E-04
(PID.TID 0000.0001)  cg2d: iter=    46 ; resid.=  1.90800926004312E-04
(PID.TID 0000.0001)  cg2d: iter=    47 ; resid.=  1.58931299802220E-04
(PID.TID 0000.0001)  cg2d: iter=    48 ; resid.=  1.22867077237217E-04
(PID.TID 0000.0001)  cg2d: iter=    49 ; resid.=  9.85221352667841E-05
(PID.TID 0000.0001)  cg2d: iter=    50 ; resid.=  8.18266198541414E-05
(PID.TID 0000.0001)  cg2d: iter=    51 ; resid.=  6.78019399722789E-05
(PID.TID 0000.0001)  cg2d: iter=    52 ; resid.=  5.99541844937564E-05
(PID.TID 0000.0001)  cg2d: iter=    53 ; resid.=  5.39005004901535E-05
(PID.TID 0000.0001)  cg2d: iter=    54 ; resid.=  4.62024036003372E-05
(PID.TID 0000.0001)  cg2d: iter=    55 ; resid.=  3.87439504389557E-05
(PID.TID 0000.0001)  cg2d: iter=    56 ; resid.=  3.36183409160333E-05
(PID.TID 0000.0001)  cg2d: iter=    57 ; resid.=  2.75329840302575E-05
(PID.TID 0000.0001)  cg2d: iter=    58 ; resid.=  2.12631305593812E-05
(PID.TID 0000.0001)  cg2d: iter=    59 ; resid.=  1.69006784149824E-05
(PID.TID 0000.0001)  cg2d: iter=    60 ; resid.=  1.33206610851925E-05
(PID.TID 0000.0001)  cg2d: iter=    61 ; resid.=  1.06784872422576E-05
(PID.TID 0000.0001)  cg2d: iter=    62 ; resid.=  8.99925187601985E-06
(PID.TID 0000.0001)  cg2d: iter=    63 ; resid.=  7.65767087606206E-06
(PID.TID 0000.0001)  cg2d: iter=    64 ; resid.=  6.18101626396387E-06
(PID.TID 0000.0001)  cg2d: iter=    65 ; resid.=  5.07063378046390E-06
(PID.TID 0000.0001)  cg2d: iter=    66 ; resid.=  4.00903427537061E-06
(PID.TID 0000.0001)  cg2d: iter=    67 ; resid.=  3.39393988264288E-06
(PID.TID 0000.0001)  cg2d: iter=    68 ; resid.=  2.64814839942280E-06
(PID.TID 0000.0001)  cg2d: iter=    69 ; resid.=  2.26623162197682E-06
(PID.TID 0000.0001)  cg2d: iter=    70 ; resid.=  1.90553665165747E-06
(PID.TID 0000.0001)  cg2d: iter=    71 ; resid.=  1.56780276907931E-06
(PID.TID 0000.0001)  cg2d: iter=    72 ; resid.=  1.36787486710672E-06
(PID.TID 0000.0001)  cg2d: iter=    73 ; resid.=  1.23640107539557E-06
(PID.TID 0000.0001)  cg2d: iter=    74 ; resid.=  1.01093418599491E-06
(PID.TID 0000.0001)  cg2d: iter=    75 ; resid.=  7.84577305426444E-07
(PID.TID 0000.0001)  cg2d: iter=    76 ; resid.=  6.65995178529799E-07
(PID.TID 0000.0001)  cg2d: iter=    77 ; resid.=  5.52931856024466E-07
(PID.TID 0000.0001)  cg2d: iter=    78 ; resid.=  4.73340470974592E-07
(PID.TID 0000.0001)  cg2d: iter=    79 ; resid.=  4.09799054167571E-07
(PID.TID 0000.0001)  cg2d: iter=    80 ; resid.=  3.01381241986698E-07
(PID.TID 0000.0001)  cg2d: iter=    81 ; resid.=  2.38008686322555E-07
(PID.TID 0000.0001)  cg2d: iter=    82 ; resid.=  1.77719352276474E-07
(PID.TID 0000.0001)  cg2d: iter=    83 ; resid.=  1.31713679579780E-07
(PID.TID 0000.0001)  cg2d: iter=    84 ; resid.=  1.00710102555435E-07
(PID.TID 0000.0001)  cg2d: iter=    85 ; resid.=  7.47676953749501E-08
(PID.TID 0000.0001)  cg2d: iter=    86 ; resid.=  5.96353884407123E-08
(PID.TID 0000.0001)  cg2d: iter=    87 ; resid.=  4.97389599707315E-08
(PID.TID 0000.0001)  cg2d: iter=    88 ; resid.=  4.28563533279003E-08
(PID.TID 0000.0001)  cg2d: iter=    89 ; resid.=  3.58964415855676E-08
(PID.TID 0000.0001)  cg2d: iter=    90 ; resid.=  2.73915382755555E-08
(PID.TID 0000.0001)  cg2d: iter=    91 ; resid.=  2.01845410155781E-08
(PID.TID 0000.0001)  cg2d: iter=    92 ; resid.=  1.38181608618617E-08
(PID.TID 0000.0001)  cg2d: iter=    93 ; resid.=  8.88531195127569E-09
(PID.TID 0000.0001)  cg2d: iter=    94 ; resid.=  6.27674721963337E-09
(PID.TID 0000.0001)  cg2d: iter=    95 ; resid.=  4.96737110991478E-09
(PID.TID 0000.0001)  cg2d: iter=    96 ; resid.=  3.80008560264062E-09
(PID.TID 0000.0001)  cg2d: iter=    97 ; resid.=  2.88277883465972E-09
(PID.TID 0000.0001)  cg2d: iter=    98 ; resid.=  2.18858243652222E-09
(PID.TID 0000.0001)  cg2d: iter=    99 ; resid.=  1.81093416455520E-09
(PID.TID 0000.0001)  cg2d: iter=   100 ; resid.=  1.58545867201779E-09
(PID.TID 0000.0001)  cg2d: iter=   101 ; resid.=  1.35599236623630E-09
(PID.TID 0000.0001)  cg2d: iter=   102 ; resid.=  1.13553934276356E-09
(PID.TID 0000.0001)  cg2d: iter=   103 ; resid.=  9.71064913358525E-10
(PID.TID 0000.0001)  cg2d: iter=   104 ; resid.=  7.93784916270158E-10
(PID.TID 0000.0001)  cg2d: iter=   105 ; resid.=  6.29368034540309E-10
(PID.TID 0000.0001)  cg2d: iter=   106 ; resid.=  5.33167780471824E-10
(PID.TID 0000.0001)  cg2d: iter=   107 ; resid.=  4.22130480594688E-10
(PID.TID 0000.0001)  cg2d: iter=   108 ; resid.=  3.33305874604317E-10
(PID.TID 0000.0001)  cg2d: iter=   109 ; resid.=  2.73439575876781E-10
(PID.TID 0000.0001)  cg2d: iter=   110 ; resid.=  2.12577184431390E-10
(PID.TID 0000.0001)  cg2d: iter=   111 ; resid.=  1.68430491688669E-10
(PID.TID 0000.0001)  cg2d: iter=   112 ; resid.=  1.24920319583579E-10
(PID.TID 0000.0001)  cg2d: iter=   113 ; resid.=  9.36128478782335E-11
(PID.TID 0000.0001)  cg2d: iter=   114 ; resid.=  7.32798354132849E-11
(PID.TID 0000.0001)  cg2d: iter=   115 ; resid.=  5.23124832885553E-11
(PID.TID 0000.0001)  cg2d: iter=   116 ; resid.=  3.98248986155431E-11
(PID.TID 0000.0001)  cg2d: iter=   117 ; resid.=  3.31364081168533E-11
(PID.TID 0000.0001)  cg2d: iter=   118 ; resid.=  2.53694693681128E-11
(PID.TID 0000.0001)  cg2d: iter=   119 ; resid.=  2.12214789198040E-11
(PID.TID 0000.0001)  cg2d: iter=   120 ; resid.=  1.58392143670089E-11
(PID.TID 0000.0001)  cg2d: iter=   121 ; resid.=  1.22912732829770E-11
(PID.TID 0000.0001)  cg2d: iter=   122 ; resid.=  9.55655313611489E-12
(PID.TID 0000.0001)  cg2d: iter=   123 ; resid.=  6.68701902086394E-12
(PID.TID 0000.0001)  cg2d: iter=   124 ; resid.=  4.59942268406388E-12
(PID.TID 0000.0001)  cg2d: iter=   125 ; resid.=  3.40099291962371E-12
(PID.TID 0000.0001)  cg2d: iter=   126 ; resid.=  2.52528007938602E-12
(PID.TID 0000.0001)  cg2d: iter=   127 ; resid.=  1.79922359392223E-12
(PID.TID 0000.0001)  cg2d: iter=   128 ; resid.=  1.30818974764417E-12
(PID.TID 0000.0001)  cg2d: iter=   129 ; resid.=  1.00929622546658E-12
(PID.TID 0000.0001)  cg2d: iter=   130 ; resid.=  7.43600033679575E-13
(PID.TID 0000.0001)  cg2d: iter=   131 ; resid.=  5.64085876533820E-13
(PID.TID 0000.0001)  cg2d: iter=   132 ; resid.=  3.97322757551371E-13
(PID.TID 0000.0001)  cg2d: iter=   133 ; resid.=  3.16399445181415E-13
(PID.TID 0000.0001)  cg2d: iter=   134 ; resid.=  2.27616855318719E-13
(PID.TID 0000.0001)  cg2d: iter=   135 ; resid.=  1.67944645448699E-13
(PID.TID 0000.0001)  cg2d: iter=   136 ; resid.=  1.17735565484470E-13
(PID.TID 0000.0001)  cg2d: iter=   137 ; resid.=  9.04549795625097E-14
DEBUG_STATS_RL:    cg2d_x (SOLVE_FOR_PRESSURE)  min= -2.19709262230090E+01
DEBUG_STATS_RL:    cg2d_x (SOLVE_FOR_PRESSURE)  max=  1.43317795160643E+01
DEBUG_STATS_RL:    cg2d_x (SOLVE_FOR_PRESSURE) mean= -1.36183988898536E+00
DEBUG_STATS_RL:    cg2d_x (SOLVE_FOR_PRESSURE) S.D.=  7.22818236727688E+00
(PID.TID 0000.0001)      cg2d_init_res =   5.91141954590560E-01
(PID.TID 0000.0001)      cg2d_iters(min,last) =      -1     137
(PID.TID 0000.0001)      cg2d_last_res =   9.04549795625097E-14
(PID.TID 0000.0001) // =======================================================
(PID.TID 0000.0001) // Begin MONITOR dynamic field statistics
(PID.TID 0000.0001) // =======================================================
(PID.TID 0000.0001) %MON time_tsnumber                =                    24
(PID.TID 0000.0001) %MON time_secondsf                =   2.0736000000000E+06
(PID.TID 0000.0001) %MON dynstat_eta_max              =   1.4609357304857E+00
(PID.TID 0000.0001) %MON dynstat_eta_min              =  -2.2396458942924E+00
(PID.TID 0000.0001) %MON dynstat_eta_mean             =  -1.7532676059178E-03
(PID.TID 0000.0001) %MON dynstat_eta_sd               =   6.3136064473624E-01
(PID.TID 0000.0001) %MON dynstat_eta_del2             =   2.0840272346330E-03
(PID.TID 0000.0001) %MON dynstat_uvel_max             =   1.6669297618715E-01
(PID.TID 0000.0001) %MON dynstat_uvel_min             =  -1.6411153215011E-01
(PID.TID 0000.0001) %MON dynstat_uvel_mean            =  -2.0742774862095E-03
(PID.TID 0000.0001) %MON dynstat_uvel_sd              =   2.1266554244574E-02
(PID.TID 0000.0001) %MON dynstat_uvel_del2            =   1.0897226662599E-04
(PID.TID 0000.0001) %MON dynstat_vvel_max             =   1.3636304394244E-01
(PID.TID 0000.0001) %MON dynstat_vvel_min             =  -1.4560841271676E-01
(PID.TID 0000.0001) %MON dynstat_vvel_mean            =   6.9605421260968E-04
(PID.TID 0000.0001) %MON dynstat_vvel_sd              =   1.3242671404429E-02
(PID.TID 0000.0001) %MON dynstat_vvel_del2            =   1.0430975885644E-04
(PID.TID 0000.0001) %MON dynstat_wvel_max             =   1.6641646240149E-04
(PID.TID 0000.0001) %MON dynstat_wvel_min             =  -1.9010307596629E-04
(PID.TID 0000.0001) %MON dynstat_wvel_mean            =   1.6592570013761E-22
(PID.TID 0000.0001) %MON dynstat_wvel_sd              =   2.2400122268256E-05
(PID.TID 0000.0001) %MON dynstat_wvel_del2            =   2.3767741434115E-07
(PID.TID 0000.0001) %MON dynstat_theta_max            =   2.9901606355146E+01
(PID.TID 0000.0001) %MON dynstat_theta_min            =  -2.0090646926563E+00
(PID.TID 0000.0001) %MON dynstat_theta_mean           =   3.6504210793168E+00
(PID.TID 0000.0001) %MON dynstat_theta_sd             =   4.4164316067293E+00
(PID.TID 0000.0001) %MON dynstat_theta_del2           =   4.8902315214600E-03
(PID.TID 0000.0001) %MON dynstat_salt_max             =   3.7472896722458E+01
(PID.TID 0000.0001) %MON dynstat_salt_min             =   2.9832685155160E+01
(PID.TID 0000.0001) %MON dynstat_salt_mean            =   3.4747919360379E+01
(PID.TID 0000.0001) %MON dynstat_salt_sd              =   2.9614621881121E-01
(PID.TID 0000.0001) %MON dynstat_salt_del2            =   1.0075487238696E-03
(PID.TID 0000.0001) %MON dynstat_sst_max              =   2.9901606355146E+01
(PID.TID 0000.0001) %MON dynstat_sst_min              =  -2.0090646926563E+00
(PID.TID 0000.0001) %MON dynstat_sst_mean             =   1.8729929690268E+01
(PID.TID 0000.0001) %MON dynstat_sst_sd               =   9.0594091511508E+00
(PID.TID 0000.0001) %MON dynstat_sst_del2             =   2.6399607260673E-02
(PID.TID 0000.0001) %MON dynstat_sss_max              =   3.7459384127454E+01
(PID.TID 0000.0001) %MON dynstat_sss_min              =   2.9832685155160E+01
(PID.TID 0000.0001) %MON dynstat_sss_mean             =   3.4880373928838E+01
(PID.TID 0000.0001) %MON dynstat_sss_sd               =   9.7355562180752E-01
(PID.TID 0000.0001) %MON dynstat_sss_del2             =   7.9378411505728E-03
(PID.TID 0000.0001) %MON forcing_qnet_max             =   4.1506092325846E+02
(PID.TID 0000.0001) %MON forcing_qnet_min             =  -1.7810339253743E+02
(PID.TID 0000.0001) %MON forcing_qnet_mean            =  -1.5833252661817E+01
(PID.TID 0000.0001) %MON forcing_qnet_sd              =   1.0134792828630E+02
(PID.TID 0000.0001) %MON forcing_qnet_del2            =   9.9398501080315E-01
(PID.TID 0000.0001) %MON forcing_qsw_max              =   0.0000000000000E+00
(PID.TID 0000.0001) %MON forcing_qsw_min              =   0.0000000000000E+00
(PID.TID 0000.0001) %MON forcing_qsw_mean             =   0.0000000000000E+00
(PID.TID 0000.0001) %MON forcing_qsw_sd               =   0.0000000000000E+00
(PID.TID 0000.0001) %MON forcing_qsw_del2             =   0.0000000000000E+00
(PID.TID 0000.0001) %MON forcing_empmr_max            =   7.9661521112939E-05
(PID.TID 0000.0001) %MON forcing_empmr_min            =  -7.6793110300362E-05
(PID.TID 0000.0001) %MON forcing_empmr_mean           =   9.2839624019029E-07
(PID.TID 0000.0001) %MON forcing_empmr_sd             =   2.8422949327368E-05
(PID.TID 0000.0001) %MON forcing_empmr_del2           =   3.5924996282303E-07
(PID.TID 0000.0001) %MON forcing_fu_max               =   2.7721027731895E-01
(PID.TID 0000.0001) %MON forcing_fu_min               =  -1.7921402752399E-01
(PID.TID 0000.0001) %MON forcing_fu_mean              =   1.6436136876318E-02
(PID.TID 0000.0001) %MON forcing_fu_sd                =   9.0054319436731E-02
(PID.TID 0000.0001) %MON forcing_fu_del2              =   6.7829591148946E-04
(PID.TID 0000.0001) %MON forcing_fv_max               =   2.0745374461015E-01
(PID.TID 0000.0001) %MON forcing_fv_min               =  -1.7020650207996E-01
(PID.TID 0000.0001) %MON forcing_fv_mean              =  -5.7809849932265E-03
(PID.TID 0000.0001) %MON forcing_fv_sd                =   4.6066374404308E-02
(PID.TID 0000.0001) %MON forcing_fv_del2              =   4.6763919861826E-04
(PID.TID 0000.0001) %MON trAdv_CFL_u_max              =   4.5224325500590E-02
(PID.TID 0000.0001) %MON trAdv_CFL_v_max              =   2.9522608249865E-02
(PID.TID 0000.0001) %MON trAdv_CFL_w_max              =   6.6709101285598E-02
(PID.TID 0000.0001) %MON advcfl_uvel_max              =   4.3579354560448E-02
(PID.TID 0000.0001) %MON advcfl_vvel_max              =   2.8289379312688E-02
(PID.TID 0000.0001) %MON advcfl_wvel_max              =   7.7042872974343E-02
(PID.TID 0000.0001) %MON advcfl_W_hf_max              =   9.0800528862619E-02
(PID.TID 0000.0001) %MON pe_b_mean                    =   5.1008148926474E-04
(PID.TID 0000.0001) %MON ke_max                       =   1.5976860177009E-02
(PID.TID 0000.0001) %MON ke_mean                      =   2.8637423385316E-04
(PID.TID 0000.0001) %MON ke_vol                       =   1.3226782436723E+18
(PID.TID 0000.0001) %MON vort_r_min                   =  -5.2713996308151E-07
(PID.TID 0000.0001) %MON vort_r_max                   =   5.8251173306437E-07
(PID.TID 0000.0001) %MON vort_a_mean                  =  -2.5274806290067E-05
(PID.TID 0000.0001) %MON vort_a_sd                    =   7.3603950287205E-05
(PID.TID 0000.0001) %MON vort_p_mean                  =  -3.1845654404194E-05
(PID.TID 0000.0001) %MON vort_p_sd                    =   1.3162648121730E-04
(PID.TID 0000.0001) %MON surfExpan_theta_mean         =  -6.1509163768065E-07
(PID.TID 0000.0001) %MON surfExpan_salt_mean          =   1.2815254734212E-07
(PID.TID 0000.0001) // =======================================================
(PID.TID 0000.0001) // End MONITOR dynamic field statistics
(PID.TID 0000.0001) // =======================================================
 EXTERNAL_FIELDS_LOAD,        24 : iP,iLd,i0,i1=    1    2    1    2 ; Wght=  0.7000000000  0.3000000000
 EXTERNAL_FIELDS_LOAD: (fu0,1),fu,fv= -3.5633E-02 -1.4435E-02 -2.9273E-02 -4.5370E-02
 EXTERNAL_FIELDS_LOAD: SST,SSS,Q,E-P=  5.1134E-01  3.4627E+01  2.5818E+02  1.0659E-05
DEBUG_STATS_RL:          Uvel (THERMODYNAMICS)  min= -1.64111532150110E-01
DEBUG_STATS_RL:          Uvel (THERMODYNAMICS)  max=  1.66692976187151E-01
DEBUG_STATS_RL:          Uvel (THERMODYNAMICS) mean=  1.74883781373767E-04
DEBUG_STATS_RL:          Uvel (THERMODYNAMICS) S.D.=  2.52105909737284E-02
DEBUG_STATS_RL:          Vvel (THERMODYNAMICS)  min= -1.45608412716763E-01
DEBUG_STATS_RL:          Vvel (THERMODYNAMICS)  max=  1.36363043942445E-01
DEBUG_STATS_RL:          Vvel (THERMODYNAMICS) mean=  2.16799928532078E-03
DEBUG_STATS_RL:          Vvel (THERMODYNAMICS) S.D.=  1.90979091052778E-02
DEBUG_STATS_RL:          Wvel (THERMODYNAMICS)  min= -1.90103075966286E-04
DEBUG_STATS_RL:          Wvel (THERMODYNAMICS)  max=  1.66416462401486E-04
DEBUG_STATS_RL:          Wvel (THERMODYNAMICS) mean=  3.23422456984154E-07
DEBUG_STATS_RL:          Wvel (THERMODYNAMICS) S.D.=  2.00392252604860E-05
DEBUG_STATS_RL:         Theta (THERMODYNAMICS)  min= -2.00887721654444E+00
DEBUG_STATS_RL:         Theta (THERMODYNAMICS)  max=  2.99157997499133E+01
DEBUG_STATS_RL:         Theta (THERMODYNAMICS) mean=  3.23830406879998E+00
DEBUG_STATS_RL:         Theta (THERMODYNAMICS) S.D.=  5.85744541503928E+00
DEBUG_STATS_RL:          Salt (THERMODYNAMICS)  min=  3.00000000000000E-02
DEBUG_STATS_RL:          Salt (THERMODYNAMICS)  max=  3.74737144674467E+01
DEBUG_STATS_RL:          Salt (THERMODYNAMICS) mean=  1.88750390179121E+01
DEBUG_STATS_RL:          Salt (THERMODYNAMICS) S.D.=  1.73005324739786E+01
DEBUG_STATS_RL:         GtNm1 (THERMODYNAMICS)  min= -3.35762401137189E-06
DEBUG_STATS_RL:         GtNm1 (THERMODYNAMICS)  max=  3.33950201318776E-06
DEBUG_STATS_RL:         GtNm1 (THERMODYNAMICS) mean=  9.36304550734503E-11
DEBUG_STATS_RL:         GtNm1 (THERMODYNAMICS) S.D.=  2.45830592221630E-07
DEBUG_STATS_RL:         GsNm1 (THERMODYNAMICS)  min= -5.75756393059721E-07
DEBUG_STATS_RL:         GsNm1 (THERMODYNAMICS)  max=  5.41758976714552E-07
DEBUG_STATS_RL:         GsNm1 (THERMODYNAMICS) mean= -6.09834877335806E-10
DEBUG_STATS_RL:         GsNm1 (THERMODYNAMICS) S.D.=  2.33728540120721E-08
DEBUG_STATS_RL:                EtaN (DYNAMICS)  min= -2.23964589429242E+00
DEBUG_STATS_RL:                EtaN (DYNAMICS)  max=  1.46093573048567E+00
DEBUG_STATS_RL:                EtaN (DYNAMICS) mean= -1.38821599284949E-01
DEBUG_STATS_RL:                EtaN (DYNAMICS) S.D.=  7.36817774442089E-01
DEBUG_STATS_RL:                Uvel (DYNAMICS)  min= -1.64111532150110E-01
DEBUG_STATS_RL:                Uvel (DYNAMICS)  max=  1.66692976187151E-01
DEBUG_STATS_RL:                Uvel (DYNAMICS) mean=  1.74883781373767E-04
DEBUG_STATS_RL:                Uvel (DYNAMICS) S.D.=  2.52105909737284E-02
DEBUG_STATS_RL:                Vvel (DYNAMICS)  min= -1.45608412716763E-01
DEBUG_STATS_RL:                Vvel (DYNAMICS)  max=  1.36363043942445E-01
DEBUG_STATS_RL:                Vvel (DYNAMICS) mean=  2.16799928532078E-03
DEBUG_STATS_RL:                Vvel (DYNAMICS) S.D.=  1.90979091052778E-02
DEBUG_STATS_RL:                Wvel (DYNAMICS)  min= -1.90103075966286E-04
DEBUG_STATS_RL:                Wvel (DYNAMICS)  max=  1.66416462401486E-04
DEBUG_STATS_RL:                Wvel (DYNAMICS) mean=  3.23422456984154E-07
DEBUG_STATS_RL:                Wvel (DYNAMICS) S.D.=  2.00392252604860E-05
DEBUG_STATS_RL:               Theta (DYNAMICS)  min= -2.00887721654444E+00
DEBUG_STATS_RL:               Theta (DYNAMICS)  max=  2.99157997499133E+01
DEBUG_STATS_RL:               Theta (DYNAMICS) mean=  3.23830406879998E+00
DEBUG_STATS_RL:               Theta (DYNAMICS) S.D.=  5.85744541503928E+00
DEBUG_STATS_RL:                Salt (DYNAMICS)  min=  3.00000000000000E-02
DEBUG_STATS_RL:                Salt (DYNAMICS)  max=  3.74737144674467E+01
DEBUG_STATS_RL:                Salt (DYNAMICS) mean=  1.88750390179121E+01
DEBUG_STATS_RL:                Salt (DYNAMICS) S.D.=  1.73005324739786E+01
DEBUG_STATS_RL:                  Gu (DYNAMICS)  min= -1.71376356011961E-01
DEBUG_STATS_RL:                  Gu (DYNAMICS)  max=  1.70651829370179E-01
DEBUG_STATS_RL:                  Gu (DYNAMICS) mean=  1.12568828323060E-03
DEBUG_STATS_RL:                  Gu (DYNAMICS) S.D.=  2.62516435944176E-02
DEBUG_STATS_RL:                  Gv (DYNAMICS)  min= -1.40439466358717E-01
DEBUG_STATS_RL:                  Gv (DYNAMICS)  max=  1.48782703029547E-01
DEBUG_STATS_RL:                  Gv (DYNAMICS) mean=  4.17592125185574E-03
DEBUG_STATS_RL:                  Gv (DYNAMICS) S.D.=  2.01515973832323E-02
DEBUG_STATS_RL:               GuNm1 (DYNAMICS)  min= -7.30742423012456E-06
DEBUG_STATS_RL:               GuNm1 (DYNAMICS)  max=  8.21059307186525E-06
DEBUG_STATS_RL:               GuNm1 (DYNAMICS) mean= -5.37317917054145E-09
DEBUG_STATS_RL:               GuNm1 (DYNAMICS) S.D.=  1.20227470583083E-06
DEBUG_STATS_RL:               GvNm1 (DYNAMICS)  min= -9.96562037221937E-06
DEBUG_STATS_RL:               GvNm1 (DYNAMICS)  max=  1.70440817294614E-05
DEBUG_STATS_RL:               GvNm1 (DYNAMICS) mean=  7.78406010437812E-07
DEBUG_STATS_RL:               GvNm1 (DYNAMICS) S.D.=  2.64478831996930E-06
DEBUG_STATS_RL:               GtNm1 (DYNAMICS)  min= -3.35762401137189E-06
DEBUG_STATS_RL:               GtNm1 (DYNAMICS)  max=  3.33950201318776E-06
DEBUG_STATS_RL:               GtNm1 (DYNAMICS) mean=  9.36304550734503E-11
DEBUG_STATS_RL:               GtNm1 (DYNAMICS) S.D.=  2.45830592221630E-07
DEBUG_STATS_RL:               GsNm1 (DYNAMICS)  min= -5.75756393059721E-07
DEBUG_STATS_RL:               GsNm1 (DYNAMICS)  max=  5.41758976714552E-07
DEBUG_STATS_RL:               GsNm1 (DYNAMICS) mean= -6.09834877335806E-10
DEBUG_STATS_RL:               GsNm1 (DYNAMICS) S.D.=  2.33728540120721E-08
DEBUG_STATS_RL:    cg2d_b (SOLVE_FOR_PRESSURE)  min= -2.44398153553379E+04
DEBUG_STATS_RL:    cg2d_b (SOLVE_FOR_PRESSURE)  max=  2.27498102068804E+04
DEBUG_STATS_RL:    cg2d_b (SOLVE_FOR_PRESSURE) mean=  1.75471303499423E+00
DEBUG_STATS_RL:    cg2d_b (SOLVE_FOR_PRESSURE) S.D.=  4.02828434282641E+03
 cg2d: Sum(rhs),rhsMax =   1.66210776020602E-01  1.60527250832861E+00
(PID.TID 0000.0001)  cg2d: iter=     1 ; resid.=  4.31281466715728E-01
(PID.TID 0000.0001)  cg2d: iter=     2 ; resid.=  3.63695069254077E-01
(PID.TID 0000.0001)  cg2d: iter=     3 ; resid.=  3.41954277246143E-01
(PID.TID 0000.0001)  cg2d: iter=     4 ; resid.=  3.17787127124248E-01
(PID.TID 0000.0001)  cg2d: iter=     5 ; resid.=  2.41269935760176E-01
(PID.TID 0000.0001)  cg2d: iter=     6 ; resid.=  1.82427848813321E-01
(PID.TID 0000.0001)  cg2d: iter=     7 ; resid.=  1.61339819122881E-01
(PID.TID 0000.0001)  cg2d: iter=     8 ; resid.=  1.49315727909010E-01
(PID.TID 0000.0001)  cg2d: iter=     9 ; resid.=  1.20805364754937E-01
(PID.TID 0000.0001)  cg2d: iter=    10 ; resid.=  1.10832053509901E-01
(PID.TID 0000.0001)  cg2d: iter=    11 ; resid.=  9.86858360774650E-02
(PID.TID 0000.0001)  cg2d: iter=    12 ; resid.=  7.88592169023746E-02
(PID.TID 0000.0001)  cg2d: iter=    13 ; resid.=  6.29713522468057E-02
(PID.TID 0000.0001)  cg2d: iter=    14 ; resid.=  5.23616144665210E-02
(PID.TID 0000.0001)  cg2d: iter=    15 ; resid.=  4.12669413661244E-02
(PID.TID 0000.0001)  cg2d: iter=    16 ; resid.=  3.68849992860605E-02
(PID.TID 0000.0001)  cg2d: iter=    17 ; resid.=  3.37631054682622E-02
(PID.TID 0000.0001)  cg2d: iter=    18 ; resid.=  2.68538766821015E-02
(PID.TID 0000.0001)  cg2d: iter=    19 ; resid.=  2.24490392979321E-02
(PID.TID 0000.0001)  cg2d: iter=    20 ; resid.=  1.86973161949824E-02
(PID.TID 0000.0001)  cg2d: iter=    21 ; resid.=  1.53989242269767E-02
(PID.TID 0000.0001)  cg2d: iter=    22 ; resid.=  1.22304342131719E-02
(PID.TID 0000.0001)  cg2d: iter=    23 ; resid.=  1.02626534293150E-02
(PID.TID 0000.0001)  cg2d: iter=    24 ; resid.=  8.66434201781984E-03
(PID.TID 0000.0001)  cg2d: iter=    25 ; resid.=  6.54127207419384E-03
(PID.TID 0000.0001)  cg2d: iter=    26 ; resid.=  5.51983929541065E-03
(PID.TID 0000.0001)  cg2d: iter=    27 ; resid.=  4.94131062186787E-03
(PID.TID 0000.0001)  cg2d: iter=    28 ; resid.=  4.03769869041674E-03
(PID.TID 0000.0001)  cg2d: iter=    29 ; resid.=  3.23835532346872E-03
(PID.TID 0000.0001)  cg2d: iter=    30 ; resid.=  2.87694512848925E-03
(PID.TID 0000.0001)  cg2d: iter=    31 ; resid.=  2.43272335300082E-03
(PID.TID 0000.0001)  cg2d: iter=    32 ; resid.=  1.93553040059646E-03
(PID.TID 0000.0001)  cg2d: iter=    33 ; resid.=  1.65324168033972E-03
(PID.TID 0000.0001)  cg2d: iter=    34 ; resid.=  1.35741977437783E-03
(PID.TID 0000.0001)  cg2d: iter=    35 ; resid.=  1.08009744747957E-03
(PID.TID 0000.0001)  cg2d: iter=    36 ; resid.=  8.78701812215515E-04
(PID.TID 0000.0001)  cg2d: iter=    37 ; resid.=  7.76251730396135E-04
(PID.TID 0000.0001)  cg2d: iter=    38 ; resid.=  6.87061633814028E-04
(PID.TID 0000.0001)  cg2d: iter=    39 ; resid.=  6.03151600112386E-04
(PID.TID 0000.0001)  cg2d: iter=    40 ; resid.=  5.21594504454546E-04
(PID.TID 0000.0001)  cg2d: iter=    41 ; resid.=  4.32657175834835E-04
(PID.TID 0000.0001)  cg2d: iter=    42 ; resid.=  3.86786008827884E-04
(PID.TID 0000.0001)  cg2d: iter=    43 ; resid.=  3.49185175732888E-04
(PID.TID 0000.0001)  cg2d: iter=    44 ; resid.=  2.95068322244525E-04
(PID.TID 0000.0001)  cg2d: iter=    45 ; resid.=  2.26435172942042E-04
(PID.TID 0000.0001)  cg2d: iter=    46 ; resid.=  1.73813077902467E-04
(PID.TID 0000.0001)  cg2d: iter=    47 ; resid.=  1.47539368052414E-04
(PID.TID 0000.0001)  cg2d: iter=    48 ; resid.=  1.14019585407334E-04
(PID.TID 0000.0001)  cg2d: iter=    49 ; resid.=  8.84811789329065E-05
(PID.TID 0000.0001)  cg2d: iter=    50 ; resid.=  6.98713443464200E-05
(PID.TID 0000.0001)  cg2d: iter=    51 ; resid.=  5.66669892379459E-05
(PID.TID 0000.0001)  cg2d: iter=    52 ; resid.=  4.94277097271685E-05
(PID.TID 0000.0001)  cg2d: iter=    53 ; resid.=  4.47363514613671E-05
(PID.TID 0000.0001)  cg2d: iter=    54 ; resid.=  3.81630934067315E-05
(PID.TID 0000.0001)  cg2d: iter=    55 ; resid.=  3.27872359389086E-05
(PID.TID 0000.0001)  cg2d: iter=    56 ; resid.=  2.89031960676484E-05
(PID.TID 0000.0001)  cg2d: iter=    57 ; resid.=  2.39463487003880E-05
(PID.TID 0000.0001)  cg2d: iter=    58 ; resid.=  1.88309343333399E-05
(PID.TID 0000.0001)  cg2d: iter=    59 ; resid.=  1.48715279414800E-05
(PID.TID 0000.0001)  cg2d: iter=    60 ; resid.=  1.17561258696648E-05
(PID.TID 0000.0001)  cg2d: iter=    61 ; resid.=  9.50375672398268E-06
(PID.TID 0000.0001)  cg2d: iter=    62 ; resid.=  8.08312929853670E-06
(PID.TID 0000.0001)  cg2d: iter=    63 ; resid.=  6.84397444419735E-06
(PID.TID 0000.0001)  cg2d: iter=    64 ; resid.=  5.53341757635238E-06
(PID.TID 0000.0001)  cg2d: iter=    65 ; resid.=  4.41176456885688E-06
(PID.TID 0000.0001)  cg2d: iter=    66 ; resid.=  3.45189497660633E-06
(PID.TID 0000.0001)  cg2d: iter=    67 ; resid.=  2.94286321212775E-06
(PID.TID 0000.0001)  cg2d: iter=    68 ; resid.=  2.35958913759777E-06
(PID.TID 0000.0001)  cg2d: iter=    69 ; resid.=  2.00260904644330E-06
(PID.TID 0000.0001)  cg2d: iter=    70 ; resid.=  1.68240754690670E-06
(PID.TID 0000.0001)  cg2d: iter=    71 ; resid.=  1.33805133404135E-06
(PID.TID 0000.0001)  cg2d: iter=    72 ; resid.=  1.13694458736012E-06
(PID.TID 0000.0001)  cg2d: iter=    73 ; resid.=  1.01706697884221E-06
(PID.TID 0000.0001)  cg2d: iter=    74 ; resid.=  8.20483873636439E-07
(PID.TID 0000.0001)  cg2d: iter=    75 ; resid.=  6.20316332952540E-07
(PID.TID 0000.0001)  cg2d: iter=    76 ; resid.=  5.33831428696068E-07
(PID.TID 0000.0001)  cg2d: iter=    77 ; resid.=  4.55673137563483E-07
(PID.TID 0000.0001)  cg2d: iter=    78 ; resid.=  3.96806454187082E-07
(PID.TID 0000.0001)  cg2d: iter=    79 ; resid.=  3.53321036010836E-07
(PID.TID 0000.0001)  cg2d: iter=    80 ; resid.=  2.67212427767322E-07
(PID.TID 0000.0001)  cg2d: iter=    81 ; resid.=  2.20732111322340E-07
(PID.TID 0000.0001)  cg2d: iter=    82 ; resid.=  1.66269011620974E-07
(PID.TID 0000.0001)  cg2d: iter=    83 ; resid.=  1.22662408046998E-07
(PID.TID 0000.0001)  cg2d: iter=    84 ; resid.=  9.24240320994014E-08
(PID.TID 0000.0001)  cg2d: iter=    85 ; resid.=  6.82839058177141E-08
(PID.TID 0000.0001)  cg2d: iter=    86 ; resid.=  5.41290775041469E-08
(PID.TID 0000.0001)  cg2d: iter=    87 ; resid.=  4.55419958219619E-08
(PID.TID 0000.0001)  cg2d: iter=    88 ; resid.=  3.91378552217012E-08
(PID.TID 0000.0001)  cg2d: iter=    89 ; resid.=  3.25530882045646E-08
(PID.TID 0000.0001)  cg2d: iter=    90 ; resid.=  2.47224570415470E-08
(PID.TID 0000.0001)  cg2d: iter=    91 ; resid.=  1.83551971386588E-08
(PID.TID 0000.0001)  cg2d: iter=    92 ; resid.=  1.26526007256987E-08
(PID.TID 0000.0001)  cg2d: iter=    93 ; resid.=  8.45479835188946E-09
(PID.TID 0000.0001)  cg2d: iter=    94 ; resid.=  6.15723982494192E-09
(PID.TID 0000.0001)  cg2d: iter=    95 ; resid.=  5.05552198099058E-09
(PID.TID 0000.0001)  cg2d: iter=    96 ; resid.=  3.78480574137017E-09
(PID.TID 0000.0001)  cg2d: iter=    97 ; resid.=  2.79946343453288E-09
(PID.TID 0000.0001)  cg2d: iter=    98 ; resid.=  2.05248451092503E-09
(PID.TID 0000.0001)  cg2d: iter=    99 ; resid.=  1.66257611193763E-09
(PID.TID 0000.0001)  cg2d: iter=   100 ; resid.=  1.38612936554692E-09
(PID.TID 0000.0001)  cg2d: iter=   101 ; resid.=  1.13927766844275E-09
(PID.TID 0000.0001)  cg2d: iter=   102 ; resid.=  9.19925966673996E-10
(PID.TID 0000.0001)  cg2d: iter=   103 ; resid.=  7.56679180009086E-10
(PID.TID 0000.0001)  cg2d: iter=   104 ; resid.=  6.19471979480765E-10
(PID.TID 0000.0001)  cg2d: iter=   105 ; resid.=  5.02699521839900E-10
(PID.TID 0000.0001)  cg2d: iter=   106 ; resid.=  4.39020896735925E-10
(PID.TID 0000.0001)  cg2d: iter=   107 ; resid.=  3.68508485347385E-10
(PID.TID 0000.0001)  cg2d: iter=   108 ; resid.=  3.07969080520232E-10
(PID.TID 0000.0001)  cg2d: iter=   109 ; resid.=  2.61435584911397E-10
(PID.TID 0000.0001)  cg2d: iter=   110 ; resid.=  2.04971331049394E-10
(PID.TID 0000.0001)  cg2d: iter=   111 ; resid.=  1.59527675565837E-10
(PID.TID 0000.0001)  cg2d: iter=   112 ; resid.=  1.19667456186832E-10
(PID.TID 0000.0001)  cg2d: iter=   113 ; resid.=  8.82088971348795E-11
(PID.TID 0000.0001)  cg2d: iter=   114 ; resid.=  6.77289615587569E-11
(PID.TID 0000.0001)  cg2d: iter=   115 ; resid.=  4.78431029042931E-11
(PID.TID 0000.0001)  cg2d: iter=   116 ; resid.=  3.68505853994238E-11
(PID.TID 0000.0001)  cg2d: iter=   117 ; resid.=  3.07679100073542E-11
(PID.TID 0000.0001)  cg2d: iter=   118 ; resid.=  2.41982632869669E-11
(PID.TID 0000.0001)  cg2d: iter=   119 ; resid.=  2.09430472651884E-11
(PID.TID 0000.0001)  cg2d: iter=   120 ; resid.=  1.57365603088579E-11
(PID.TID 0000.0001)  cg2d: iter=   121 ; resid.=  1.21515722233022E-11
(PID.TID 0000.0001)  cg2d: iter=   122 ; resid.=  9.29108544655194E-12
(PID.TID 0000.0001)  cg2d: iter=   123 ; resid.=  6.63880491839078E-12
(PID.TID 0000.0001)  cg2d: iter=   124 ; resid.=  4.78564488073981E-12
(PID.TID 0000.0001)  cg2d: iter=   125 ; resid.=  3.64308287321818E-12
(PID.TID 0000.0001)  cg2d: iter=   126 ; resid.=  2.64094414566464E-12
(PID.TID 0000.0001)  cg2d: iter=   127 ; resid.=  1.84943411181846E-12
(PID.TID 0000.0001)  cg2d: iter=   128 ; resid.=  1.31802293251013E-12
(PID.TID 0000.0001)  cg2d: iter=   129 ; resid.=  1.01739111572811E-12
(PID.TID 0000.0001)  cg2d: iter=   130 ; resid.=  7.53375692281988E-13
(PID.TID 0000.0001)  cg2d: iter=   131 ; resid.=  5.62595270183676E-13
(PID.TID 0000.0001)  cg2d: iter=   132 ; resid.=  3.77807333154023E-13
(PID.TID 0000.0001)  cg2d: iter=   133 ; resid.=  2.95861257877951E-13
(PID.TID 0000.0001)  cg2d: iter=   134 ; resid.=  2.10699551103498E-13
(PID.TID 0000.0001)  cg2d: iter=   135 ; resid.=  1.59748526183179E-13
(PID.TID 0000.0001)  cg2d: iter=   136 ; resid.=  1.14970294142782E-13
(PID.TID 0000.0001)  cg2d: iter=   137 ; resid.=  8.90091192725475E-14
DEBUG_STATS_RL:    cg2d_x (SOLVE_FOR_PRESSURE)  min= -2.23432796631130E+01
DEBUG_STATS_RL:    cg2d_x (SOLVE_FOR_PRESSURE)  max=  1.29064806126630E+01
DEBUG_STATS_RL:    cg2d_x (SOLVE_FOR_PRESSURE) mean= -1.34827017673814E+00
DEBUG_STATS_RL:    cg2d_x (SOLVE_FOR_PRESSURE) S.D.=  7.30985921223725E+00
(PID.TID 0000.0001)      cg2d_init_res =   5.74479674158305E-01
(PID.TID 0000.0001)      cg2d_iters(min,last) =      -1     137
(PID.TID 0000.0001)      cg2d_last_res =   8.90091192725475E-14
(PID.TID 0000.0001) // =======================================================
(PID.TID 0000.0001) // Begin MONITOR dynamic field statistics
(PID.TID 0000.0001) // =======================================================
(PID.TID 0000.0001) %MON time_tsnumber                =                    25
(PID.TID 0000.0001) %MON time_secondsf                =   2.1600000000000E+06
(PID.TID 0000.0001) %MON dynstat_eta_max              =   1.3156453223917E+00
(PID.TID 0000.0001) %MON dynstat_eta_min              =  -2.2776024121420E+00
(PID.TID 0000.0001) %MON dynstat_eta_mean             =  -1.8308254747826E-03
(PID.TID 0000.0001) %MON dynstat_eta_sd               =   6.3591043753169E-01
(PID.TID 0000.0001) %MON dynstat_eta_del2             =   2.1156337117322E-03
(PID.TID 0000.0001) %MON dynstat_uvel_max             =   1.6678507910277E-01
(PID.TID 0000.0001) %MON dynstat_uvel_min             =  -1.6966132250094E-01
(PID.TID 0000.0001) %MON dynstat_uvel_mean            =  -1.1352369012384E-03
(PID.TID 0000.0001) %MON dynstat_uvel_sd              =   2.1377871111678E-02
(PID.TID 0000.0001) %MON dynstat_uvel_del2            =   1.0941507246005E-04
(PID.TID 0000.0001) %MON dynstat_vvel_max             =   1.3328289758906E-01
(PID.TID 0000.0001) %MON dynstat_vvel_min             =  -1.4755429163751E-01
(PID.TID 0000.0001) %MON dynstat_vvel_mean            =   5.1289114296986E-04
(PID.TID 0000.0001) %MON dynstat_vvel_sd              =   1.3142767622462E-02
(PID.TID 0000.0001) %MON dynstat_vvel_del2            =   1.0209127023958E-04
(PID.TID 0000.0001) %MON dynstat_wvel_max             =   1.7266724813563E-04
(PID.TID 0000.0001) %MON dynstat_wvel_min             =  -1.8581088042599E-04
(PID.TID 0000.0001) %MON dynstat_wvel_mean            =  -2.6611417929175E-22
(PID.TID 0000.0001) %MON dynstat_wvel_sd              =   2.1654424876561E-05
(PID.TID 0000.0001) %MON dynstat_wvel_del2            =   2.2909160880413E-07
(PID.TID 0000.0001) %MON dynstat_theta_max            =   2.9915799749913E+01
(PID.TID 0000.0001) %MON dynstat_theta_min            =  -2.0088772165444E+00
(PID.TID 0000.0001) %MON dynstat_theta_mean           =   3.6505236393703E+00
(PID.TID 0000.0001) %MON dynstat_theta_sd             =   4.4166290033557E+00
(PID.TID 0000.0001) %MON dynstat_theta_del2           =   4.8927391717918E-03
(PID.TID 0000.0001) %MON dynstat_salt_max             =   3.7473714467447E+01
(PID.TID 0000.0001) %MON dynstat_salt_min             =   2.9844033376279E+01
(PID.TID 0000.0001) %MON dynstat_salt_mean            =   3.4747918337638E+01
(PID.TID 0000.0001) %MON dynstat_salt_sd              =   2.9613463539707E-01
(PID.TID 0000.0001) %MON dynstat_salt_del2            =   1.0061121273322E-03
(PID.TID 0000.0001) %MON dynstat_sst_max              =   2.9915799749913E+01
(PID.TID 0000.0001) %MON dynstat_sst_min              =  -2.0088772165444E+00
(PID.TID 0000.0001) %MON dynstat_sst_mean             =   1.8734717318272E+01
(PID.TID 0000.0001) %MON dynstat_sst_sd               =   9.0592141353109E+00
(PID.TID 0000.0001) %MON dynstat_sst_del2             =   2.6435647796597E-02
(PID.TID 0000.0001) %MON dynstat_sss_max              =   3.7459371489357E+01
(PID.TID 0000.0001) %MON dynstat_sss_min              =   2.9844033376279E+01
(PID.TID 0000.0001) %MON dynstat_sss_mean             =   3.4879709722061E+01
(PID.TID 0000.0001) %MON dynstat_sss_sd               =   9.7385365696122E-01
(PID.TID 0000.0001) %MON dynstat_sss_del2             =   7.9264360615856E-03
(PID.TID 0000.0001) %MON forcing_qnet_max             =   4.1174183654785E+02
(PID.TID 0000.0001) %MON forcing_qnet_min             =  -1.7786387329102E+02
(PID.TID 0000.0001) %MON forcing_qnet_mean            =  -1.5748343494414E+01
(PID.TID 0000.0001) %MON forcing_qnet_sd              =   1.0030047515306E+02
(PID.TID 0000.0001) %MON forcing_qnet_del2            =   9.9066567498476E-01
(PID.TID 0000.0001) %MON forcing_qsw_max              =   0.0000000000000E+00
(PID.TID 0000.0001) %MON forcing_qsw_min              =   0.0000000000000E+00
(PID.TID 0000.0001) %MON forcing_qsw_mean             =   0.0000000000000E+00
(PID.TID 0000.0001) %MON forcing_qsw_sd               =   0.0000000000000E+00
(PID.TID 0000.0001) %MON forcing_qsw_del2             =   0.0000000000000E+00
(PID.TID 0000.0001) %MON forcing_empmr_max            =   7.9347431380938E-05
(PID.TID 0000.0001) %MON forcing_empmr_min            =  -7.6872754561919E-05
(PID.TID 0000.0001) %MON forcing_empmr_mean           =   9.2907863745025E-07
(PID.TID 0000.0001) %MON forcing_empmr_sd             =   2.8383735592419E-05
(PID.TID 0000.0001) %MON forcing_empmr_del2           =   3.5846896033345E-07
(PID.TID 0000.0001) %MON forcing_fu_max               =   2.7701420187950E-01
(PID.TID 0000.0001) %MON forcing_fu_min               =  -1.8087395131588E-01
(PID.TID 0000.0001) %MON forcing_fu_mean              =   1.6490437091787E-02
(PID.TID 0000.0001) %MON forcing_fu_sd                =   9.0006638203509E-02
(PID.TID 0000.0001) %MON forcing_fu_del2              =   6.7506455559060E-04
(PID.TID 0000.0001) %MON forcing_fv_max               =   2.0424529761076E-01
(PID.TID 0000.0001) %MON forcing_fv_min               =  -1.6921520233154E-01
(PID.TID 0000.0001) %MON forcing_fv_mean              =  -5.8462458999417E-03
(PID.TID 0000.0001) %MON forcing_fv_sd                =   4.5856746175698E-02
(PID.TID 0000.0001) %MON forcing_fv_del2              =   4.6584186697431E-04
(PID.TID 0000.0001) %MON trAdv_CFL_u_max              =   4.3588205839044E-02
(PID.TID 0000.0001) %MON trAdv_CFL_v_max              =   2.8909936377938E-02
(PID.TID 0000.0001) %MON trAdv_CFL_w_max              =   6.6905652846140E-02
(PID.TID 0000.0001) %MON advcfl_uvel_max              =   4.9242740304181E-02
(PID.TID 0000.0001) %MON advcfl_vvel_max              =   2.8667432378843E-02
(PID.TID 0000.0001) %MON advcfl_wvel_max              =   8.3124946062409E-02
(PID.TID 0000.0001) %MON advcfl_W_hf_max              =   9.7968686430697E-02
(PID.TID 0000.0001) %MON pe_b_mean                    =   5.1745990770224E-04
(PID.TID 0000.0001) %MON ke_max                       =   1.5469460807606E-02
(PID.TID 0000.0001) %MON ke_mean                      =   2.8587881378003E-04
(PID.TID 0000.0001) %MON ke_vol                       =   1.3226782436723E+18
(PID.TID 0000.0001) %MON vort_r_min                   =  -5.3623277167512E-07
(PID.TID 0000.0001) %MON vort_r_max                   =   5.4966669102307E-07
(PID.TID 0000.0001) %MON vort_a_mean                  =  -2.5274806471091E-05
(PID.TID 0000.0001) %MON vort_a_sd                    =   7.3604071870518E-05
(PID.TID 0000.0001) %MON vort_p_mean                  =  -3.1845654632280E-05
(PID.TID 0000.0001) %MON vort_p_sd                    =   1.3162730684727E-04
(PID.TID 0000.0001) %MON surfExpan_theta_mean         =  -6.1307097357899E-07
(PID.TID 0000.0001) %MON surfExpan_salt_mean          =   4.8552121735984E-08
(PID.TID 0000.0001) // =======================================================
(PID.TID 0000.0001) // End MONITOR dynamic field statistics
(PID.TID 0000.0001) // =======================================================
 EXTERNAL_FIELDS_LOAD,        25 : iP,iLd,i0,i1=    1    2    1    2 ; Wght=  0.6666666667  0.3333333333
 EXTERNAL_FIELDS_LOAD: (fu0,1),fu,fv= -3.5633E-02 -1.4435E-02 -2.8567E-02 -4.4050E-02
 EXTERNAL_FIELDS_LOAD: SST,SSS,Q,E-P=  4.6166E-01  3.4617E+01  2.5734E+02  1.0550E-05
DEBUG_STATS_RL:          Uvel (THERMODYNAMICS)  min= -1.69661322500938E-01
DEBUG_STATS_RL:          Uvel (THERMODYNAMICS)  max=  1.66785079102774E-01
DEBUG_STATS_RL:          Uvel (THERMODYNAMICS) mean=  1.11826671329966E-03
DEBUG_STATS_RL:          Uvel (THERMODYNAMICS) S.D.=  2.55553797257040E-02
DEBUG_STATS_RL:          Vvel (THERMODYNAMICS)  min= -1.47554291637507E-01
DEBUG_STATS_RL:          Vvel (THERMODYNAMICS)  max=  1.33282897589061E-01
DEBUG_STATS_RL:          Vvel (THERMODYNAMICS) mean=  1.84528262257848E-03
DEBUG_STATS_RL:          Vvel (THERMODYNAMICS) S.D.=  1.87361129016857E-02
DEBUG_STATS_RL:          Wvel (THERMODYNAMICS)  min= -1.85810880425985E-04
DEBUG_STATS_RL:          Wvel (THERMODYNAMICS)  max=  1.72667248135634E-04
DEBUG_STATS_RL:          Wvel (THERMODYNAMICS) mean=  2.75937366559521E-07
DEBUG_STATS_RL:          Wvel (THERMODYNAMICS) S.D.=  1.94083067125478E-05
DEBUG_STATS_RL:         Theta (THERMODYNAMICS)  min= -2.00861795638694E+00
DEBUG_STATS_RL:         Theta (THERMODYNAMICS)  max=  2.99766267703208E+01
DEBUG_STATS_RL:         Theta (THERMODYNAMICS) mean=  3.23831489216030E+00
DEBUG_STATS_RL:         Theta (THERMODYNAMICS) S.D.=  5.85760761388026E+00
DEBUG_STATS_RL:          Salt (THERMODYNAMICS)  min=  3.00000000000000E-02
DEBUG_STATS_RL:          Salt (THERMODYNAMICS)  max=  3.74746656870448E+01
DEBUG_STATS_RL:          Salt (THERMODYNAMICS) mean=  1.88750127319969E+01
DEBUG_STATS_RL:          Salt (THERMODYNAMICS) S.D.=  1.73005082041530E+01
DEBUG_STATS_RL:         GtNm1 (THERMODYNAMICS)  min= -3.30351626641474E-06
DEBUG_STATS_RL:         GtNm1 (THERMODYNAMICS)  max=  2.98428904734656E-06
DEBUG_STATS_RL:         GtNm1 (THERMODYNAMICS) mean=  3.34990657744771E-10
DEBUG_STATS_RL:         GtNm1 (THERMODYNAMICS) S.D.=  2.44049108862020E-07
DEBUG_STATS_RL:         GsNm1 (THERMODYNAMICS)  min= -6.22851827614614E-07
DEBUG_STATS_RL:         GsNm1 (THERMODYNAMICS)  max=  5.47095408606862E-07
DEBUG_STATS_RL:         GsNm1 (THERMODYNAMICS) mean= -6.30687430285019E-10
DEBUG_STATS_RL:         GsNm1 (THERMODYNAMICS) S.D.=  2.31042323492840E-08
DEBUG_STATS_RL:                EtaN (DYNAMICS)  min= -2.27760241214198E+00
DEBUG_STATS_RL:                EtaN (DYNAMICS)  max=  1.31564532239174E+00
DEBUG_STATS_RL:                EtaN (DYNAMICS) mean= -1.37438346252613E-01
DEBUG_STATS_RL:                EtaN (DYNAMICS) S.D.=  7.45143650584840E-01
DEBUG_STATS_RL:                Uvel (DYNAMICS)  min= -1.69661322500938E-01
DEBUG_STATS_RL:                Uvel (DYNAMICS)  max=  1.66785079102774E-01
DEBUG_STATS_RL:                Uvel (DYNAMICS) mean=  1.11826671329966E-03
DEBUG_STATS_RL:                Uvel (DYNAMICS) S.D.=  2.55553797257040E-02
DEBUG_STATS_RL:                Vvel (DYNAMICS)  min= -1.47554291637507E-01
DEBUG_STATS_RL:                Vvel (DYNAMICS)  max=  1.33282897589061E-01
DEBUG_STATS_RL:                Vvel (DYNAMICS) mean=  1.84528262257848E-03
DEBUG_STATS_RL:                Vvel (DYNAMICS) S.D.=  1.87361129016857E-02
DEBUG_STATS_RL:                Wvel (DYNAMICS)  min= -1.85810880425985E-04
DEBUG_STATS_RL:                Wvel (DYNAMICS)  max=  1.72667248135634E-04
DEBUG_STATS_RL:                Wvel (DYNAMICS) mean=  2.75937366559521E-07
DEBUG_STATS_RL:                Wvel (DYNAMICS) S.D.=  1.94083067125478E-05
DEBUG_STATS_RL:               Theta (DYNAMICS)  min= -2.00861795638694E+00
DEBUG_STATS_RL:               Theta (DYNAMICS)  max=  2.99766267703208E+01
DEBUG_STATS_RL:               Theta (DYNAMICS) mean=  3.23831489216030E+00
DEBUG_STATS_RL:               Theta (DYNAMICS) S.D.=  5.85760761388026E+00
DEBUG_STATS_RL:                Salt (DYNAMICS)  min=  3.00000000000000E-02
DEBUG_STATS_RL:                Salt (DYNAMICS)  max=  3.74746656870448E+01
DEBUG_STATS_RL:                Salt (DYNAMICS) mean=  1.88750127319969E+01
DEBUG_STATS_RL:                Salt (DYNAMICS) S.D.=  1.73005082041530E+01
DEBUG_STATS_RL:                  Gu (DYNAMICS)  min= -1.76250703342163E-01
DEBUG_STATS_RL:                  Gu (DYNAMICS)  max=  1.70858222379066E-01
DEBUG_STATS_RL:                  Gu (DYNAMICS) mean=  2.14070259661671E-03
DEBUG_STATS_RL:                  Gu (DYNAMICS) S.D.=  2.67680797331040E-02
DEBUG_STATS_RL:                  Gv (DYNAMICS)  min= -1.39829385219752E-01
DEBUG_STATS_RL:                  Gv (DYNAMICS)  max=  1.40091495446160E-01
DEBUG_STATS_RL:                  Gv (DYNAMICS) mean=  3.94289367018766E-03
DEBUG_STATS_RL:                  Gv (DYNAMICS) S.D.=  1.96239809586171E-02
DEBUG_STATS_RL:               GuNm1 (DYNAMICS)  min= -7.59585926751804E-06
DEBUG_STATS_RL:               GuNm1 (DYNAMICS)  max=  8.15263999935446E-06
DEBUG_STATS_RL:               GuNm1 (DYNAMICS) mean= -6.55258374686811E-09
DEBUG_STATS_RL:               GuNm1 (DYNAMICS) S.D.=  1.20905471395189E-06
DEBUG_STATS_RL:               GvNm1 (DYNAMICS)  min= -1.02087458524447E-05
DEBUG_STATS_RL:               GvNm1 (DYNAMICS)  max=  1.69851504080455E-05
DEBUG_STATS_RL:               GvNm1 (DYNAMICS) mean=  7.77901702762331E-07
DEBUG_STATS_RL:               GvNm1 (DYNAMICS) S.D.=  2.65367124120054E-06
DEBUG_STATS_RL:               GtNm1 (DYNAMICS)  min= -3.30351626641474E-06
DEBUG_STATS_RL:               GtNm1 (DYNAMICS)  max=  2.98428904734656E-06
DEBUG_STATS_RL:               GtNm1 (DYNAMICS) mean=  3.34990657744771E-10
DEBUG_STATS_RL:               GtNm1 (DYNAMICS) S.D.=  2.44049108862020E-07
DEBUG_STATS_RL:               GsNm1 (DYNAMICS)  min= -6.22851827614614E-07
DEBUG_STATS_RL:               GsNm1 (DYNAMICS)  max=  5.47095408606862E-07
DEBUG_STATS_RL:               GsNm1 (DYNAMICS) mean= -6.30687430285019E-10
DEBUG_STATS_RL:               GsNm1 (DYNAMICS) S.D.=  2.31042323492840E-08
DEBUG_STATS_RL:    cg2d_b (SOLVE_FOR_PRESSURE)  min= -2.41951545099011E+04
DEBUG_STATS_RL:    cg2d_b (SOLVE_FOR_PRESSURE)  max=  2.30270794261513E+04
DEBUG_STATS_RL:    cg2d_b (SOLVE_FOR_PRESSURE) mean=  1.82910120751953E+00
DEBUG_STATS_RL:    cg2d_b (SOLVE_FOR_PRESSURE) S.D.=  4.06013642158983E+03
 cg2d: Sum(rhs),rhsMax =   1.75008979325815E-01  1.58920252893909E+00
(PID.TID 0000.0001)  cg2d: iter=     1 ; resid.=  4.01794792052968E-01
(PID.TID 0000.0001)  cg2d: iter=     2 ; resid.=  3.35224194284132E-01
(PID.TID 0000.0001)  cg2d: iter=     3 ; resid.=  3.05159824643486E-01
(PID.TID 0000.0001)  cg2d: iter=     4 ; resid.=  2.65285970138007E-01
(PID.TID 0000.0001)  cg2d: iter=     5 ; resid.=  1.98018091138648E-01
(PID.TID 0000.0001)  cg2d: iter=     6 ; resid.=  1.49906809684403E-01
(PID.TID 0000.0001)  cg2d: iter=     7 ; resid.=  1.28974473426963E-01
(PID.TID 0000.0001)  cg2d: iter=     8 ; resid.=  1.20780820459325E-01
(PID.TID 0000.0001)  cg2d: iter=     9 ; resid.=  9.99701739116651E-02
(PID.TID 0000.0001)  cg2d: iter=    10 ; resid.=  9.37729537491476E-02
(PID.TID 0000.0001)  cg2d: iter=    11 ; resid.=  8.55159426717419E-02
(PID.TID 0000.0001)  cg2d: iter=    12 ; resid.=  7.02900153369048E-02
(PID.TID 0000.0001)  cg2d: iter=    13 ; resid.=  5.70669378189500E-02
(PID.TID 0000.0001)  cg2d: iter=    14 ; resid.=  4.66698234674765E-02
(PID.TID 0000.0001)  cg2d: iter=    15 ; resid.=  3.71395161290123E-02
(PID.TID 0000.0001)  cg2d: iter=    16 ; resid.=  3.24953436631536E-02
(PID.TID 0000.0001)  cg2d: iter=    17 ; resid.=  2.87874819306935E-02
(PID.TID 0000.0001)  cg2d: iter=    18 ; resid.=  2.27403210965915E-02
(PID.TID 0000.0001)  cg2d: iter=    19 ; resid.=  1.84855335219653E-02
(PID.TID 0000.0001)  cg2d: iter=    20 ; resid.=  1.51366566195435E-02
(PID.TID 0000.0001)  cg2d: iter=    21 ; resid.=  1.24763338548332E-02
(PID.TID 0000.0001)  cg2d: iter=    22 ; resid.=  9.95853833334886E-03
(PID.TID 0000.0001)  cg2d: iter=    23 ; resid.=  8.19327136129327E-03
(PID.TID 0000.0001)  cg2d: iter=    24 ; resid.=  6.75393224240963E-03
(PID.TID 0000.0001)  cg2d: iter=    25 ; resid.=  4.95972708821539E-03
(PID.TID 0000.0001)  cg2d: iter=    26 ; resid.=  4.06857823709487E-03
(PID.TID 0000.0001)  cg2d: iter=    27 ; resid.=  3.56830505667393E-03
(PID.TID 0000.0001)  cg2d: iter=    28 ; resid.=  2.87852173017893E-03
(PID.TID 0000.0001)  cg2d: iter=    29 ; resid.=  2.27191366711342E-03
(PID.TID 0000.0001)  cg2d: iter=    30 ; resid.=  1.99979719863526E-03
(PID.TID 0000.0001)  cg2d: iter=    31 ; resid.=  1.73902962833676E-03
(PID.TID 0000.0001)  cg2d: iter=    32 ; resid.=  1.43037137710746E-03
(PID.TID 0000.0001)  cg2d: iter=    33 ; resid.=  1.22310306989868E-03
(PID.TID 0000.0001)  cg2d: iter=    34 ; resid.=  1.03709452446751E-03
(PID.TID 0000.0001)  cg2d: iter=    35 ; resid.=  8.23428324189256E-04
(PID.TID 0000.0001)  cg2d: iter=    36 ; resid.=  6.63098698115445E-04
(PID.TID 0000.0001)  cg2d: iter=    37 ; resid.=  5.76703422408206E-04
(PID.TID 0000.0001)  cg2d: iter=    38 ; resid.=  4.89199052497495E-04
(PID.TID 0000.0001)  cg2d: iter=    39 ; resid.=  3.99267541065663E-04
(PID.TID 0000.0001)  cg2d: iter=    40 ; resid.=  3.37677831138635E-04
(PID.TID 0000.0001)  cg2d: iter=    41 ; resid.=  2.82648024388294E-04
(PID.TID 0000.0001)  cg2d: iter=    42 ; resid.=  2.49196043166392E-04
(PID.TID 0000.0001)  cg2d: iter=    43 ; resid.=  2.27283169831643E-04
(PID.TID 0000.0001)  cg2d: iter=    44 ; resid.=  2.04224361244582E-04
(PID.TID 0000.0001)  cg2d: iter=    45 ; resid.=  1.71843809609687E-04
(PID.TID 0000.0001)  cg2d: iter=    46 ; resid.=  1.38433404206179E-04
(PID.TID 0000.0001)  cg2d: iter=    47 ; resid.=  1.23695438693348E-04
(PID.TID 0000.0001)  cg2d: iter=    48 ; resid.=  9.83075013090266E-05
(PID.TID 0000.0001)  cg2d: iter=    49 ; resid.=  7.58749931120050E-05
(PID.TID 0000.0001)  cg2d: iter=    50 ; resid.=  5.82314687900721E-05
(PID.TID 0000.0001)  cg2d: iter=    51 ; resid.=  4.69492463911092E-05
(PID.TID 0000.0001)  cg2d: iter=    52 ; resid.=  3.96220988658713E-05
(PID.TID 0000.0001)  cg2d: iter=    53 ; resid.=  3.48880205235937E-05
(PID.TID 0000.0001)  cg2d: iter=    54 ; resid.=  2.83816057642732E-05
(PID.TID 0000.0001)  cg2d: iter=    55 ; resid.=  2.46295409655956E-05
(PID.TID 0000.0001)  cg2d: iter=    56 ; resid.=  2.17435219492519E-05
(PID.TID 0000.0001)  cg2d: iter=    57 ; resid.=  1.81727672778438E-05
(PID.TID 0000.0001)  cg2d: iter=    58 ; resid.=  1.45701602382780E-05
(PID.TID 0000.0001)  cg2d: iter=    59 ; resid.=  1.14592525971613E-05
(PID.TID 0000.0001)  cg2d: iter=    60 ; resid.=  9.13885233043060E-06
(PID.TID 0000.0001)  cg2d: iter=    61 ; resid.=  7.47273256277539E-06
(PID.TID 0000.0001)  cg2d: iter=    62 ; resid.=  6.38095175846466E-06
(PID.TID 0000.0001)  cg2d: iter=    63 ; resid.=  5.30384472800079E-06
(PID.TID 0000.0001)  cg2d: iter=    64 ; resid.=  4.31813581176920E-06
(PID.TID 0000.0001)  cg2d: iter=    65 ; resid.=  3.40039696845572E-06
(PID.TID 0000.0001)  cg2d: iter=    66 ; resid.=  2.67496838475967E-06
(PID.TID 0000.0001)  cg2d: iter=    67 ; resid.=  2.31811038253121E-06
(PID.TID 0000.0001)  cg2d: iter=    68 ; resid.=  1.91533435294359E-06
(PID.TID 0000.0001)  cg2d: iter=    69 ; resid.=  1.61727569190836E-06
(PID.TID 0000.0001)  cg2d: iter=    70 ; resid.=  1.38452960190421E-06
(PID.TID 0000.0001)  cg2d: iter=    71 ; resid.=  1.08537065964377E-06
(PID.TID 0000.0001)  cg2d: iter=    72 ; resid.=  9.08624608317578E-07
(PID.TID 0000.0001)  cg2d: iter=    73 ; resid.=  7.91327227652087E-07
(PID.TID 0000.0001)  cg2d: iter=    74 ; resid.=  6.25662262502605E-07
(PID.TID 0000.0001)  cg2d: iter=    75 ; resid.=  4.50590674296113E-07
(PID.TID 0000.0001)  cg2d: iter=    76 ; resid.=  3.79168239123261E-07
(PID.TID 0000.0001)  cg2d: iter=    77 ; resid.=  3.20778264012615E-07
(PID.TID 0000.0001)  cg2d: iter=    78 ; resid.=  2.75058733073011E-07
(PID.TID 0000.0001)  cg2d: iter=    79 ; resid.=  2.53632205351059E-07
(PID.TID 0000.0001)  cg2d: iter=    80 ; resid.=  2.02887055594750E-07
(PID.TID 0000.0001)  cg2d: iter=    81 ; resid.=  1.82439879050223E-07
(PID.TID 0000.0001)  cg2d: iter=    82 ; resid.=  1.43935125107313E-07
(PID.TID 0000.0001)  cg2d: iter=    83 ; resid.=  1.08442041881969E-07
(PID.TID 0000.0001)  cg2d: iter=    84 ; resid.=  8.14460050808339E-08
(PID.TID 0000.0001)  cg2d: iter=    85 ; resid.=  6.03713249030991E-08
(PID.TID 0000.0001)  cg2d: iter=    86 ; resid.=  4.72268986960045E-08
(PID.TID 0000.0001)  cg2d: iter=    87 ; resid.=  3.95890162880399E-08
(PID.TID 0000.0001)  cg2d: iter=    88 ; resid.=  3.38004591954902E-08
(PID.TID 0000.0001)  cg2d: iter=    89 ; resid.=  2.82233644857239E-08
(PID.TID 0000.0001)  cg2d: iter=    90 ; resid.=  2.13905723784177E-08
(PID.TID 0000.0001)  cg2d: iter=    91 ; resid.=  1.61237564682854E-08
(PID.TID 0000.0001)  cg2d: iter=    92 ; resid.=  1.12562292148092E-08
(PID.TID 0000.0001)  cg2d: iter=    93 ; resid.=  7.84533228127404E-09
(PID.TID 0000.0001)  cg2d: iter=    94 ; resid.=  5.79298189865702E-09
(PID.TID 0000.0001)  cg2d: iter=    95 ; resid.=  4.84752749286015E-09
(PID.TID 0000.0001)  cg2d: iter=    96 ; resid.=  3.62135553004071E-09
(PID.TID 0000.0001)  cg2d: iter=    97 ; resid.=  2.74123842634462E-09
(PID.TID 0000.0001)  cg2d: iter=    98 ; resid.=  2.06051710703915E-09
(PID.TID 0000.0001)  cg2d: iter=    99 ; resid.=  1.69067971712310E-09
(PID.TID 0000.0001)  cg2d: iter=   100 ; resid.=  1.36379251351529E-09
(PID.TID 0000.0001)  cg2d: iter=   101 ; resid.=  1.09213460182923E-09
(PID.TID 0000.0001)  cg2d: iter=   102 ; resid.=  8.81454159001889E-10
(PID.TID 0000.0001)  cg2d: iter=   103 ; resid.=  7.03112365424123E-10
(PID.TID 0000.0001)  cg2d: iter=   104 ; resid.=  5.67924471005210E-10
(PID.TID 0000.0001)  cg2d: iter=   105 ; resid.=  4.63102002934143E-10
(PID.TID 0000.0001)  cg2d: iter=   106 ; resid.=  4.15110731936822E-10
(PID.TID 0000.0001)  cg2d: iter=   107 ; resid.=  3.64253713958250E-10
(PID.TID 0000.0001)  cg2d: iter=   108 ; resid.=  3.10447298831858E-10
(PID.TID 0000.0001)  cg2d: iter=   109 ; resid.=  2.57955048468585E-10
(PID.TID 0000.0001)  cg2d: iter=   110 ; resid.=  1.98355042202219E-10
(PID.TID 0000.0001)  cg2d: iter=   111 ; resid.=  1.50900795745218E-10
(PID.TID 0000.0001)  cg2d: iter=   112 ; resid.=  1.15457186205270E-10
(PID.TID 0000.0001)  cg2d: iter=   113 ; resid.=  8.38575484176413E-11
(PID.TID 0000.0001)  cg2d: iter=   114 ; resid.=  6.18767980142561E-11
(PID.TID 0000.0001)  cg2d: iter=   115 ; resid.=  4.22377916800402E-11
(PID.TID 0000.0001)  cg2d: iter=   116 ; resid.=  3.21815080533560E-11
(PID.TID 0000.0001)  cg2d: iter=   117 ; resid.=  2.59553215567529E-11
(PID.TID 0000.0001)  cg2d: iter=   118 ; resid.=  2.02702395342307E-11
(PID.TID 0000.0001)  cg2d: iter=   119 ; resid.=  1.76937708339938E-11
(PID.TID 0000.0001)  cg2d: iter=   120 ; resid.=  1.34812705462204E-11
(PID.TID 0000.0001)  cg2d: iter=   121 ; resid.=  1.03778840406903E-11
(PID.TID 0000.0001)  cg2d: iter=   122 ; resid.=  8.01040730021055E-12
(PID.TID 0000.0001)  cg2d: iter=   123 ; resid.=  6.04006663545777E-12
(PID.TID 0000.0001)  cg2d: iter=   124 ; resid.=  4.69596447135867E-12
(PID.TID 0000.0001)  cg2d: iter=   125 ; resid.=  3.62458081982779E-12
(PID.TID 0000.0001)  cg2d: iter=   126 ; resid.=  2.56172871255406E-12
(PID.TID 0000.0001)  cg2d: iter=   127 ; resid.=  1.76298333286559E-12
(PID.TID 0000.0001)  cg2d: iter=   128 ; resid.=  1.24549974553753E-12
(PID.TID 0000.0001)  cg2d: iter=   129 ; resid.=  9.68679856627526E-13
(PID.TID 0000.0001)  cg2d: iter=   130 ; resid.=  7.27683775433881E-13
(PID.TID 0000.0001)  cg2d: iter=   131 ; resid.=  5.27684612905080E-13
(PID.TID 0000.0001)  cg2d: iter=   132 ; resid.=  3.38323167541245E-13
(PID.TID 0000.0001)  cg2d: iter=   133 ; resid.=  2.57567422422841E-13
(PID.TID 0000.0001)  cg2d: iter=   134 ; resid.=  1.81318045990571E-13
(PID.TID 0000.0001)  cg2d: iter=   135 ; resid.=  1.39090178601608E-13
(PID.TID 0000.0001)  cg2d: iter=   136 ; resid.=  9.84858368952891E-14
DEBUG_STATS_RL:    cg2d_x (SOLVE_FOR_PRESSURE)  min= -2.24356061089852E+01
DEBUG_STATS_RL:    cg2d_x (SOLVE_FOR_PRESSURE)  max=  1.35499874133736E+01
DEBUG_STATS_RL:    cg2d_x (SOLVE_FOR_PRESSURE) mean= -1.34023556855894E+00
DEBUG_STATS_RL:    cg2d_x (SOLVE_FOR_PRESSURE) S.D.=  7.36522183737105E+00
(PID.TID 0000.0001)      cg2d_init_res =   5.67877305431476E-01
(PID.TID 0000.0001)      cg2d_iters(min,last) =      -1     136
(PID.TID 0000.0001)      cg2d_last_res =   9.84858368952891E-14
(PID.TID 0000.0001) // =======================================================
(PID.TID 0000.0001) // Begin MONITOR dynamic field statistics
(PID.TID 0000.0001) // =======================================================
(PID.TID 0000.0001) %MON time_tsnumber                =                    26
(PID.TID 0000.0001) %MON time_secondsf                =   2.2464000000000E+06
(PID.TID 0000.0001) %MON dynstat_eta_max              =   1.3812423459097E+00
(PID.TID 0000.0001) %MON dynstat_eta_min              =  -2.2870138745144E+00
(PID.TID 0000.0001) %MON dynstat_eta_mean             =  -1.9084403089846E-03
(PID.TID 0000.0001) %MON dynstat_eta_sd               =   6.3857525378586E-01
(PID.TID 0000.0001) %MON dynstat_eta_del2             =   2.1503214384274E-03
(PID.TID 0000.0001) %MON dynstat_uvel_max             =   1.7208460837132E-01
(PID.TID 0000.0001) %MON dynstat_uvel_min             =  -1.7468694205585E-01
(PID.TID 0000.0001) %MON dynstat_uvel_mean            =  -2.0320029876721E-04
(PID.TID 0000.0001) %MON dynstat_uvel_sd              =   2.1641186811598E-02
(PID.TID 0000.0001) %MON dynstat_uvel_del2            =   1.1034860828344E-04
(PID.TID 0000.0001) %MON dynstat_vvel_max             =   1.3061253182321E-01
(PID.TID 0000.0001) %MON dynstat_vvel_min             =  -1.4611292571840E-01
(PID.TID 0000.0001) %MON dynstat_vvel_mean            =   3.4330509007115E-04
(PID.TID 0000.0001) %MON dynstat_vvel_sd              =   1.3011862448262E-02
(PID.TID 0000.0001) %MON dynstat_vvel_del2            =   1.0024723574082E-04
(PID.TID 0000.0001) %MON dynstat_wvel_max             =   1.8245796898310E-04
(PID.TID 0000.0001) %MON dynstat_wvel_min             =  -2.3087294048777E-04
(PID.TID 0000.0001) %MON dynstat_wvel_mean            =  -3.8745050134427E-22
(PID.TID 0000.0001) %MON dynstat_wvel_sd              =   2.1201948305405E-05
(PID.TID 0000.0001) %MON dynstat_wvel_del2            =   2.2499291012522E-07
(PID.TID 0000.0001) %MON dynstat_theta_max            =   2.9976626770321E+01
(PID.TID 0000.0001) %MON dynstat_theta_min            =  -2.0086179563869E+00
(PID.TID 0000.0001) %MON dynstat_theta_mean           =   3.6506244924796E+00
(PID.TID 0000.0001) %MON dynstat_theta_sd             =   4.4168220539691E+00
(PID.TID 0000.0001) %MON dynstat_theta_del2           =   4.8950421747689E-03
(PID.TID 0000.0001) %MON dynstat_salt_max             =   3.7474665687045E+01
(PID.TID 0000.0001) %MON dynstat_salt_min             =   2.9853159241381E+01
(PID.TID 0000.0001) %MON dynstat_salt_mean            =   3.4747919300328E+01
(PID.TID 0000.0001) %MON dynstat_salt_sd              =   2.9612793767320E-01
(PID.TID 0000.0001) %MON dynstat_salt_del2            =   1.0046496262758E-03
(PID.TID 0000.0001) %MON dynstat_sst_max              =   2.9976626770321E+01
(PID.TID 0000.0001) %MON dynstat_sst_min              =  -2.0086179563869E+00
(PID.TID 0000.0001) %MON dynstat_sst_mean             =   1.8739695723349E+01
(PID.TID 0000.0001) %MON dynstat_sst_sd               =   9.0585284115850E+00
(PID.TID 0000.0001) %MON dynstat_sst_del2             =   2.6487290867226E-02
(PID.TID 0000.0001) %MON dynstat_sss_max              =   3.7459400364979E+01
(PID.TID 0000.0001) %MON dynstat_sss_min              =   2.9853159241381E+01
(PID.TID 0000.0001) %MON dynstat_sss_mean             =   3.4879037307330E+01
(PID.TID 0000.0001) %MON dynstat_sss_sd               =   9.7411703570931E-01
(PID.TID 0000.0001) %MON dynstat_sss_del2             =   7.9161013609610E-03
(PID.TID 0000.0001) %MON forcing_qnet_max             =   4.0842274983724E+02
(PID.TID 0000.0001) %MON forcing_qnet_min             =  -1.7762435404460E+02
(PID.TID 0000.0001) %MON forcing_qnet_mean            =  -1.5663434327010E+01
(PID.TID 0000.0001) %MON forcing_qnet_sd              =   9.9257487839865E+01
(PID.TID 0000.0001) %MON forcing_qnet_del2            =   9.8746228186851E-01
(PID.TID 0000.0001) %MON forcing_qsw_max              =   0.0000000000000E+00
(PID.TID 0000.0001) %MON forcing_qsw_min              =   0.0000000000000E+00
(PID.TID 0000.0001) %MON forcing_qsw_mean             =   0.0000000000000E+00
(PID.TID 0000.0001) %MON forcing_qsw_sd               =   0.0000000000000E+00
(PID.TID 0000.0001) %MON forcing_qsw_del2             =   0.0000000000000E+00
(PID.TID 0000.0001) %MON forcing_empmr_max            =   7.9033341648937E-05
(PID.TID 0000.0001) %MON forcing_empmr_min            =  -7.6952398823475E-05
(PID.TID 0000.0001) %MON forcing_empmr_mean           =   9.2976103471021E-07
(PID.TID 0000.0001) %MON forcing_empmr_sd             =   2.8346308992535E-05
(PID.TID 0000.0001) %MON forcing_empmr_del2           =   3.5774711297823E-07
(PID.TID 0000.0001) %MON forcing_fu_max               =   2.7689236402512E-01
(PID.TID 0000.0001) %MON forcing_fu_min               =  -1.8253387510777E-01
(PID.TID 0000.0001) %MON forcing_fu_mean              =   1.6544737307256E-02
(PID.TID 0000.0001) %MON forcing_fu_sd                =   8.9976513162372E-02
(PID.TID 0000.0001) %MON forcing_fu_del2              =   6.7244408205288E-04
(PID.TID 0000.0001) %MON forcing_fv_max               =   2.0103685061137E-01
(PID.TID 0000.0001) %MON forcing_fv_min               =  -1.6822390258312E-01
(PID.TID 0000.0001) %MON forcing_fv_mean              =  -5.9115068066569E-03
(PID.TID 0000.0001) %MON forcing_fv_sd                =   4.5661871186592E-02
(PID.TID 0000.0001) %MON forcing_fv_del2              =   4.6455732257683E-04
(PID.TID 0000.0001) %MON trAdv_CFL_u_max              =   4.9252741856927E-02
(PID.TID 0000.0001) %MON trAdv_CFL_v_max              =   2.7754769697698E-02
(PID.TID 0000.0001) %MON trAdv_CFL_w_max              =   7.2187453159461E-02
(PID.TID 0000.0001) %MON advcfl_uvel_max              =   5.6880092467180E-02
(PID.TID 0000.0001) %MON advcfl_vvel_max              =   2.8387398097491E-02
(PID.TID 0000.0001) %MON advcfl_wvel_max              =   8.7675157238704E-02
(PID.TID 0000.0001) %MON advcfl_W_hf_max              =   1.0333143531704E-01
(PID.TID 0000.0001) %MON pe_b_mean                    =   5.2180621614186E-04
(PID.TID 0000.0001) %MON ke_max                       =   1.5537559276758E-02
(PID.TID 0000.0001) %MON ke_mean                      =   2.8885609571944E-04
(PID.TID 0000.0001) %MON ke_vol                       =   1.3226782436723E+18
(PID.TID 0000.0001) %MON vort_r_min                   =  -6.2514961365427E-07
(PID.TID 0000.0001) %MON vort_r_max                   =   5.0850161552218E-07
(PID.TID 0000.0001) %MON vort_a_mean                  =  -2.5274806791990E-05
(PID.TID 0000.0001) %MON vort_a_sd                    =   7.3604195254153E-05
(PID.TID 0000.0001) %MON vort_p_mean                  =  -3.1845655036606E-05
(PID.TID 0000.0001) %MON vort_p_sd                    =   1.3162797695772E-04
(PID.TID 0000.0001) %MON surfExpan_theta_mean         =  -5.0816651060257E-07
(PID.TID 0000.0001) %MON surfExpan_salt_mean          =  -3.8450878348263E-08
(PID.TID 0000.0001) // =======================================================
(PID.TID 0000.0001) // End MONITOR dynamic field statistics
(PID.TID 0000.0001) // =======================================================
 EXTERNAL_FIELDS_LOAD,        26 : iP,iLd,i0,i1=    1    2    1    2 ; Wght=  0.6333333333  0.3666666667
 EXTERNAL_FIELDS_LOAD: (fu0,1),fu,fv= -3.5633E-02 -1.4435E-02 -2.7860E-02 -4.2729E-02
 EXTERNAL_FIELDS_LOAD: SST,SSS,Q,E-P=  4.1199E-01  3.4607E+01  2.5650E+02  1.0441E-05
DEBUG_STATS_RL:          Uvel (THERMODYNAMICS)  min= -1.74686942055848E-01
DEBUG_STATS_RL:          Uvel (THERMODYNAMICS)  max=  1.72084608371317E-01
DEBUG_STATS_RL:          Uvel (THERMODYNAMICS) mean=  2.06484314726984E-03
DEBUG_STATS_RL:          Uvel (THERMODYNAMICS) S.D.=  2.60911654085488E-02
DEBUG_STATS_RL:          Vvel (THERMODYNAMICS)  min= -1.46112925718403E-01
DEBUG_STATS_RL:          Vvel (THERMODYNAMICS)  max=  1.30612531823210E-01
DEBUG_STATS_RL:          Vvel (THERMODYNAMICS) mean=  1.51371508687435E-03
DEBUG_STATS_RL:          Vvel (THERMODYNAMICS) S.D.=  1.82919361243725E-02
DEBUG_STATS_RL:          Wvel (THERMODYNAMICS)  min= -2.30872940487765E-04
DEBUG_STATS_RL:          Wvel (THERMODYNAMICS)  max=  1.82457968983097E-04
DEBUG_STATS_RL:          Wvel (THERMODYNAMICS) mean=  2.15809925792827E-07
DEBUG_STATS_RL:          Wvel (THERMODYNAMICS) S.D.=  1.90792344664637E-05
DEBUG_STATS_RL:         Theta (THERMODYNAMICS)  min= -2.00809303407219E+00
DEBUG_STATS_RL:         Theta (THERMODYNAMICS)  max=  3.00509857067492E+01
DEBUG_STATS_RL:         Theta (THERMODYNAMICS) mean=  3.23835912699476E+00
DEBUG_STATS_RL:         Theta (THERMODYNAMICS) S.D.=  5.85775325224649E+00
DEBUG_STATS_RL:          Salt (THERMODYNAMICS)  min=  3.00000000000000E-02
DEBUG_STATS_RL:          Salt (THERMODYNAMICS)  max=  3.74757342338542E+01
DEBUG_STATS_RL:          Salt (THERMODYNAMICS) mean=  1.88749866699228E+01
DEBUG_STATS_RL:          Salt (THERMODYNAMICS) S.D.=  1.73004842122157E+01
DEBUG_STATS_RL:         GtNm1 (THERMODYNAMICS)  min= -3.32984196867709E-06
DEBUG_STATS_RL:         GtNm1 (THERMODYNAMICS)  max=  2.60523477057942E-06
DEBUG_STATS_RL:         GtNm1 (THERMODYNAMICS) mean=  8.39607591013923E-10
DEBUG_STATS_RL:         GtNm1 (THERMODYNAMICS) S.D.=  2.40934347839474E-07
DEBUG_STATS_RL:         GsNm1 (THERMODYNAMICS)  min= -6.30971918808630E-07
DEBUG_STATS_RL:         GsNm1 (THERMODYNAMICS)  max=  5.36113449037647E-07
DEBUG_STATS_RL:         GsNm1 (THERMODYNAMICS) mean= -6.40128374171592E-10
DEBUG_STATS_RL:         GsNm1 (THERMODYNAMICS) S.D.=  2.28420217378376E-08
DEBUG_STATS_RL:                EtaN (DYNAMICS)  min= -2.28701387451441E+00
DEBUG_STATS_RL:                EtaN (DYNAMICS)  max=  1.38124234590969E+00
DEBUG_STATS_RL:                EtaN (DYNAMICS) mean= -1.36619324012124E-01
DEBUG_STATS_RL:                EtaN (DYNAMICS) S.D.=  7.50787139385429E-01
DEBUG_STATS_RL:                Uvel (DYNAMICS)  min= -1.74686942055848E-01
DEBUG_STATS_RL:                Uvel (DYNAMICS)  max=  1.72084608371317E-01
DEBUG_STATS_RL:                Uvel (DYNAMICS) mean=  2.06484314726984E-03
DEBUG_STATS_RL:                Uvel (DYNAMICS) S.D.=  2.60911654085488E-02
DEBUG_STATS_RL:                Vvel (DYNAMICS)  min= -1.46112925718403E-01
DEBUG_STATS_RL:                Vvel (DYNAMICS)  max=  1.30612531823210E-01
DEBUG_STATS_RL:                Vvel (DYNAMICS) mean=  1.51371508687435E-03
DEBUG_STATS_RL:                Vvel (DYNAMICS) S.D.=  1.82919361243725E-02
DEBUG_STATS_RL:                Wvel (DYNAMICS)  min= -2.30872940487765E-04
DEBUG_STATS_RL:                Wvel (DYNAMICS)  max=  1.82457968983097E-04
DEBUG_STATS_RL:                Wvel (DYNAMICS) mean=  2.15809925792827E-07
DEBUG_STATS_RL:                Wvel (DYNAMICS) S.D.=  1.90792344664637E-05
DEBUG_STATS_RL:               Theta (DYNAMICS)  min= -2.00809303407219E+00
DEBUG_STATS_RL:               Theta (DYNAMICS)  max=  3.00509857067492E+01
DEBUG_STATS_RL:               Theta (DYNAMICS) mean=  3.23835912699476E+00
DEBUG_STATS_RL:               Theta (DYNAMICS) S.D.=  5.85775325224649E+00
DEBUG_STATS_RL:                Salt (DYNAMICS)  min=  3.00000000000000E-02
DEBUG_STATS_RL:                Salt (DYNAMICS)  max=  3.74757342338542E+01
DEBUG_STATS_RL:                Salt (DYNAMICS) mean=  1.88749866699228E+01
DEBUG_STATS_RL:                Salt (DYNAMICS) S.D.=  1.73004842122157E+01
DEBUG_STATS_RL:                  Gu (DYNAMICS)  min= -1.80572739551153E-01
DEBUG_STATS_RL:                  Gu (DYNAMICS)  max=  1.82258503331786E-01
DEBUG_STATS_RL:                  Gu (DYNAMICS) mean=  3.09480480141496E-03
DEBUG_STATS_RL:                  Gu (DYNAMICS) S.D.=  2.73865368845728E-02
DEBUG_STATS_RL:                  Gv (DYNAMICS)  min= -1.37692901872118E-01
DEBUG_STATS_RL:                  Gv (DYNAMICS)  max=  1.29302598572893E-01
DEBUG_STATS_RL:                  Gv (DYNAMICS) mean=  3.69110403483527E-03
DEBUG_STATS_RL:                  Gv (DYNAMICS) S.D.=  1.90358244216133E-02
DEBUG_STATS_RL:               GuNm1 (DYNAMICS)  min= -7.83222461078131E-06
DEBUG_STATS_RL:               GuNm1 (DYNAMICS)  max=  8.07249490660724E-06
DEBUG_STATS_RL:               GuNm1 (DYNAMICS) mean= -8.28775056775356E-09
DEBUG_STATS_RL:               GuNm1 (DYNAMICS) S.D.=  1.21402928059402E-06
DEBUG_STATS_RL:               GvNm1 (DYNAMICS)  min= -1.04290085191967E-05
DEBUG_STATS_RL:               GvNm1 (DYNAMICS)  max=  1.69283466172821E-05
DEBUG_STATS_RL:               GvNm1 (DYNAMICS) mean=  7.76843394479404E-07
DEBUG_STATS_RL:               GvNm1 (DYNAMICS) S.D.=  2.66097053675280E-06
DEBUG_STATS_RL:               GtNm1 (DYNAMICS)  min= -3.32984196867709E-06
DEBUG_STATS_RL:               GtNm1 (DYNAMICS)  max=  2.60523477057942E-06
DEBUG_STATS_RL:               GtNm1 (DYNAMICS) mean=  8.39607591013923E-10
DEBUG_STATS_RL:               GtNm1 (DYNAMICS) S.D.=  2.40934347839474E-07
DEBUG_STATS_RL:               GsNm1 (DYNAMICS)  min= -6.30971918808630E-07
DEBUG_STATS_RL:               GsNm1 (DYNAMICS)  max=  5.36113449037647E-07
DEBUG_STATS_RL:               GsNm1 (DYNAMICS) mean= -6.40128374171592E-10
DEBUG_STATS_RL:               GsNm1 (DYNAMICS) S.D.=  2.28420217378376E-08
DEBUG_STATS_RL:    cg2d_b (SOLVE_FOR_PRESSURE)  min= -2.37044053585974E+04
DEBUG_STATS_RL:    cg2d_b (SOLVE_FOR_PRESSURE)  max=  2.30690946923059E+04
DEBUG_STATS_RL:    cg2d_b (SOLVE_FOR_PRESSURE) mean=  1.90354397717734E+00
DEBUG_STATS_RL:    cg2d_b (SOLVE_FOR_PRESSURE) S.D.=  4.08091046848752E+03
 cg2d: Sum(rhs),rhsMax =   1.85902335051236E-01  1.55696881073707E+00
(PID.TID 0000.0001)  cg2d: iter=     1 ; resid.=  3.80565116887027E-01
(PID.TID 0000.0001)  cg2d: iter=     2 ; resid.=  3.16072230343557E-01
(PID.TID 0000.0001)  cg2d: iter=     3 ; resid.=  2.77864036986984E-01
(PID.TID 0000.0001)  cg2d: iter=     4 ; resid.=  2.28359005124202E-01
(PID.TID 0000.0001)  cg2d: iter=     5 ; resid.=  1.69728471496308E-01
(PID.TID 0000.0001)  cg2d: iter=     6 ; resid.=  1.30622591463527E-01
(PID.TID 0000.0001)  cg2d: iter=     7 ; resid.=  1.08634723328406E-01
(PID.TID 0000.0001)  cg2d: iter=     8 ; resid.=  9.77817393366375E-02
(PID.TID 0000.0001)  cg2d: iter=     9 ; resid.=  8.15656322422205E-02
(PID.TID 0000.0001)  cg2d: iter=    10 ; resid.=  7.81049831953711E-02
(PID.TID 0000.0001)  cg2d: iter=    11 ; resid.=  7.40543696736451E-02
(PID.TID 0000.0001)  cg2d: iter=    12 ; resid.=  6.37667035133871E-02
(PID.TID 0000.0001)  cg2d: iter=    13 ; resid.=  5.26156668091759E-02
(PID.TID 0000.0001)  cg2d: iter=    14 ; resid.=  4.17467624790462E-02
(PID.TID 0000.0001)  cg2d: iter=    15 ; resid.=  3.36578879987804E-02
(PID.TID 0000.0001)  cg2d: iter=    16 ; resid.=  2.89922052152127E-02
(PID.TID 0000.0001)  cg2d: iter=    17 ; resid.=  2.46336383918655E-02
(PID.TID 0000.0001)  cg2d: iter=    18 ; resid.=  1.93469238470048E-02
(PID.TID 0000.0001)  cg2d: iter=    19 ; resid.=  1.51933926614591E-02
(PID.TID 0000.0001)  cg2d: iter=    20 ; resid.=  1.21710804544025E-02
(PID.TID 0000.0001)  cg2d: iter=    21 ; resid.=  1.00059019232398E-02
(PID.TID 0000.0001)  cg2d: iter=    22 ; resid.=  8.13552575447569E-03
(PID.TID 0000.0001)  cg2d: iter=    23 ; resid.=  6.60734709269254E-03
(PID.TID 0000.0001)  cg2d: iter=    24 ; resid.=  5.33750039919551E-03
(PID.TID 0000.0001)  cg2d: iter=    25 ; resid.=  3.82359361617579E-03
(PID.TID 0000.0001)  cg2d: iter=    26 ; resid.=  3.08321284000277E-03
(PID.TID 0000.0001)  cg2d: iter=    27 ; resid.=  2.59135684789010E-03
(PID.TID 0000.0001)  cg2d: iter=    28 ; resid.=  2.03472077204401E-03
(PID.TID 0000.0001)  cg2d: iter=    29 ; resid.=  1.54237233997183E-03
(PID.TID 0000.0001)  cg2d: iter=    30 ; resid.=  1.28248522033427E-03
(PID.TID 0000.0001)  cg2d: iter=    31 ; resid.=  1.08154914123597E-03
(PID.TID 0000.0001)  cg2d: iter=    32 ; resid.=  8.93280475716844E-04
(PID.TID 0000.0001)  cg2d: iter=    33 ; resid.=  7.54529347777629E-04
(PID.TID 0000.0001)  cg2d: iter=    34 ; resid.=  6.66283931038109E-04
(PID.TID 0000.0001)  cg2d: iter=    35 ; resid.=  5.43532769665687E-04
(PID.TID 0000.0001)  cg2d: iter=    36 ; resid.=  4.50852723708126E-04
(PID.TID 0000.0001)  cg2d: iter=    37 ; resid.=  3.99519100877146E-04
(PID.TID 0000.0001)  cg2d: iter=    38 ; resid.=  3.38578122217376E-04
(PID.TID 0000.0001)  cg2d: iter=    39 ; resid.=  2.57428119865440E-04
(PID.TID 0000.0001)  cg2d: iter=    40 ; resid.=  2.05140386899267E-04
(PID.TID 0000.0001)  cg2d: iter=    41 ; resid.=  1.62552190797179E-04
(PID.TID 0000.0001)  cg2d: iter=    42 ; resid.=  1.32388467942038E-04
(PID.TID 0000.0001)  cg2d: iter=    43 ; resid.=  1.08454207091662E-04
(PID.TID 0000.0001)  cg2d: iter=    44 ; resid.=  9.32435158317437E-05
(PID.TID 0000.0001)  cg2d: iter=    45 ; resid.=  8.24731132993055E-05
(PID.TID 0000.0001)  cg2d: iter=    46 ; resid.=  6.88333557284067E-05
(PID.TID 0000.0001)  cg2d: iter=    47 ; resid.=  6.67796856467056E-05
(PID.TID 0000.0001)  cg2d: iter=    48 ; resid.=  5.97670633199880E-05
(PID.TID 0000.0001)  cg2d: iter=    49 ; resid.=  5.01591858888661E-05
(PID.TID 0000.0001)  cg2d: iter=    50 ; resid.=  4.07524833718997E-05
(PID.TID 0000.0001)  cg2d: iter=    51 ; resid.=  3.48516633501971E-05
(PID.TID 0000.0001)  cg2d: iter=    52 ; resid.=  2.97040402864829E-05
(PID.TID 0000.0001)  cg2d: iter=    53 ; resid.=  2.57630782043790E-05
(PID.TID 0000.0001)  cg2d: iter=    54 ; resid.=  2.01153420208250E-05
(PID.TID 0000.0001)  cg2d: iter=    55 ; resid.=  1.75796662581450E-05
(PID.TID 0000.0001)  cg2d: iter=    56 ; resid.=  1.53928563830300E-05
(PID.TID 0000.0001)  cg2d: iter=    57 ; resid.=  1.26229127752275E-05
(PID.TID 0000.0001)  cg2d: iter=    58 ; resid.=  1.00117229962556E-05
(PID.TID 0000.0001)  cg2d: iter=    59 ; resid.=  7.69502347018240E-06
(PID.TID 0000.0001)  cg2d: iter=    60 ; resid.=  5.99537800653421E-06
(PID.TID 0000.0001)  cg2d: iter=    61 ; resid.=  4.74966454284076E-06
(PID.TID 0000.0001)  cg2d: iter=    62 ; resid.=  3.89172267075853E-06
(PID.TID 0000.0001)  cg2d: iter=    63 ; resid.=  2.97320525702545E-06
(PID.TID 0000.0001)  cg2d: iter=    64 ; resid.=  2.32552254560011E-06
(PID.TID 0000.0001)  cg2d: iter=    65 ; resid.=  1.69386434999980E-06
(PID.TID 0000.0001)  cg2d: iter=    66 ; resid.=  1.21312734419411E-06
(PID.TID 0000.0001)  cg2d: iter=    67 ; resid.=  9.64170332286977E-07
(PID.TID 0000.0001)  cg2d: iter=    68 ; resid.=  7.50200029343915E-07
(PID.TID 0000.0001)  cg2d: iter=    69 ; resid.=  5.93813018606942E-07
(PID.TID 0000.0001)  cg2d: iter=    70 ; resid.=  5.15925214538309E-07
(PID.TID 0000.0001)  cg2d: iter=    71 ; resid.=  4.24895213770795E-07
(PID.TID 0000.0001)  cg2d: iter=    72 ; resid.=  3.85627832316582E-07
(PID.TID 0000.0001)  cg2d: iter=    73 ; resid.=  3.75026289908454E-07
(PID.TID 0000.0001)  cg2d: iter=    74 ; resid.=  3.40887115773210E-07
(PID.TID 0000.0001)  cg2d: iter=    75 ; resid.=  2.59591208685415E-07
(PID.TID 0000.0001)  cg2d: iter=    76 ; resid.=  2.18800265865729E-07
(PID.TID 0000.0001)  cg2d: iter=    77 ; resid.=  1.73569338692069E-07
(PID.TID 0000.0001)  cg2d: iter=    78 ; resid.=  1.32301545380715E-07
(PID.TID 0000.0001)  cg2d: iter=    79 ; resid.=  1.10112800498030E-07
(PID.TID 0000.0001)  cg2d: iter=    80 ; resid.=  8.15124758916633E-08
(PID.TID 0000.0001)  cg2d: iter=    81 ; resid.=  7.15819905930445E-08
(PID.TID 0000.0001)  cg2d: iter=    82 ; resid.=  5.86933146298490E-08
(PID.TID 0000.0001)  cg2d: iter=    83 ; resid.=  4.66187555122073E-08
(PID.TID 0000.0001)  cg2d: iter=    84 ; resid.=  3.58820093623321E-08
(PID.TID 0000.0001)  cg2d: iter=    85 ; resid.=  2.64856030754881E-08
(PID.TID 0000.0001)  cg2d: iter=    86 ; resid.=  1.94655619403041E-08
(PID.TID 0000.0001)  cg2d: iter=    87 ; resid.=  1.47401029453368E-08
(PID.TID 0000.0001)  cg2d: iter=    88 ; resid.=  1.21799385165988E-08
(PID.TID 0000.0001)  cg2d: iter=    89 ; resid.=  1.08991649160036E-08
(PID.TID 0000.0001)  cg2d: iter=    90 ; resid.=  9.50541903434785E-09
(PID.TID 0000.0001)  cg2d: iter=    91 ; resid.=  8.23685022038797E-09
(PID.TID 0000.0001)  cg2d: iter=    92 ; resid.=  6.54228897458993E-09
(PID.TID 0000.0001)  cg2d: iter=    93 ; resid.=  5.14688716556865E-09
(PID.TID 0000.0001)  cg2d: iter=    94 ; resid.=  4.02083027065629E-09
(PID.TID 0000.0001)  cg2d: iter=    95 ; resid.=  3.53665034991923E-09
(PID.TID 0000.0001)  cg2d: iter=    96 ; resid.=  2.77616730395280E-09
(PID.TID 0000.0001)  cg2d: iter=    97 ; resid.=  2.22880623138604E-09
(PID.TID 0000.0001)  cg2d: iter=    98 ; resid.=  1.78645408742029E-09
(PID.TID 0000.0001)  cg2d: iter=    99 ; resid.=  1.49000167707459E-09
(PID.TID 0000.0001)  cg2d: iter=   100 ; resid.=  1.19298090998736E-09
(PID.TID 0000.0001)  cg2d: iter=   101 ; resid.=  9.29889653998495E-10
(PID.TID 0000.0001)  cg2d: iter=   102 ; resid.=  7.33143996550711E-10
(PID.TID 0000.0001)  cg2d: iter=   103 ; resid.=  5.32774697380187E-10
(PID.TID 0000.0001)  cg2d: iter=   104 ; resid.=  3.88232852505243E-10
(PID.TID 0000.0001)  cg2d: iter=   105 ; resid.=  2.77381560633739E-10
(PID.TID 0000.0001)  cg2d: iter=   106 ; resid.=  2.22644107261788E-10
(PID.TID 0000.0001)  cg2d: iter=   107 ; resid.=  1.88088995103661E-10
(PID.TID 0000.0001)  cg2d: iter=   108 ; resid.=  1.60329088854908E-10
(PID.TID 0000.0001)  cg2d: iter=   109 ; resid.=  1.38613521978590E-10
(PID.TID 0000.0001)  cg2d: iter=   110 ; resid.=  1.13556056067032E-10
(PID.TID 0000.0001)  cg2d: iter=   111 ; resid.=  9.22035076373334E-11
(PID.TID 0000.0001)  cg2d: iter=   112 ; resid.=  7.97925294835489E-11
(PID.TID 0000.0001)  cg2d: iter=   113 ; resid.=  6.20291347324070E-11
(PID.TID 0000.0001)  cg2d: iter=   114 ; resid.=  4.79385927947203E-11
(PID.TID 0000.0001)  cg2d: iter=   115 ; resid.=  3.34069207954103E-11
(PID.TID 0000.0001)  cg2d: iter=   116 ; resid.=  2.51112735012955E-11
(PID.TID 0000.0001)  cg2d: iter=   117 ; resid.=  1.91127538053511E-11
(PID.TID 0000.0001)  cg2d: iter=   118 ; resid.=  1.40227059528815E-11
(PID.TID 0000.0001)  cg2d: iter=   119 ; resid.=  1.16301430564541E-11
(PID.TID 0000.0001)  cg2d: iter=   120 ; resid.=  8.93416881549544E-12
(PID.TID 0000.0001)  cg2d: iter=   121 ; resid.=  6.75139750662147E-12
(PID.TID 0000.0001)  cg2d: iter=   122 ; resid.=  5.21392348633864E-12
(PID.TID 0000.0001)  cg2d: iter=   123 ; resid.=  4.14053291502811E-12
(PID.TID 0000.0001)  cg2d: iter=   124 ; resid.=  3.54713151630507E-12
(PID.TID 0000.0001)  cg2d: iter=   125 ; resid.=  2.89414301199587E-12
(PID.TID 0000.0001)  cg2d: iter=   126 ; resid.=  2.11887125705103E-12
(PID.TID 0000.0001)  cg2d: iter=   127 ; resid.=  1.51715992578577E-12
(PID.TID 0000.0001)  cg2d: iter=   128 ; resid.=  1.11062822522283E-12
(PID.TID 0000.0001)  cg2d: iter=   129 ; resid.=  8.73298525084971E-13
(PID.TID 0000.0001)  cg2d: iter=   130 ; resid.=  6.74485621867907E-13
(PID.TID 0000.0001)  cg2d: iter=   131 ; resid.=  4.85894357805731E-13
(PID.TID 0000.0001)  cg2d: iter=   132 ; resid.=  3.13695331703994E-13
(PID.TID 0000.0001)  cg2d: iter=   133 ; resid.=  2.36502979013878E-13
(PID.TID 0000.0001)  cg2d: iter=   134 ; resid.=  1.67620791713488E-13
(PID.TID 0000.0001)  cg2d: iter=   135 ; resid.=  1.28717670260460E-13
(PID.TID 0000.0001)  cg2d: iter=   136 ; resid.=  9.01883766128805E-14
DEBUG_STATS_RL:    cg2d_x (SOLVE_FOR_PRESSURE)  min= -2.23147637647450E+01
DEBUG_STATS_RL:    cg2d_x (SOLVE_FOR_PRESSURE)  max=  1.35683407354543E+01
DEBUG_STATS_RL:    cg2d_x (SOLVE_FOR_PRESSURE) mean= -1.33871123459871E+00
DEBUG_STATS_RL:    cg2d_x (SOLVE_FOR_PRESSURE) S.D.=  7.36518252810547E+00
(PID.TID 0000.0001)      cg2d_init_res =   5.73105045672985E-01
(PID.TID 0000.0001)      cg2d_iters(min,last) =      -1     136
(PID.TID 0000.0001)      cg2d_last_res =   9.01883766128805E-14
(PID.TID 0000.0001) // =======================================================
(PID.TID 0000.0001) // Begin MONITOR dynamic field statistics
(PID.TID 0000.0001) // =======================================================
(PID.TID 0000.0001) %MON time_tsnumber                =                    27
(PID.TID 0000.0001) %MON time_secondsf                =   2.3328000000000E+06
(PID.TID 0000.0001) %MON dynstat_eta_max              =   1.3831132248170E+00
(PID.TID 0000.0001) %MON dynstat_eta_min              =  -2.2746955927365E+00
(PID.TID 0000.0001) %MON dynstat_eta_mean             =  -1.9861121085231E-03
(PID.TID 0000.0001) %MON dynstat_eta_sd               =   6.3633719525195E-01
(PID.TID 0000.0001) %MON dynstat_eta_del2             =   2.1828124310370E-03
(PID.TID 0000.0001) %MON dynstat_uvel_max             =   1.9097822998337E-01
(PID.TID 0000.0001) %MON dynstat_uvel_min             =  -1.7911192446323E-01
(PID.TID 0000.0001) %MON dynstat_uvel_mean            =   6.8167470417341E-04
(PID.TID 0000.0001) %MON dynstat_uvel_sd              =   2.2007996826677E-02
(PID.TID 0000.0001) %MON dynstat_uvel_del2            =   1.1143224297650E-04
(PID.TID 0000.0001) %MON dynstat_vvel_max             =   1.3076690531301E-01
(PID.TID 0000.0001) %MON dynstat_vvel_min             =  -1.4114494254792E-01
(PID.TID 0000.0001) %MON dynstat_vvel_mean            =   1.9372617866578E-04
(PID.TID 0000.0001) %MON dynstat_vvel_sd              =   1.2875177203825E-02
(PID.TID 0000.0001) %MON dynstat_vvel_del2            =   9.9015629295018E-05
(PID.TID 0000.0001) %MON dynstat_wvel_max             =   1.8932226190645E-04
(PID.TID 0000.0001) %MON dynstat_wvel_min             =  -2.6119249779237E-04
(PID.TID 0000.0001) %MON dynstat_wvel_mean            =   2.1354275204328E-22
(PID.TID 0000.0001) %MON dynstat_wvel_sd              =   2.1033577148363E-05
(PID.TID 0000.0001) %MON dynstat_wvel_del2            =   2.2498586751298E-07
(PID.TID 0000.0001) %MON dynstat_theta_max            =   3.0050985706749E+01
(PID.TID 0000.0001) %MON dynstat_theta_min            =  -2.0080930340722E+00
(PID.TID 0000.0001) %MON dynstat_theta_mean           =   3.6507213150018E+00
(PID.TID 0000.0001) %MON dynstat_theta_sd             =   4.4170018519722E+00
(PID.TID 0000.0001) %MON dynstat_theta_del2           =   4.8960320042719E-03
(PID.TID 0000.0001) %MON dynstat_salt_max             =   3.7475734233854E+01
(PID.TID 0000.0001) %MON dynstat_salt_min             =   2.9859942108842E+01
(PID.TID 0000.0001) %MON dynstat_salt_mean            =   3.4747922324958E+01
(PID.TID 0000.0001) %MON dynstat_salt_sd              =   2.9612522274559E-01
(PID.TID 0000.0001) %MON dynstat_salt_del2            =   1.0030533548726E-03
(PID.TID 0000.0001) %MON dynstat_sst_max              =   3.0050985706749E+01
(PID.TID 0000.0001) %MON dynstat_sst_min              =  -2.0080930340722E+00
(PID.TID 0000.0001) %MON dynstat_sst_mean             =   1.8745294818640E+01
(PID.TID 0000.0001) %MON dynstat_sst_sd               =   9.0571478843537E+00
(PID.TID 0000.0001) %MON dynstat_sst_del2             =   2.6533810027420E-02
(PID.TID 0000.0001) %MON dynstat_sss_max              =   3.7459480455264E+01
(PID.TID 0000.0001) %MON dynstat_sss_min              =   2.9859942108842E+01
(PID.TID 0000.0001) %MON dynstat_sss_mean             =   3.4878446599725E+01
(PID.TID 0000.0001) %MON dynstat_sss_sd               =   9.7433961615472E-01
(PID.TID 0000.0001) %MON dynstat_sss_del2             =   7.9010189517561E-03
(PID.TID 0000.0001) %MON forcing_qnet_max             =   4.0510366312663E+02
(PID.TID 0000.0001) %MON forcing_qnet_min             =  -1.7738483479818E+02
(PID.TID 0000.0001) %MON forcing_qnet_mean            =  -1.5578525159607E+01
(PID.TID 0000.0001) %MON forcing_qnet_sd              =   9.8219108614254E+01
(PID.TID 0000.0001) %MON forcing_qnet_del2            =   9.8437596337033E-01
(PID.TID 0000.0001) %MON forcing_qsw_max              =   0.0000000000000E+00
(PID.TID 0000.0001) %MON forcing_qsw_min              =   0.0000000000000E+00
(PID.TID 0000.0001) %MON forcing_qsw_mean             =   0.0000000000000E+00
(PID.TID 0000.0001) %MON forcing_qsw_sd               =   0.0000000000000E+00
(PID.TID 0000.0001) %MON forcing_qsw_del2             =   0.0000000000000E+00
(PID.TID 0000.0001) %MON forcing_empmr_max            =   7.8719251916937E-05
(PID.TID 0000.0001) %MON forcing_empmr_min            =  -7.7032043085031E-05
(PID.TID 0000.0001) %MON forcing_empmr_mean           =   9.3044343197016E-07
(PID.TID 0000.0001) %MON forcing_empmr_sd             =   2.8310676615472E-05
(PID.TID 0000.0001) %MON forcing_empmr_del2           =   3.5708477950409E-07
(PID.TID 0000.0001) %MON forcing_fu_max               =   2.7827952206135E-01
(PID.TID 0000.0001) %MON forcing_fu_min               =  -1.8419379889965E-01
(PID.TID 0000.0001) %MON forcing_fu_mean              =   1.6599037522725E-02
(PID.TID 0000.0001) %MON forcing_fu_sd                =   8.9963961949749E-02
(PID.TID 0000.0001) %MON forcing_fu_del2              =   6.7044165395875E-04
(PID.TID 0000.0001) %MON forcing_fv_max               =   1.9782840361198E-01
(PID.TID 0000.0001) %MON forcing_fv_min               =  -1.6723260283470E-01
(PID.TID 0000.0001) %MON forcing_fv_mean              =  -5.9767677133721E-03
(PID.TID 0000.0001) %MON forcing_fv_sd                =   4.5481939075567E-02
(PID.TID 0000.0001) %MON forcing_fv_del2              =   4.6378982619852E-04
(PID.TID 0000.0001) %MON trAdv_CFL_u_max              =   5.6891645220773E-02
(PID.TID 0000.0001) %MON trAdv_CFL_v_max              =   2.7483650649307E-02
(PID.TID 0000.0001) %MON trAdv_CFL_w_max              =   7.9957107544523E-02
(PID.TID 0000.0001) %MON advcfl_uvel_max              =   6.3125107372958E-02
(PID.TID 0000.0001) %MON advcfl_vvel_max              =   2.7422198644336E-02
(PID.TID 0000.0001) %MON advcfl_wvel_max              =   9.0515200847317E-02
(PID.TID 0000.0001) %MON advcfl_W_hf_max              =   1.0667862957005E-01
(PID.TID 0000.0001) %MON pe_b_mean                    =   5.1815542524886E-04
(PID.TID 0000.0001) %MON ke_max                       =   1.6909681667886E-02
(PID.TID 0000.0001) %MON ke_mean                      =   2.9469787329462E-04
(PID.TID 0000.0001) %MON ke_vol                       =   1.3226782436723E+18
(PID.TID 0000.0001) %MON vort_r_min                   =  -6.8429550662082E-07
(PID.TID 0000.0001) %MON vort_r_max                   =   4.6110991339002E-07
(PID.TID 0000.0001) %MON vort_a_mean                  =  -2.5274807188315E-05
(PID.TID 0000.0001) %MON vort_a_sd                    =   7.3604315118247E-05
(PID.TID 0000.0001) %MON vort_p_mean                  =  -3.1845655535966E-05
(PID.TID 0000.0001) %MON vort_p_sd                    =   1.3162847888301E-04
(PID.TID 0000.0001) %MON surfExpan_theta_mean         =  -3.3014848100961E-07
(PID.TID 0000.0001) %MON surfExpan_salt_mean          =  -1.2598722304389E-07
(PID.TID 0000.0001) // =======================================================
(PID.TID 0000.0001) // End MONITOR dynamic field statistics
(PID.TID 0000.0001) // =======================================================
 EXTERNAL_FIELDS_LOAD,        27 : iP,iLd,i0,i1=    1    2    1    2 ; Wght=  0.6000000000  0.4000000000
 EXTERNAL_FIELDS_LOAD: (fu0,1),fu,fv= -3.5633E-02 -1.4435E-02 -2.7154E-02 -4.1408E-02
 EXTERNAL_FIELDS_LOAD: SST,SSS,Q,E-P=  3.6231E-01  3.4597E+01  2.5565E+02  1.0333E-05
DEBUG_STATS_RL:          Uvel (THERMODYNAMICS)  min= -1.79111924463231E-01
DEBUG_STATS_RL:          Uvel (THERMODYNAMICS)  max=  1.90978229983375E-01
DEBUG_STATS_RL:          Uvel (THERMODYNAMICS) mean=  2.96474331537511E-03
DEBUG_STATS_RL:          Uvel (THERMODYNAMICS) S.D.=  2.67476926525040E-02
DEBUG_STATS_RL:          Vvel (THERMODYNAMICS)  min= -1.41144942547917E-01
DEBUG_STATS_RL:          Vvel (THERMODYNAMICS)  max=  1.30766905313013E-01
DEBUG_STATS_RL:          Vvel (THERMODYNAMICS) mean=  1.18691474063035E-03
DEBUG_STATS_RL:          Vvel (THERMODYNAMICS) S.D.=  1.78208350043006E-02
DEBUG_STATS_RL:          Wvel (THERMODYNAMICS)  min= -2.61192497792366E-04
DEBUG_STATS_RL:          Wvel (THERMODYNAMICS)  max=  1.89322261906446E-04
DEBUG_STATS_RL:          Wvel (THERMODYNAMICS) mean=  1.46625745560218E-07
DEBUG_STATS_RL:          Wvel (THERMODYNAMICS) S.D.=  1.90297186768107E-05
DEBUG_STATS_RL:         Theta (THERMODYNAMICS)  min= -2.00736930920884E+00
DEBUG_STATS_RL:         Theta (THERMODYNAMICS)  max=  3.01122509991004E+01
DEBUG_STATS_RL:         Theta (THERMODYNAMICS) mean=  3.23844510130817E+00
DEBUG_STATS_RL:         Theta (THERMODYNAMICS) S.D.=  5.85789690242410E+00
DEBUG_STATS_RL:          Salt (THERMODYNAMICS)  min=  3.00000000000000E-02
DEBUG_STATS_RL:          Salt (THERMODYNAMICS)  max=  3.74768884392293E+01
DEBUG_STATS_RL:          Salt (THERMODYNAMICS) mean=  1.88749612138805E+01
DEBUG_STATS_RL:          Salt (THERMODYNAMICS) S.D.=  1.73004611533228E+01
DEBUG_STATS_RL:         GtNm1 (THERMODYNAMICS)  min= -3.45893003911884E-06
DEBUG_STATS_RL:         GtNm1 (THERMODYNAMICS)  max=  2.57056056755133E-06
DEBUG_STATS_RL:         GtNm1 (THERMODYNAMICS) mean=  1.62624414006407E-09
DEBUG_STATS_RL:         GtNm1 (THERMODYNAMICS) S.D.=  2.38401239967662E-07
DEBUG_STATS_RL:         GsNm1 (THERMODYNAMICS)  min= -6.70099679777839E-07
DEBUG_STATS_RL:         GsNm1 (THERMODYNAMICS)  max=  5.53051394745988E-07
DEBUG_STATS_RL:         GsNm1 (THERMODYNAMICS) mean= -6.28875328079005E-10
DEBUG_STATS_RL:         GsNm1 (THERMODYNAMICS) S.D.=  2.26234264800989E-08
DEBUG_STATS_RL:                EtaN (DYNAMICS)  min= -2.27469559273646E+00
DEBUG_STATS_RL:                EtaN (DYNAMICS)  max=  1.38311322481697E+00
DEBUG_STATS_RL:                EtaN (DYNAMICS) mean= -1.36463938287331E-01
DEBUG_STATS_RL:                EtaN (DYNAMICS) S.D.=  7.50783132324715E-01
DEBUG_STATS_RL:                Uvel (DYNAMICS)  min= -1.79111924463231E-01
DEBUG_STATS_RL:                Uvel (DYNAMICS)  max=  1.90978229983375E-01
DEBUG_STATS_RL:                Uvel (DYNAMICS) mean=  2.96474331537511E-03
DEBUG_STATS_RL:                Uvel (DYNAMICS) S.D.=  2.67476926525040E-02
DEBUG_STATS_RL:                Vvel (DYNAMICS)  min= -1.41144942547917E-01
DEBUG_STATS_RL:                Vvel (DYNAMICS)  max=  1.30766905313013E-01
DEBUG_STATS_RL:                Vvel (DYNAMICS) mean=  1.18691474063035E-03
DEBUG_STATS_RL:                Vvel (DYNAMICS) S.D.=  1.78208350043006E-02
DEBUG_STATS_RL:                Wvel (DYNAMICS)  min= -2.61192497792366E-04
DEBUG_STATS_RL:                Wvel (DYNAMICS)  max=  1.89322261906446E-04
DEBUG_STATS_RL:                Wvel (DYNAMICS) mean=  1.46625745560218E-07
DEBUG_STATS_RL:                Wvel (DYNAMICS) S.D.=  1.90297186768107E-05
DEBUG_STATS_RL:               Theta (DYNAMICS)  min= -2.00736930920884E+00
DEBUG_STATS_RL:               Theta (DYNAMICS)  max=  3.01122509991004E+01
DEBUG_STATS_RL:               Theta (DYNAMICS) mean=  3.23844510130817E+00
DEBUG_STATS_RL:               Theta (DYNAMICS) S.D.=  5.85789690242410E+00
DEBUG_STATS_RL:                Salt (DYNAMICS)  min=  3.00000000000000E-02
DEBUG_STATS_RL:                Salt (DYNAMICS)  max=  3.74768884392293E+01
DEBUG_STATS_RL:                Salt (DYNAMICS) mean=  1.88749612138805E+01
DEBUG_STATS_RL:                Salt (DYNAMICS) S.D.=  1.73004611533228E+01
DEBUG_STATS_RL:                  Gu (DYNAMICS)  min= -1.84272137204024E-01
DEBUG_STATS_RL:                  Gu (DYNAMICS)  max=  1.96751324865884E-01
DEBUG_STATS_RL:                  Gu (DYNAMICS) mean=  3.94421385820374E-03
DEBUG_STATS_RL:                  Gu (DYNAMICS) S.D.=  2.80411992060618E-02
DEBUG_STATS_RL:                  Gv (DYNAMICS)  min= -1.34137920042730E-01
DEBUG_STATS_RL:                  Gv (DYNAMICS)  max=  1.22949051157274E-01
DEBUG_STATS_RL:                  Gv (DYNAMICS) mean=  3.43446995317329E-03
DEBUG_STATS_RL:                  Gv (DYNAMICS) S.D.=  1.84447567038788E-02
DEBUG_STATS_RL:               GuNm1 (DYNAMICS)  min= -8.00538600711301E-06
DEBUG_STATS_RL:               GuNm1 (DYNAMICS)  max=  7.97545189038666E-06
DEBUG_STATS_RL:               GuNm1 (DYNAMICS) mean= -1.03998180789552E-08
DEBUG_STATS_RL:               GuNm1 (DYNAMICS) S.D.=  1.21726655708857E-06
DEBUG_STATS_RL:               GvNm1 (DYNAMICS)  min= -1.06212330961435E-05
DEBUG_STATS_RL:               GvNm1 (DYNAMICS)  max=  1.68895605506091E-05
DEBUG_STATS_RL:               GvNm1 (DYNAMICS) mean=  7.75274217955190E-07
DEBUG_STATS_RL:               GvNm1 (DYNAMICS) S.D.=  2.66646142483257E-06
DEBUG_STATS_RL:               GtNm1 (DYNAMICS)  min= -3.45893003911884E-06
DEBUG_STATS_RL:               GtNm1 (DYNAMICS)  max=  2.57056056755133E-06
DEBUG_STATS_RL:               GtNm1 (DYNAMICS) mean=  1.62624414006407E-09
DEBUG_STATS_RL:               GtNm1 (DYNAMICS) S.D.=  2.38401239967662E-07
DEBUG_STATS_RL:               GsNm1 (DYNAMICS)  min= -6.70099679777839E-07
DEBUG_STATS_RL:               GsNm1 (DYNAMICS)  max=  5.53051394745988E-07
DEBUG_STATS_RL:               GsNm1 (DYNAMICS) mean= -6.28875328079005E-10
DEBUG_STATS_RL:               GsNm1 (DYNAMICS) S.D.=  2.26234264800989E-08
DEBUG_STATS_RL:    cg2d_b (SOLVE_FOR_PRESSURE)  min= -2.30202342589499E+04
DEBUG_STATS_RL:    cg2d_b (SOLVE_FOR_PRESSURE)  max=  2.28640957940804E+04
DEBUG_STATS_RL:    cg2d_b (SOLVE_FOR_PRESSURE) mean=  1.97804134396502E+00
DEBUG_STATS_RL:    cg2d_b (SOLVE_FOR_PRESSURE) S.D.=  4.09114510275705E+03
 cg2d: Sum(rhs),rhsMax =   1.98919162149698E-01  1.51203062109492E+00
(PID.TID 0000.0001)  cg2d: iter=     1 ; resid.=  3.78896628123893E-01
(PID.TID 0000.0001)  cg2d: iter=     2 ; resid.=  3.20005030375066E-01
(PID.TID 0000.0001)  cg2d: iter=     3 ; resid.=  2.76380943068985E-01
(PID.TID 0000.0001)  cg2d: iter=     4 ; resid.=  2.23028786666744E-01
(PID.TID 0000.0001)  cg2d: iter=     5 ; resid.=  1.72546007682120E-01
(PID.TID 0000.0001)  cg2d: iter=     6 ; resid.=  1.41097889407730E-01
(PID.TID 0000.0001)  cg2d: iter=     7 ; resid.=  1.16808538536861E-01
(PID.TID 0000.0001)  cg2d: iter=     8 ; resid.=  9.95748558801754E-02
(PID.TID 0000.0001)  cg2d: iter=     9 ; resid.=  8.28334768641759E-02
(PID.TID 0000.0001)  cg2d: iter=    10 ; resid.=  7.85960866901449E-02
(PID.TID 0000.0001)  cg2d: iter=    11 ; resid.=  7.34185687636595E-02
(PID.TID 0000.0001)  cg2d: iter=    12 ; resid.=  6.35423965553486E-02
(PID.TID 0000.0001)  cg2d: iter=    13 ; resid.=  5.12607481176590E-02
(PID.TID 0000.0001)  cg2d: iter=    14 ; resid.=  3.87985664020517E-02
(PID.TID 0000.0001)  cg2d: iter=    15 ; resid.=  3.14489948851009E-02
(PID.TID 0000.0001)  cg2d: iter=    16 ; resid.=  2.71993362471334E-02
(PID.TID 0000.0001)  cg2d: iter=    17 ; resid.=  2.26402860721825E-02
(PID.TID 0000.0001)  cg2d: iter=    18 ; resid.=  1.84201195411298E-02
(PID.TID 0000.0001)  cg2d: iter=    19 ; resid.=  1.47128549934387E-02
(PID.TID 0000.0001)  cg2d: iter=    20 ; resid.=  1.21190630627413E-02
(PID.TID 0000.0001)  cg2d: iter=    21 ; resid.=  1.03544511680930E-02
(PID.TID 0000.0001)  cg2d: iter=    22 ; resid.=  9.06922933282123E-03
(PID.TID 0000.0001)  cg2d: iter=    23 ; resid.=  7.65819385351451E-03
(PID.TID 0000.0001)  cg2d: iter=    24 ; resid.=  6.27100900779455E-03
(PID.TID 0000.0001)  cg2d: iter=    25 ; resid.=  4.60214026230747E-03
(PID.TID 0000.0001)  cg2d: iter=    26 ; resid.=  3.89667037789754E-03
(PID.TID 0000.0001)  cg2d: iter=    27 ; resid.=  3.27556688769312E-03
(PID.TID 0000.0001)  cg2d: iter=    28 ; resid.=  2.57930216366680E-03
(PID.TID 0000.0001)  cg2d: iter=    29 ; resid.=  1.96995121184123E-03
(PID.TID 0000.0001)  cg2d: iter=    30 ; resid.=  1.59831911171521E-03
(PID.TID 0000.0001)  cg2d: iter=    31 ; resid.=  1.28962014394857E-03
(PID.TID 0000.0001)  cg2d: iter=    32 ; resid.=  1.04515779085360E-03
(PID.TID 0000.0001)  cg2d: iter=    33 ; resid.=  8.38231022576349E-04
(PID.TID 0000.0001)  cg2d: iter=    34 ; resid.=  7.03185436856872E-04
(PID.TID 0000.0001)  cg2d: iter=    35 ; resid.=  5.50940954315920E-04
(PID.TID 0000.0001)  cg2d: iter=    36 ; resid.=  4.48801586813953E-04
(PID.TID 0000.0001)  cg2d: iter=    37 ; resid.=  3.87499055340232E-04
(PID.TID 0000.0001)  cg2d: iter=    38 ; resid.=  3.22467334483264E-04
(PID.TID 0000.0001)  cg2d: iter=    39 ; resid.=  2.37834996661207E-04
(PID.TID 0000.0001)  cg2d: iter=    40 ; resid.=  1.86398846739774E-04
(PID.TID 0000.0001)  cg2d: iter=    41 ; resid.=  1.49368615585529E-04
(PID.TID 0000.0001)  cg2d: iter=    42 ; resid.=  1.23482717219617E-04
(PID.TID 0000.0001)  cg2d: iter=    43 ; resid.=  9.77603344343517E-05
(PID.TID 0000.0001)  cg2d: iter=    44 ; resid.=  8.08384733561958E-05
(PID.TID 0000.0001)  cg2d: iter=    45 ; resid.=  7.06268167603583E-05
(PID.TID 0000.0001)  cg2d: iter=    46 ; resid.=  5.73702307209222E-05
(PID.TID 0000.0001)  cg2d: iter=    47 ; resid.=  5.32602087749016E-05
(PID.TID 0000.0001)  cg2d: iter=    48 ; resid.=  4.61799698241812E-05
(PID.TID 0000.0001)  cg2d: iter=    49 ; resid.=  3.70831916105245E-05
(PID.TID 0000.0001)  cg2d: iter=    50 ; resid.=  2.91377426940331E-05
(PID.TID 0000.0001)  cg2d: iter=    51 ; resid.=  2.45775566072509E-05
(PID.TID 0000.0001)  cg2d: iter=    52 ; resid.=  2.05371500397843E-05
(PID.TID 0000.0001)  cg2d: iter=    53 ; resid.=  1.71248534124110E-05
(PID.TID 0000.0001)  cg2d: iter=    54 ; resid.=  1.29883594253537E-05
(PID.TID 0000.0001)  cg2d: iter=    55 ; resid.=  1.14452579046411E-05
(PID.TID 0000.0001)  cg2d: iter=    56 ; resid.=  1.04872093986838E-05
(PID.TID 0000.0001)  cg2d: iter=    57 ; resid.=  9.00024549760928E-06
(PID.TID 0000.0001)  cg2d: iter=    58 ; resid.=  7.79750829031639E-06
(PID.TID 0000.0001)  cg2d: iter=    59 ; resid.=  6.46907057155987E-06
(PID.TID 0000.0001)  cg2d: iter=    60 ; resid.=  5.49099955357197E-06
(PID.TID 0000.0001)  cg2d: iter=    61 ; resid.=  4.73097491356875E-06
(PID.TID 0000.0001)  cg2d: iter=    62 ; resid.=  4.24112672340137E-06
(PID.TID 0000.0001)  cg2d: iter=    63 ; resid.=  3.36574137606029E-06
(PID.TID 0000.0001)  cg2d: iter=    64 ; resid.=  2.83703850624703E-06
(PID.TID 0000.0001)  cg2d: iter=    65 ; resid.=  2.18030784710438E-06
(PID.TID 0000.0001)  cg2d: iter=    66 ; resid.=  1.71616050334494E-06
(PID.TID 0000.0001)  cg2d: iter=    67 ; resid.=  1.48925316765045E-06
(PID.TID 0000.0001)  cg2d: iter=    68 ; resid.=  1.24443704738825E-06
(PID.TID 0000.0001)  cg2d: iter=    69 ; resid.=  1.03878540492219E-06
(PID.TID 0000.0001)  cg2d: iter=    70 ; resid.=  9.22295023528433E-07
(PID.TID 0000.0001)  cg2d: iter=    71 ; resid.=  7.59600114175643E-07
(PID.TID 0000.0001)  cg2d: iter=    72 ; resid.=  6.49198189775771E-07
(PID.TID 0000.0001)  cg2d: iter=    73 ; resid.=  5.58744457987398E-07
(PID.TID 0000.0001)  cg2d: iter=    74 ; resid.=  4.49489978581627E-07
(PID.TID 0000.0001)  cg2d: iter=    75 ; resid.=  3.30022022882864E-07
(PID.TID 0000.0001)  cg2d: iter=    76 ; resid.=  2.76907576779005E-07
(PID.TID 0000.0001)  cg2d: iter=    77 ; resid.=  2.29088765194937E-07
(PID.TID 0000.0001)  cg2d: iter=    78 ; resid.=  1.88377560580142E-07
(PID.TID 0000.0001)  cg2d: iter=    79 ; resid.=  1.70404914060230E-07
(PID.TID 0000.0001)  cg2d: iter=    80 ; resid.=  1.43846361863942E-07
(PID.TID 0000.0001)  cg2d: iter=    81 ; resid.=  1.39714316051352E-07
(PID.TID 0000.0001)  cg2d: iter=    82 ; resid.=  1.19434344046888E-07
(PID.TID 0000.0001)  cg2d: iter=    83 ; resid.=  9.67726982379993E-08
(PID.TID 0000.0001)  cg2d: iter=    84 ; resid.=  7.55288893106361E-08
(PID.TID 0000.0001)  cg2d: iter=    85 ; resid.=  5.68325680329517E-08
(PID.TID 0000.0001)  cg2d: iter=    86 ; resid.=  4.18756882763538E-08
(PID.TID 0000.0001)  cg2d: iter=    87 ; resid.=  3.18458185527840E-08
(PID.TID 0000.0001)  cg2d: iter=    88 ; resid.=  2.56236314844705E-08
(PID.TID 0000.0001)  cg2d: iter=    89 ; resid.=  2.11911553444650E-08
(PID.TID 0000.0001)  cg2d: iter=    90 ; resid.=  1.61881971062748E-08
(PID.TID 0000.0001)  cg2d: iter=    91 ; resid.=  1.19324319255194E-08
(PID.TID 0000.0001)  cg2d: iter=    92 ; resid.=  8.20038479131964E-09
(PID.TID 0000.0001)  cg2d: iter=    93 ; resid.=  5.85318581563921E-09
(PID.TID 0000.0001)  cg2d: iter=    94 ; resid.=  4.23286426752035E-09
(PID.TID 0000.0001)  cg2d: iter=    95 ; resid.=  3.40007193281391E-09
(PID.TID 0000.0001)  cg2d: iter=    96 ; resid.=  2.46443602411275E-09
(PID.TID 0000.0001)  cg2d: iter=    97 ; resid.=  1.90002740003444E-09
(PID.TID 0000.0001)  cg2d: iter=    98 ; resid.=  1.51990952091854E-09
(PID.TID 0000.0001)  cg2d: iter=    99 ; resid.=  1.26517444481473E-09
(PID.TID 0000.0001)  cg2d: iter=   100 ; resid.=  1.02111716544583E-09
(PID.TID 0000.0001)  cg2d: iter=   101 ; resid.=  8.20308576062111E-10
(PID.TID 0000.0001)  cg2d: iter=   102 ; resid.=  6.64734421009371E-10
(PID.TID 0000.0001)  cg2d: iter=   103 ; resid.=  4.88696028972350E-10
(PID.TID 0000.0001)  cg2d: iter=   104 ; resid.=  3.62721920793605E-10
(PID.TID 0000.0001)  cg2d: iter=   105 ; resid.=  2.64693288291487E-10
(PID.TID 0000.0001)  cg2d: iter=   106 ; resid.=  2.17693696565106E-10
(PID.TID 0000.0001)  cg2d: iter=   107 ; resid.=  1.94475687403663E-10
(PID.TID 0000.0001)  cg2d: iter=   108 ; resid.=  1.70045591530784E-10
(PID.TID 0000.0001)  cg2d: iter=   109 ; resid.=  1.51737517834157E-10
(PID.TID 0000.0001)  cg2d: iter=   110 ; resid.=  1.28475113323894E-10
(PID.TID 0000.0001)  cg2d: iter=   111 ; resid.=  1.06430091175759E-10
(PID.TID 0000.0001)  cg2d: iter=   112 ; resid.=  9.12024091533121E-11
(PID.TID 0000.0001)  cg2d: iter=   113 ; resid.=  7.06404440180923E-11
(PID.TID 0000.0001)  cg2d: iter=   114 ; resid.=  5.38030564250909E-11
(PID.TID 0000.0001)  cg2d: iter=   115 ; resid.=  3.76775801284474E-11
(PID.TID 0000.0001)  cg2d: iter=   116 ; resid.=  2.78817080152325E-11
(PID.TID 0000.0001)  cg2d: iter=   117 ; resid.=  2.02837397271019E-11
(PID.TID 0000.0001)  cg2d: iter=   118 ; resid.=  1.42312876394931E-11
(PID.TID 0000.0001)  cg2d: iter=   119 ; resid.=  1.09357577101642E-11
(PID.TID 0000.0001)  cg2d: iter=   120 ; resid.=  7.87950391260803E-12
(PID.TID 0000.0001)  cg2d: iter=   121 ; resid.=  5.44195872843674E-12
(PID.TID 0000.0001)  cg2d: iter=   122 ; resid.=  3.80085977899819E-12
(PID.TID 0000.0001)  cg2d: iter=   123 ; resid.=  2.78854194016381E-12
(PID.TID 0000.0001)  cg2d: iter=   124 ; resid.=  2.37912904306893E-12
(PID.TID 0000.0001)  cg2d: iter=   125 ; resid.=  1.95180369759385E-12
(PID.TID 0000.0001)  cg2d: iter=   126 ; resid.=  1.42460505980334E-12
(PID.TID 0000.0001)  cg2d: iter=   127 ; resid.=  1.04763842054834E-12
(PID.TID 0000.0001)  cg2d: iter=   128 ; resid.=  8.03805952505548E-13
(PID.TID 0000.0001)  cg2d: iter=   129 ; resid.=  6.38929861927399E-13
(PID.TID 0000.0001)  cg2d: iter=   130 ; resid.=  5.19845793931731E-13
(PID.TID 0000.0001)  cg2d: iter=   131 ; resid.=  3.92673968341457E-13
(PID.TID 0000.0001)  cg2d: iter=   132 ; resid.=  2.73409312110662E-13
(PID.TID 0000.0001)  cg2d: iter=   133 ; resid.=  2.12175844489718E-13
(PID.TID 0000.0001)  cg2d: iter=   134 ; resid.=  1.57580898364561E-13
(PID.TID 0000.0001)  cg2d: iter=   135 ; resid.=  1.22739078009718E-13
(PID.TID 0000.0001)  cg2d: iter=   136 ; resid.=  8.72152912908207E-14
DEBUG_STATS_RL:    cg2d_x (SOLVE_FOR_PRESSURE)  min= -2.20071389632963E+01
DEBUG_STATS_RL:    cg2d_x (SOLVE_FOR_PRESSURE)  max=  1.32056399801212E+01
DEBUG_STATS_RL:    cg2d_x (SOLVE_FOR_PRESSURE) mean= -1.34415523577608E+00
DEBUG_STATS_RL:    cg2d_x (SOLVE_FOR_PRESSURE) S.D.=  7.29609914001243E+00
(PID.TID 0000.0001)      cg2d_init_res =   5.89743386915576E-01
(PID.TID 0000.0001)      cg2d_iters(min,last) =      -1     136
(PID.TID 0000.0001)      cg2d_last_res =   8.72152912908207E-14
(PID.TID 0000.0001) // =======================================================
(PID.TID 0000.0001) // Begin MONITOR dynamic field statistics
(PID.TID 0000.0001) // =======================================================
(PID.TID 0000.0001) %MON time_tsnumber                =                    28
(PID.TID 0000.0001) %MON time_secondsf                =   2.4192000000000E+06
(PID.TID 0000.0001) %MON dynstat_eta_max              =   1.3461406707566E+00
(PID.TID 0000.0001) %MON dynstat_eta_min              =  -2.2433373051271E+00
(PID.TID 0000.0001) %MON dynstat_eta_mean             =  -2.0638408733984E-03
(PID.TID 0000.0001) %MON dynstat_eta_sd               =   6.2826315783405E-01
(PID.TID 0000.0001) %MON dynstat_eta_del2             =   2.2092148151352E-03
(PID.TID 0000.0001) %MON dynstat_uvel_max             =   2.0717176689861E-01
(PID.TID 0000.0001) %MON dynstat_uvel_min             =  -1.8287370911550E-01
(PID.TID 0000.0001) %MON dynstat_uvel_mean            =   1.4863966611132E-03
(PID.TID 0000.0001) %MON dynstat_uvel_sd              =   2.2420398268449E-02
(PID.TID 0000.0001) %MON dynstat_uvel_del2            =   1.1235492119133E-04
(PID.TID 0000.0001) %MON dynstat_vvel_max             =   1.3263626122390E-01
(PID.TID 0000.0001) %MON dynstat_vvel_min             =  -1.3263586792155E-01
(PID.TID 0000.0001) %MON dynstat_vvel_mean            =   6.5363180406786E-05
(PID.TID 0000.0001) %MON dynstat_vvel_sd              =   1.2752597049545E-02
(PID.TID 0000.0001) %MON dynstat_vvel_del2            =   9.8502277132171E-05
(PID.TID 0000.0001) %MON dynstat_wvel_max             =   2.0755114421875E-04
(PID.TID 0000.0001) %MON dynstat_wvel_min             =  -2.7719448277582E-04
(PID.TID 0000.0001) %MON dynstat_wvel_mean            =   6.4819744068133E-23
(PID.TID 0000.0001) %MON dynstat_wvel_sd              =   2.1085165031263E-05
(PID.TID 0000.0001) %MON dynstat_wvel_del2            =   2.2777369312450E-07
(PID.TID 0000.0001) %MON dynstat_theta_max            =   3.0112250999100E+01
(PID.TID 0000.0001) %MON dynstat_theta_min            =  -2.0073693092088E+00
(PID.TID 0000.0001) %MON dynstat_theta_mean           =   3.6508126452935E+00
(PID.TID 0000.0001) %MON dynstat_theta_sd             =   4.4171691189188E+00
(PID.TID 0000.0001) %MON dynstat_theta_del2           =   4.8960774685441E-03
(PID.TID 0000.0001) %MON dynstat_salt_max             =   3.7476888439229E+01
(PID.TID 0000.0001) %MON dynstat_salt_min             =   2.9864386855392E+01
(PID.TID 0000.0001) %MON dynstat_salt_mean            =   3.4747927330665E+01
(PID.TID 0000.0001) %MON dynstat_salt_sd              =   2.9613151583655E-01
(PID.TID 0000.0001) %MON dynstat_salt_del2            =   1.0017118988260E-03
(PID.TID 0000.0001) %MON dynstat_sst_max              =   3.0112250999100E+01
(PID.TID 0000.0001) %MON dynstat_sst_min              =  -2.0073693092088E+00
(PID.TID 0000.0001) %MON dynstat_sst_mean             =   1.8751281953106E+01
(PID.TID 0000.0001) %MON dynstat_sst_sd               =   9.0552919638381E+00
(PID.TID 0000.0001) %MON dynstat_sst_del2             =   2.6598606603951E-02
(PID.TID 0000.0001) %MON dynstat_sss_max              =   3.7459612460237E+01
(PID.TID 0000.0001) %MON dynstat_sss_min              =   2.9864386855392E+01
(PID.TID 0000.0001) %MON dynstat_sss_mean             =   3.4877871050151E+01
(PID.TID 0000.0001) %MON dynstat_sss_sd               =   9.7460664198614E-01
(PID.TID 0000.0001) %MON dynstat_sss_del2             =   7.8922873797870E-03
(PID.TID 0000.0001) %MON forcing_qnet_max             =   4.0178457641602E+02
(PID.TID 0000.0001) %MON forcing_qnet_min             =  -1.7714531555176E+02
(PID.TID 0000.0001) %MON forcing_qnet_mean            =  -1.5493615992204E+01
(PID.TID 0000.0001) %MON forcing_qnet_sd              =   9.7185485181804E+01
(PID.TID 0000.0001) %MON forcing_qnet_del2            =   9.8140782401500E-01
(PID.TID 0000.0001) %MON forcing_qsw_max              =   0.0000000000000E+00
(PID.TID 0000.0001) %MON forcing_qsw_min              =   0.0000000000000E+00
(PID.TID 0000.0001) %MON forcing_qsw_mean             =   0.0000000000000E+00
(PID.TID 0000.0001) %MON forcing_qsw_sd               =   0.0000000000000E+00
(PID.TID 0000.0001) %MON forcing_qsw_del2             =   0.0000000000000E+00
(PID.TID 0000.0001) %MON forcing_empmr_max            =   7.8405162184936E-05
(PID.TID 0000.0001) %MON forcing_empmr_min            =  -7.7111687346587E-05
(PID.TID 0000.0001) %MON forcing_empmr_mean           =   9.3112582923013E-07
(PID.TID 0000.0001) %MON forcing_empmr_sd             =   2.8276845244070E-05
(PID.TID 0000.0001) %MON forcing_empmr_del2           =   3.5648229163624E-07
(PID.TID 0000.0001) %MON forcing_fu_max               =   2.7966668009758E-01
(PID.TID 0000.0001) %MON forcing_fu_min               =  -1.8585372269154E-01
(PID.TID 0000.0001) %MON forcing_fu_mean              =   1.6653337738194E-02
(PID.TID 0000.0001) %MON forcing_fu_sd                =   8.9968991920605E-02
(PID.TID 0000.0001) %MON forcing_fu_del2              =   6.6906282054806E-04
(PID.TID 0000.0001) %MON forcing_fv_max               =   1.9461995661259E-01
(PID.TID 0000.0001) %MON forcing_fv_min               =  -1.6624130308628E-01
(PID.TID 0000.0001) %MON forcing_fv_mean              =  -6.0420286200872E-03
(PID.TID 0000.0001) %MON forcing_fv_sd                =   4.5317127835513E-02
(PID.TID 0000.0001) %MON forcing_fv_del2              =   4.6354194610910E-04
(PID.TID 0000.0001) %MON trAdv_CFL_u_max              =   6.3137928533743E-02
(PID.TID 0000.0001) %MON trAdv_CFL_v_max              =   2.6549179498189E-02
(PID.TID 0000.0001) %MON trAdv_CFL_w_max              =   9.4618531389036E-02
(PID.TID 0000.0001) %MON advcfl_uvel_max              =   6.8477648113391E-02
(PID.TID 0000.0001) %MON advcfl_vvel_max              =   2.5769098325922E-02
(PID.TID 0000.0001) %MON advcfl_wvel_max              =   9.3859738205748E-02
(PID.TID 0000.0001) %MON advcfl_W_hf_max              =   1.0786790568020E-01
(PID.TID 0000.0001) %MON pe_b_mean                    =   5.0509035146486E-04
(PID.TID 0000.0001) %MON ke_max                       =   2.0257508311542E-02
(PID.TID 0000.0001) %MON ke_mean                      =   3.0238935982359E-04
(PID.TID 0000.0001) %MON ke_vol                       =   1.3226782436723E+18
(PID.TID 0000.0001) %MON vort_r_min                   =  -7.1034727768226E-07
(PID.TID 0000.0001) %MON vort_r_max                   =   4.9997162204595E-07
(PID.TID 0000.0001) %MON vort_a_mean                  =  -2.5274807590540E-05
(PID.TID 0000.0001) %MON vort_a_sd                    =   7.3604427302631E-05
(PID.TID 0000.0001) %MON vort_p_mean                  =  -3.1845656042759E-05
(PID.TID 0000.0001) %MON vort_p_sd                    =   1.3162880978592E-04
(PID.TID 0000.0001) %MON surfExpan_theta_mean         =  -1.1478931409953E-07
(PID.TID 0000.0001) %MON surfExpan_salt_mean          =  -2.0794569813410E-07
(PID.TID 0000.0001) // =======================================================
(PID.TID 0000.0001) // End MONITOR dynamic field statistics
(PID.TID 0000.0001) // =======================================================
 EXTERNAL_FIELDS_LOAD,        28 : iP,iLd,i0,i1=    1    2    1    2 ; Wght=  0.5666666667  0.4333333333
 EXTERNAL_FIELDS_LOAD: (fu0,1),fu,fv= -3.5633E-02 -1.4435E-02 -2.6447E-02 -4.0088E-02
 EXTERNAL_FIELDS_LOAD: SST,SSS,Q,E-P=  3.1264E-01  3.4587E+01  2.5481E+02  1.0224E-05
DEBUG_STATS_RL:          Uvel (THERMODYNAMICS)  min= -1.82873709115504E-01
DEBUG_STATS_RL:          Uvel (THERMODYNAMICS)  max=  2.07171766898606E-01
DEBUG_STATS_RL:          Uvel (THERMODYNAMICS) mean=  3.77552508062289E-03
DEBUG_STATS_RL:          Uvel (THERMODYNAMICS) S.D.=  2.74523055348633E-02
DEBUG_STATS_RL:          Vvel (THERMODYNAMICS)  min= -1.32635867921552E-01
DEBUG_STATS_RL:          Vvel (THERMODYNAMICS)  max=  1.32636261223902E-01
DEBUG_STATS_RL:          Vvel (THERMODYNAMICS) mean=  8.74010541112783E-04
DEBUG_STATS_RL:          Vvel (THERMODYNAMICS) S.D.=  1.73779981948402E-02
DEBUG_STATS_RL:          Wvel (THERMODYNAMICS)  min= -2.77194482775816E-04
DEBUG_STATS_RL:          Wvel (THERMODYNAMICS)  max=  2.07551144218747E-04
DEBUG_STATS_RL:          Wvel (THERMODYNAMICS) mean=  7.23558857333924E-08
DEBUG_STATS_RL:          Wvel (THERMODYNAMICS) S.D.=  1.91791470857570E-05
DEBUG_STATS_RL:         Theta (THERMODYNAMICS)  min= -2.00656690161841E+00
DEBUG_STATS_RL:         Theta (THERMODYNAMICS)  max=  3.01615935989162E+01
DEBUG_STATS_RL:         Theta (THERMODYNAMICS) mean=  3.23857836592081E+00
DEBUG_STATS_RL:         Theta (THERMODYNAMICS) S.D.=  5.85804306170794E+00
DEBUG_STATS_RL:          Salt (THERMODYNAMICS)  min=  3.00000000000000E-02
DEBUG_STATS_RL:          Salt (THERMODYNAMICS)  max=  3.74780888665901E+01
DEBUG_STATS_RL:          Salt (THERMODYNAMICS) mean=  1.88749364096611E+01
DEBUG_STATS_RL:          Salt (THERMODYNAMICS) S.D.=  1.73004389737711E+01
DEBUG_STATS_RL:         GtNm1 (THERMODYNAMICS)  min= -3.46639443108990E-06
DEBUG_STATS_RL:         GtNm1 (THERMODYNAMICS)  max=  2.70159678875146E-06
DEBUG_STATS_RL:         GtNm1 (THERMODYNAMICS) mean=  2.58878953408551E-09
DEBUG_STATS_RL:         GtNm1 (THERMODYNAMICS) S.D.=  2.34689317547991E-07
DEBUG_STATS_RL:         GsNm1 (THERMODYNAMICS)  min= -6.74357862234780E-07
DEBUG_STATS_RL:         GsNm1 (THERMODYNAMICS)  max=  5.48510888018861E-07
DEBUG_STATS_RL:         GsNm1 (THERMODYNAMICS) mean= -6.07951367181610E-10
DEBUG_STATS_RL:         GsNm1 (THERMODYNAMICS) S.D.=  2.22869679022128E-08
DEBUG_STATS_RL:                EtaN (DYNAMICS)  min= -2.24333730512707E+00
DEBUG_STATS_RL:                EtaN (DYNAMICS)  max=  1.34614067075656E+00
DEBUG_STATS_RL:                EtaN (DYNAMICS) mean= -1.37018882342108E-01
DEBUG_STATS_RL:                EtaN (DYNAMICS) S.D.=  7.43740992865689E-01
DEBUG_STATS_RL:                Uvel (DYNAMICS)  min= -1.82873709115504E-01
DEBUG_STATS_RL:                Uvel (DYNAMICS)  max=  2.07171766898606E-01
DEBUG_STATS_RL:                Uvel (DYNAMICS) mean=  3.77552508062289E-03
DEBUG_STATS_RL:                Uvel (DYNAMICS) S.D.=  2.74523055348633E-02
DEBUG_STATS_RL:                Vvel (DYNAMICS)  min= -1.32635867921552E-01
DEBUG_STATS_RL:                Vvel (DYNAMICS)  max=  1.32636261223902E-01
DEBUG_STATS_RL:                Vvel (DYNAMICS) mean=  8.74010541112783E-04
DEBUG_STATS_RL:                Vvel (DYNAMICS) S.D.=  1.73779981948402E-02
DEBUG_STATS_RL:                Wvel (DYNAMICS)  min= -2.77194482775816E-04
DEBUG_STATS_RL:                Wvel (DYNAMICS)  max=  2.07551144218747E-04
DEBUG_STATS_RL:                Wvel (DYNAMICS) mean=  7.23558857333924E-08
DEBUG_STATS_RL:                Wvel (DYNAMICS) S.D.=  1.91791470857570E-05
DEBUG_STATS_RL:               Theta (DYNAMICS)  min= -2.00656690161841E+00
DEBUG_STATS_RL:               Theta (DYNAMICS)  max=  3.01615935989162E+01
DEBUG_STATS_RL:               Theta (DYNAMICS) mean=  3.23857836592081E+00
DEBUG_STATS_RL:               Theta (DYNAMICS) S.D.=  5.85804306170794E+00
DEBUG_STATS_RL:                Salt (DYNAMICS)  min=  3.00000000000000E-02
DEBUG_STATS_RL:                Salt (DYNAMICS)  max=  3.74780888665901E+01
DEBUG_STATS_RL:                Salt (DYNAMICS) mean=  1.88749364096611E+01
DEBUG_STATS_RL:                Salt (DYNAMICS) S.D.=  1.73004389737711E+01
DEBUG_STATS_RL:                  Gu (DYNAMICS)  min= -1.87292213247176E-01
DEBUG_STATS_RL:                  Gu (DYNAMICS)  max=  2.08336373076562E-01
DEBUG_STATS_RL:                  Gu (DYNAMICS) mean=  4.65485472603474E-03
DEBUG_STATS_RL:                  Gu (DYNAMICS) S.D.=  2.86768440944914E-02
DEBUG_STATS_RL:                  Gv (DYNAMICS)  min= -1.29299662830197E-01
DEBUG_STATS_RL:                  Gv (DYNAMICS)  max=  1.24531526723150E-01
DEBUG_STATS_RL:                  Gv (DYNAMICS) mean=  3.18250166373183E-03
DEBUG_STATS_RL:                  Gv (DYNAMICS) S.D.=  1.79041803661883E-02
DEBUG_STATS_RL:               GuNm1 (DYNAMICS)  min= -8.10720638052495E-06
DEBUG_STATS_RL:               GuNm1 (DYNAMICS)  max=  7.86699682642196E-06
DEBUG_STATS_RL:               GuNm1 (DYNAMICS) mean= -1.27082244705247E-08
DEBUG_STATS_RL:               GuNm1 (DYNAMICS) S.D.=  1.21890035276144E-06
DEBUG_STATS_RL:               GvNm1 (DYNAMICS)  min= -1.07813865555759E-05
DEBUG_STATS_RL:               GvNm1 (DYNAMICS)  max=  1.68225160959762E-05
DEBUG_STATS_RL:               GvNm1 (DYNAMICS) mean=  7.73265912134297E-07
DEBUG_STATS_RL:               GvNm1 (DYNAMICS) S.D.=  2.67002488041967E-06
DEBUG_STATS_RL:               GtNm1 (DYNAMICS)  min= -3.46639443108990E-06
DEBUG_STATS_RL:               GtNm1 (DYNAMICS)  max=  2.70159678875146E-06
DEBUG_STATS_RL:               GtNm1 (DYNAMICS) mean=  2.58878953408551E-09
DEBUG_STATS_RL:               GtNm1 (DYNAMICS) S.D.=  2.34689317547991E-07
DEBUG_STATS_RL:               GsNm1 (DYNAMICS)  min= -6.74357862234780E-07
DEBUG_STATS_RL:               GsNm1 (DYNAMICS)  max=  5.48510888018861E-07
DEBUG_STATS_RL:               GsNm1 (DYNAMICS) mean= -6.07951367181610E-10
DEBUG_STATS_RL:               GsNm1 (DYNAMICS) S.D.=  2.22869679022128E-08
DEBUG_STATS_RL:    cg2d_b (SOLVE_FOR_PRESSURE)  min= -2.22099151176544E+04
DEBUG_STATS_RL:    cg2d_b (SOLVE_FOR_PRESSURE)  max=  2.26015988604157E+04
DEBUG_STATS_RL:    cg2d_b (SOLVE_FOR_PRESSURE) mean=  2.05259330788464E+00
DEBUG_STATS_RL:    cg2d_b (SOLVE_FOR_PRESSURE) S.D.=  4.09228709479574E+03
 cg2d: Sum(rhs),rhsMax =   2.10239706363178E-01  1.48453352725402E+00
(PID.TID 0000.0001)  cg2d: iter=     1 ; resid.=  3.91784379327799E-01
(PID.TID 0000.0001)  cg2d: iter=     2 ; resid.=  3.42855118382672E-01
(PID.TID 0000.0001)  cg2d: iter=     3 ; resid.=  2.98010020316036E-01
(PID.TID 0000.0001)  cg2d: iter=     4 ; resid.=  2.46430489921433E-01
(PID.TID 0000.0001)  cg2d: iter=     5 ; resid.=  2.05891093492964E-01
(PID.TID 0000.0001)  cg2d: iter=     6 ; resid.=  1.79604557819091E-01
(PID.TID 0000.0001)  cg2d: iter=     7 ; resid.=  1.48287978099273E-01
(PID.TID 0000.0001)  cg2d: iter=     8 ; resid.=  1.19574296180632E-01
(PID.TID 0000.0001)  cg2d: iter=     9 ; resid.=  9.81619571256246E-02
(PID.TID 0000.0001)  cg2d: iter=    10 ; resid.=  9.02324083375550E-02
(PID.TID 0000.0001)  cg2d: iter=    11 ; resid.=  8.00380802353472E-02
(PID.TID 0000.0001)  cg2d: iter=    12 ; resid.=  6.79251760579663E-02
(PID.TID 0000.0001)  cg2d: iter=    13 ; resid.=  5.30280741300808E-02
(PID.TID 0000.0001)  cg2d: iter=    14 ; resid.=  3.91492381250685E-02
(PID.TID 0000.0001)  cg2d: iter=    15 ; resid.=  3.16585662371943E-02
(PID.TID 0000.0001)  cg2d: iter=    16 ; resid.=  2.79584409436256E-02
(PID.TID 0000.0001)  cg2d: iter=    17 ; resid.=  2.33934726006702E-02
(PID.TID 0000.0001)  cg2d: iter=    18 ; resid.=  1.98950209371525E-02
(PID.TID 0000.0001)  cg2d: iter=    19 ; resid.=  1.61787975900412E-02
(PID.TID 0000.0001)  cg2d: iter=    20 ; resid.=  1.37048365888604E-02
(PID.TID 0000.0001)  cg2d: iter=    21 ; resid.=  1.20081264050296E-02
(PID.TID 0000.0001)  cg2d: iter=    22 ; resid.=  1.09174122612065E-02
(PID.TID 0000.0001)  cg2d: iter=    23 ; resid.=  9.26971737598047E-03
(PID.TID 0000.0001)  cg2d: iter=    24 ; resid.=  7.49179295945033E-03
(PID.TID 0000.0001)  cg2d: iter=    25 ; resid.=  5.47475751158411E-03
(PID.TID 0000.0001)  cg2d: iter=    26 ; resid.=  4.69210332084032E-03
(PID.TID 0000.0001)  cg2d: iter=    27 ; resid.=  3.90555953453262E-03
(PID.TID 0000.0001)  cg2d: iter=    28 ; resid.=  3.10332327918570E-03
(PID.TID 0000.0001)  cg2d: iter=    29 ; resid.=  2.41888806693341E-03
(PID.TID 0000.0001)  cg2d: iter=    30 ; resid.=  1.94743632694476E-03
(PID.TID 0000.0001)  cg2d: iter=    31 ; resid.=  1.57180679811147E-03
(PID.TID 0000.0001)  cg2d: iter=    32 ; resid.=  1.30071259449318E-03
(PID.TID 0000.0001)  cg2d: iter=    33 ; resid.=  1.04678827179628E-03
(PID.TID 0000.0001)  cg2d: iter=    34 ; resid.=  8.76566362069611E-04
(PID.TID 0000.0001)  cg2d: iter=    35 ; resid.=  6.98817676347589E-04
(PID.TID 0000.0001)  cg2d: iter=    36 ; resid.=  5.86951589124738E-04
(PID.TID 0000.0001)  cg2d: iter=    37 ; resid.=  5.16158300248252E-04
(PID.TID 0000.0001)  cg2d: iter=    38 ; resid.=  4.42683935148037E-04
(PID.TID 0000.0001)  cg2d: iter=    39 ; resid.=  3.42183889933431E-04
(PID.TID 0000.0001)  cg2d: iter=    40 ; resid.=  2.83247033497896E-04
(PID.TID 0000.0001)  cg2d: iter=    41 ; resid.=  2.47363632419296E-04
(PID.TID 0000.0001)  cg2d: iter=    42 ; resid.=  2.23722294156371E-04
(PID.TID 0000.0001)  cg2d: iter=    43 ; resid.=  1.85310854235203E-04
(PID.TID 0000.0001)  cg2d: iter=    44 ; resid.=  1.59573651209724E-04
(PID.TID 0000.0001)  cg2d: iter=    45 ; resid.=  1.41698262697849E-04
(PID.TID 0000.0001)  cg2d: iter=    46 ; resid.=  1.16081194786582E-04
(PID.TID 0000.0001)  cg2d: iter=    47 ; resid.=  1.02410277068503E-04
(PID.TID 0000.0001)  cg2d: iter=    48 ; resid.=  8.28638928860592E-05
(PID.TID 0000.0001)  cg2d: iter=    49 ; resid.=  6.26004822429411E-05
(PID.TID 0000.0001)  cg2d: iter=    50 ; resid.=  4.94876720600427E-05
(PID.TID 0000.0001)  cg2d: iter=    51 ; resid.=  4.30222856658495E-05
(PID.TID 0000.0001)  cg2d: iter=    52 ; resid.=  3.71272083397667E-05
(PID.TID 0000.0001)  cg2d: iter=    53 ; resid.=  3.13979677930519E-05
(PID.TID 0000.0001)  cg2d: iter=    54 ; resid.=  2.49129667818999E-05
(PID.TID 0000.0001)  cg2d: iter=    55 ; resid.=  2.33365346515095E-05
(PID.TID 0000.0001)  cg2d: iter=    56 ; resid.=  2.17060203575013E-05
(PID.TID 0000.0001)  cg2d: iter=    57 ; resid.=  1.77810236150233E-05
(PID.TID 0000.0001)  cg2d: iter=    58 ; resid.=  1.49184734267690E-05
(PID.TID 0000.0001)  cg2d: iter=    59 ; resid.=  1.18151959251586E-05
(PID.TID 0000.0001)  cg2d: iter=    60 ; resid.=  9.62305075023122E-06
(PID.TID 0000.0001)  cg2d: iter=    61 ; resid.=  8.02100559253242E-06
(PID.TID 0000.0001)  cg2d: iter=    62 ; resid.=  6.87590375466417E-06
(PID.TID 0000.0001)  cg2d: iter=    63 ; resid.=  5.11367340293955E-06
(PID.TID 0000.0001)  cg2d: iter=    64 ; resid.=  4.24167478527055E-06
(PID.TID 0000.0001)  cg2d: iter=    65 ; resid.=  3.18740637301407E-06
(PID.TID 0000.0001)  cg2d: iter=    66 ; resid.=  2.58327597974143E-06
(PID.TID 0000.0001)  cg2d: iter=    67 ; resid.=  2.30778062564491E-06
(PID.TID 0000.0001)  cg2d: iter=    68 ; resid.=  1.95430190779624E-06
(PID.TID 0000.0001)  cg2d: iter=    69 ; resid.=  1.62269622341731E-06
(PID.TID 0000.0001)  cg2d: iter=    70 ; resid.=  1.41398994835407E-06
(PID.TID 0000.0001)  cg2d: iter=    71 ; resid.=  1.15147000011956E-06
(PID.TID 0000.0001)  cg2d: iter=    72 ; resid.=  9.78323808107185E-07
(PID.TID 0000.0001)  cg2d: iter=    73 ; resid.=  8.25288720015722E-07
(PID.TID 0000.0001)  cg2d: iter=    74 ; resid.=  6.91497695236276E-07
(PID.TID 0000.0001)  cg2d: iter=    75 ; resid.=  5.25517637676091E-07
(PID.TID 0000.0001)  cg2d: iter=    76 ; resid.=  4.53067954415118E-07
(PID.TID 0000.0001)  cg2d: iter=    77 ; resid.=  3.79798778753366E-07
(PID.TID 0000.0001)  cg2d: iter=    78 ; resid.=  3.14356532793965E-07
(PID.TID 0000.0001)  cg2d: iter=    79 ; resid.=  2.72902693198194E-07
(PID.TID 0000.0001)  cg2d: iter=    80 ; resid.=  2.18514564826922E-07
(PID.TID 0000.0001)  cg2d: iter=    81 ; resid.=  1.94252931498483E-07
(PID.TID 0000.0001)  cg2d: iter=    82 ; resid.=  1.52325544987606E-07
(PID.TID 0000.0001)  cg2d: iter=    83 ; resid.=  1.14571451710022E-07
(PID.TID 0000.0001)  cg2d: iter=    84 ; resid.=  8.67735070316111E-08
(PID.TID 0000.0001)  cg2d: iter=    85 ; resid.=  6.34158078814628E-08
(PID.TID 0000.0001)  cg2d: iter=    86 ; resid.=  4.56918509652867E-08
(PID.TID 0000.0001)  cg2d: iter=    87 ; resid.=  3.37774621391461E-08
(PID.TID 0000.0001)  cg2d: iter=    88 ; resid.=  2.71867861882311E-08
(PID.TID 0000.0001)  cg2d: iter=    89 ; resid.=  2.26906291006821E-08
(PID.TID 0000.0001)  cg2d: iter=    90 ; resid.=  1.83744422395481E-08
(PID.TID 0000.0001)  cg2d: iter=    91 ; resid.=  1.39656087671236E-08
(PID.TID 0000.0001)  cg2d: iter=    92 ; resid.=  1.00878991624657E-08
(PID.TID 0000.0001)  cg2d: iter=    93 ; resid.=  7.72943675700000E-09
(PID.TID 0000.0001)  cg2d: iter=    94 ; resid.=  6.04896423358755E-09
(PID.TID 0000.0001)  cg2d: iter=    95 ; resid.=  5.05136652216861E-09
(PID.TID 0000.0001)  cg2d: iter=    96 ; resid.=  3.76830249466398E-09
(PID.TID 0000.0001)  cg2d: iter=    97 ; resid.=  3.08663880074774E-09
(PID.TID 0000.0001)  cg2d: iter=    98 ; resid.=  2.60464209228760E-09
(PID.TID 0000.0001)  cg2d: iter=    99 ; resid.=  2.18030221390855E-09
(PID.TID 0000.0001)  cg2d: iter=   100 ; resid.=  1.75452248811915E-09
(PID.TID 0000.0001)  cg2d: iter=   101 ; resid.=  1.41319002775979E-09
(PID.TID 0000.0001)  cg2d: iter=   102 ; resid.=  1.13256897773534E-09
(PID.TID 0000.0001)  cg2d: iter=   103 ; resid.=  8.64539729908170E-10
(PID.TID 0000.0001)  cg2d: iter=   104 ; resid.=  7.16957381378180E-10
(PID.TID 0000.0001)  cg2d: iter=   105 ; resid.=  5.93805731348812E-10
(PID.TID 0000.0001)  cg2d: iter=   106 ; resid.=  5.39495961452839E-10
(PID.TID 0000.0001)  cg2d: iter=   107 ; resid.=  4.90842683974688E-10
(PID.TID 0000.0001)  cg2d: iter=   108 ; resid.=  3.87187843753339E-10
(PID.TID 0000.0001)  cg2d: iter=   109 ; resid.=  3.06481917295889E-10
(PID.TID 0000.0001)  cg2d: iter=   110 ; resid.=  2.28478991563945E-10
(PID.TID 0000.0001)  cg2d: iter=   111 ; resid.=  1.65636638187484E-10
(PID.TID 0000.0001)  cg2d: iter=   112 ; resid.=  1.21519053019970E-10
(PID.TID 0000.0001)  cg2d: iter=   113 ; resid.=  8.64897279155557E-11
(PID.TID 0000.0001)  cg2d: iter=   114 ; resid.=  6.30685199251706E-11
(PID.TID 0000.0001)  cg2d: iter=   115 ; resid.=  4.35121245422752E-11
(PID.TID 0000.0001)  cg2d: iter=   116 ; resid.=  3.13693755910729E-11
(PID.TID 0000.0001)  cg2d: iter=   117 ; resid.=  2.29488551550846E-11
(PID.TID 0000.0001)  cg2d: iter=   118 ; resid.=  1.67285542483968E-11
(PID.TID 0000.0001)  cg2d: iter=   119 ; resid.=  1.29246188791423E-11
(PID.TID 0000.0001)  cg2d: iter=   120 ; resid.=  9.69823413133017E-12
(PID.TID 0000.0001)  cg2d: iter=   121 ; resid.=  7.08163069445711E-12
(PID.TID 0000.0001)  cg2d: iter=   122 ; resid.=  5.20868877219443E-12
(PID.TID 0000.0001)  cg2d: iter=   123 ; resid.=  4.11066398384486E-12
(PID.TID 0000.0001)  cg2d: iter=   124 ; resid.=  3.68541164319277E-12
(PID.TID 0000.0001)  cg2d: iter=   125 ; resid.=  2.84553075895975E-12
(PID.TID 0000.0001)  cg2d: iter=   126 ; resid.=  1.91042635190071E-12
(PID.TID 0000.0001)  cg2d: iter=   127 ; resid.=  1.34356496653612E-12
(PID.TID 0000.0001)  cg2d: iter=   128 ; resid.=  9.99732393868362E-13
(PID.TID 0000.0001)  cg2d: iter=   129 ; resid.=  7.45694862689553E-13
(PID.TID 0000.0001)  cg2d: iter=   130 ; resid.=  5.79802638865636E-13
(PID.TID 0000.0001)  cg2d: iter=   131 ; resid.=  4.17651785597690E-13
(PID.TID 0000.0001)  cg2d: iter=   132 ; resid.=  2.91690077616682E-13
(PID.TID 0000.0001)  cg2d: iter=   133 ; resid.=  2.22340962404263E-13
(PID.TID 0000.0001)  cg2d: iter=   134 ; resid.=  1.69423630205187E-13
(PID.TID 0000.0001)  cg2d: iter=   135 ; resid.=  1.30317015838522E-13
(PID.TID 0000.0001)  cg2d: iter=   136 ; resid.=  9.20717057935798E-14
DEBUG_STATS_RL:    cg2d_x (SOLVE_FOR_PRESSURE)  min= -2.15138180053972E+01
DEBUG_STATS_RL:    cg2d_x (SOLVE_FOR_PRESSURE)  max=  1.21544645377765E+01
DEBUG_STATS_RL:    cg2d_x (SOLVE_FOR_PRESSURE) mean= -1.35657872116028E+00
DEBUG_STATS_RL:    cg2d_x (SOLVE_FOR_PRESSURE) S.D.=  7.16744822675738E+00
(PID.TID 0000.0001)      cg2d_init_res =   6.04100236275294E-01
(PID.TID 0000.0001)      cg2d_iters(min,last) =      -1     136
(PID.TID 0000.0001)      cg2d_last_res =   9.20717057935798E-14
(PID.TID 0000.0001) // =======================================================
(PID.TID 0000.0001) // Begin MONITOR dynamic field statistics
(PID.TID 0000.0001) // =======================================================
(PID.TID 0000.0001) %MON time_tsnumber                =                    29
(PID.TID 0000.0001) %MON time_secondsf                =   2.5056000000000E+06
(PID.TID 0000.0001) %MON dynstat_eta_max              =   1.2389872107826E+00
(PID.TID 0000.0001) %MON dynstat_eta_min              =  -2.1930497457083E+00
(PID.TID 0000.0001) %MON dynstat_eta_mean             =  -2.1416266036090E-03
(PID.TID 0000.0001) %MON dynstat_eta_sd               =   6.1594220615343E-01
(PID.TID 0000.0001) %MON dynstat_eta_del2             =   2.2285168722794E-03
(PID.TID 0000.0001) %MON dynstat_uvel_max             =   2.2039239469798E-01
(PID.TID 0000.0001) %MON dynstat_uvel_min             =  -1.8592483568838E-01
(PID.TID 0000.0001) %MON dynstat_uvel_mean            =   2.1848494179816E-03
(PID.TID 0000.0001) %MON dynstat_uvel_sd              =   2.2822892785275E-02
(PID.TID 0000.0001) %MON dynstat_uvel_del2            =   1.1290019665167E-04
(PID.TID 0000.0001) %MON dynstat_vvel_max             =   1.3414204975000E-01
(PID.TID 0000.0001) %MON dynstat_vvel_min             =  -1.2255147817420E-01
(PID.TID 0000.0001) %MON dynstat_vvel_mean            =  -4.2738723534526E-05
(PID.TID 0000.0001) %MON dynstat_vvel_sd              =   1.2656403646968E-02
(PID.TID 0000.0001) %MON dynstat_vvel_del2            =   9.8672751186083E-05
(PID.TID 0000.0001) %MON dynstat_wvel_max             =   2.2681969327765E-04
(PID.TID 0000.0001) %MON dynstat_wvel_min             =  -2.8858190978288E-04
(PID.TID 0000.0001) %MON dynstat_wvel_mean            =  -1.5477835561633E-22
(PID.TID 0000.0001) %MON dynstat_wvel_sd              =   2.1261964589659E-05
(PID.TID 0000.0001) %MON dynstat_wvel_del2            =   2.3167600437416E-07
(PID.TID 0000.0001) %MON dynstat_theta_max            =   3.0161593598916E+01
(PID.TID 0000.0001) %MON dynstat_theta_min            =  -2.0065669016184E+00
(PID.TID 0000.0001) %MON dynstat_theta_mean           =   3.6508981467621E+00
(PID.TID 0000.0001) %MON dynstat_theta_sd             =   4.4173219725252E+00
(PID.TID 0000.0001) %MON dynstat_theta_del2           =   4.8943756842205E-03
(PID.TID 0000.0001) %MON dynstat_salt_max             =   3.7478088866590E+01
(PID.TID 0000.0001) %MON dynstat_salt_min             =   2.9866608014801E+01
(PID.TID 0000.0001) %MON dynstat_salt_mean            =   3.4747934109002E+01
(PID.TID 0000.0001) %MON dynstat_salt_sd              =   2.9614473357235E-01
(PID.TID 0000.0001) %MON dynstat_salt_del2            =   1.0004587863604E-03
(PID.TID 0000.0001) %MON dynstat_sst_max              =   3.0161593598916E+01
(PID.TID 0000.0001) %MON dynstat_sst_min              =  -2.0065669016184E+00
(PID.TID 0000.0001) %MON dynstat_sst_mean             =   1.8757518602221E+01
(PID.TID 0000.0001) %MON dynstat_sst_sd               =   9.0530756492723E+00
(PID.TID 0000.0001) %MON dynstat_sst_del2             =   2.6671486925895E-02
(PID.TID 0000.0001) %MON dynstat_sss_max              =   3.7459788114223E+01
(PID.TID 0000.0001) %MON dynstat_sss_min              =   2.9866608014801E+01
(PID.TID 0000.0001) %MON dynstat_sss_mean             =   3.4877262144987E+01
(PID.TID 0000.0001) %MON dynstat_sss_sd               =   9.7487136613880E-01
(PID.TID 0000.0001) %MON dynstat_sss_del2             =   7.8909526888730E-03
(PID.TID 0000.0001) %MON forcing_qnet_max             =   3.9846548970540E+02
(PID.TID 0000.0001) %MON forcing_qnet_min             =  -1.7690579630534E+02
(PID.TID 0000.0001) %MON forcing_qnet_mean            =  -1.5408706824800E+01
(PID.TID 0000.0001) %MON forcing_qnet_sd              =   9.6156770907790E+01
(PID.TID 0000.0001) %MON forcing_qnet_del2            =   9.7855893917677E-01
(PID.TID 0000.0001) %MON forcing_qsw_max              =   0.0000000000000E+00
(PID.TID 0000.0001) %MON forcing_qsw_min              =   0.0000000000000E+00
(PID.TID 0000.0001) %MON forcing_qsw_mean             =   0.0000000000000E+00
(PID.TID 0000.0001) %MON forcing_qsw_sd               =   0.0000000000000E+00
(PID.TID 0000.0001) %MON forcing_qsw_del2             =   0.0000000000000E+00
(PID.TID 0000.0001) %MON forcing_empmr_max            =   7.8091072452935E-05
(PID.TID 0000.0001) %MON forcing_empmr_min            =  -7.7191331608143E-05
(PID.TID 0000.0001) %MON forcing_empmr_mean           =   9.3180822649008E-07
(PID.TID 0000.0001) %MON forcing_empmr_sd             =   2.8244821350011E-05
(PID.TID 0000.0001) %MON forcing_empmr_del2           =   3.5593995327088E-07
(PID.TID 0000.0001) %MON forcing_fu_max               =   2.8105383813381E-01
(PID.TID 0000.0001) %MON forcing_fu_min               =  -1.8751364648342E-01
(PID.TID 0000.0001) %MON forcing_fu_mean              =   1.6707637953663E-02
(PID.TID 0000.0001) %MON forcing_fu_sd                =   8.9991600126903E-02
(PID.TID 0000.0001) %MON forcing_fu_del2              =   6.6831144155872E-04
(PID.TID 0000.0001) %MON forcing_fv_max               =   1.9141846299171E-01
(PID.TID 0000.0001) %MON forcing_fv_min               =  -1.6525000333786E-01
(PID.TID 0000.0001) %MON forcing_fv_mean              =  -6.1072895268024E-03
(PID.TID 0000.0001) %MON forcing_fv_sd                =   4.5167602989543E-02
(PID.TID 0000.0001) %MON forcing_fv_del2              =   4.6381451541736E-04
(PID.TID 0000.0001) %MON trAdv_CFL_u_max              =   6.8491556413483E-02
(PID.TID 0000.0001) %MON trAdv_CFL_v_max              =   2.5982904523855E-02
(PID.TID 0000.0001) %MON trAdv_CFL_w_max              =   1.0620970375914E-01
(PID.TID 0000.0001) %MON advcfl_uvel_max              =   7.2847536500386E-02
(PID.TID 0000.0001) %MON advcfl_vvel_max              =   2.6061648886598E-02
(PID.TID 0000.0001) %MON advcfl_wvel_max              =   1.0106762120189E-01
(PID.TID 0000.0001) %MON advcfl_W_hf_max              =   1.1436599241266E-01
(PID.TID 0000.0001) %MON pe_b_mean                    =   4.8547445067660E-04
(PID.TID 0000.0001) %MON ke_max                       =   2.3801496225097E-02
(PID.TID 0000.0001) %MON ke_mean                      =   3.1072907301277E-04
(PID.TID 0000.0001) %MON ke_vol                       =   1.3226782436723E+18
(PID.TID 0000.0001) %MON vort_r_min                   =  -7.0274278270586E-07
(PID.TID 0000.0001) %MON vort_r_max                   =   5.8168504390232E-07
(PID.TID 0000.0001) %MON vort_a_mean                  =  -2.5274807937364E-05
(PID.TID 0000.0001) %MON vort_a_sd                    =   7.3604528493958E-05
(PID.TID 0000.0001) %MON vort_p_mean                  =  -3.1845656479749E-05
(PID.TID 0000.0001) %MON vort_p_sd                    =   1.3162897436834E-04
(PID.TID 0000.0001) %MON surfExpan_theta_mean         =   1.0790713563836E-07
(PID.TID 0000.0001) %MON surfExpan_salt_mean          =  -2.7944632062387E-07
(PID.TID 0000.0001) // =======================================================
(PID.TID 0000.0001) // End MONITOR dynamic field statistics
(PID.TID 0000.0001) // =======================================================
 EXTERNAL_FIELDS_LOAD,        29 : iP,iLd,i0,i1=    1    2    1    2 ; Wght=  0.5333333333  0.4666666667
 EXTERNAL_FIELDS_LOAD: (fu0,1),fu,fv= -3.5633E-02 -1.4435E-02 -2.5740E-02 -3.8767E-02
 EXTERNAL_FIELDS_LOAD: SST,SSS,Q,E-P=  2.6296E-01  3.4578E+01  2.5397E+02  1.0116E-05
DEBUG_STATS_RL:          Uvel (THERMODYNAMICS)  min= -1.85924835688382E-01
DEBUG_STATS_RL:          Uvel (THERMODYNAMICS)  max=  2.20392394697977E-01
DEBUG_STATS_RL:          Uvel (THERMODYNAMICS) mean=  4.46344347195906E-03
DEBUG_STATS_RL:          Uvel (THERMODYNAMICS) S.D.=  2.81401098800851E-02
DEBUG_STATS_RL:          Vvel (THERMODYNAMICS)  min= -1.22551478174196E-01
DEBUG_STATS_RL:          Vvel (THERMODYNAMICS)  max=  1.34142049749997E-01
DEBUG_STATS_RL:          Vvel (THERMODYNAMICS) mean=  5.82370076947499E-04
DEBUG_STATS_RL:          Vvel (THERMODYNAMICS) S.D.=  1.70092201222156E-02
DEBUG_STATS_RL:          Wvel (THERMODYNAMICS)  min= -2.88581909782882E-04
DEBUG_STATS_RL:          Wvel (THERMODYNAMICS)  max=  2.26819693277652E-04
DEBUG_STATS_RL:          Wvel (THERMODYNAMICS) mean= -3.16917254658312E-09
DEBUG_STATS_RL:          Wvel (THERMODYNAMICS) S.D.=  1.94180897313993E-05
DEBUG_STATS_RL:         Theta (THERMODYNAMICS)  min= -2.00583473152248E+00
DEBUG_STATS_RL:         Theta (THERMODYNAMICS)  max=  3.02002237068059E+01
DEBUG_STATS_RL:         Theta (THERMODYNAMICS) mean=  3.23876343207354E+00
DEBUG_STATS_RL:         Theta (THERMODYNAMICS) S.D.=  5.85819421574589E+00
DEBUG_STATS_RL:          Salt (THERMODYNAMICS)  min=  3.00000000000000E-02
DEBUG_STATS_RL:          Salt (THERMODYNAMICS)  max=  3.74792952859304E+01
DEBUG_STATS_RL:          Salt (THERMODYNAMICS) mean=  1.88749118016450E+01
DEBUG_STATS_RL:          Salt (THERMODYNAMICS) S.D.=  1.73004169471872E+01
DEBUG_STATS_RL:         GtNm1 (THERMODYNAMICS)  min= -3.66657424801814E-06
DEBUG_STATS_RL:         GtNm1 (THERMODYNAMICS)  max=  3.04752079181394E-06
DEBUG_STATS_RL:         GtNm1 (THERMODYNAMICS) mean=  3.72513255161909E-09
DEBUG_STATS_RL:         GtNm1 (THERMODYNAMICS) S.D.=  2.32922306398477E-07
DEBUG_STATS_RL:         GsNm1 (THERMODYNAMICS)  min= -7.34758375614811E-07
DEBUG_STATS_RL:         GsNm1 (THERMODYNAMICS)  max=  5.85673158161047E-07
DEBUG_STATS_RL:         GsNm1 (THERMODYNAMICS) mean= -5.68101545584281E-10
DEBUG_STATS_RL:         GsNm1 (THERMODYNAMICS) S.D.=  2.19725249084663E-08
DEBUG_STATS_RL:                EtaN (DYNAMICS)  min= -2.19304974570828E+00
DEBUG_STATS_RL:                EtaN (DYNAMICS)  max=  1.23898721078258E+00
DEBUG_STATS_RL:                EtaN (DYNAMICS) mean= -1.38285292676889E-01
DEBUG_STATS_RL:                EtaN (DYNAMICS) S.D.=  7.30626730556308E-01
DEBUG_STATS_RL:                Uvel (DYNAMICS)  min= -1.85924835688382E-01
DEBUG_STATS_RL:                Uvel (DYNAMICS)  max=  2.20392394697977E-01
DEBUG_STATS_RL:                Uvel (DYNAMICS) mean=  4.46344347195906E-03
DEBUG_STATS_RL:                Uvel (DYNAMICS) S.D.=  2.81401098800851E-02
DEBUG_STATS_RL:                Vvel (DYNAMICS)  min= -1.22551478174196E-01
DEBUG_STATS_RL:                Vvel (DYNAMICS)  max=  1.34142049749997E-01
DEBUG_STATS_RL:                Vvel (DYNAMICS) mean=  5.82370076947499E-04
DEBUG_STATS_RL:                Vvel (DYNAMICS) S.D.=  1.70092201222156E-02
DEBUG_STATS_RL:                Wvel (DYNAMICS)  min= -2.88581909782882E-04
DEBUG_STATS_RL:                Wvel (DYNAMICS)  max=  2.26819693277652E-04
DEBUG_STATS_RL:                Wvel (DYNAMICS) mean= -3.16917254658312E-09
DEBUG_STATS_RL:                Wvel (DYNAMICS) S.D.=  1.94180897313993E-05
DEBUG_STATS_RL:               Theta (DYNAMICS)  min= -2.00583473152248E+00
DEBUG_STATS_RL:               Theta (DYNAMICS)  max=  3.02002237068059E+01
DEBUG_STATS_RL:               Theta (DYNAMICS) mean=  3.23876343207354E+00
DEBUG_STATS_RL:               Theta (DYNAMICS) S.D.=  5.85819421574589E+00
DEBUG_STATS_RL:                Salt (DYNAMICS)  min=  3.00000000000000E-02
DEBUG_STATS_RL:                Salt (DYNAMICS)  max=  3.74792952859304E+01
DEBUG_STATS_RL:                Salt (DYNAMICS) mean=  1.88749118016450E+01
DEBUG_STATS_RL:                Salt (DYNAMICS) S.D.=  1.73004169471872E+01
DEBUG_STATS_RL:                  Gu (DYNAMICS)  min= -1.89591139293149E-01
DEBUG_STATS_RL:                  Gu (DYNAMICS)  max=  2.14334230941585E-01
DEBUG_STATS_RL:                  Gu (DYNAMICS) mean=  5.20296409210671E-03
DEBUG_STATS_RL:                  Gu (DYNAMICS) S.D.=  2.92525755319252E-02
DEBUG_STATS_RL:                  Gv (DYNAMICS)  min= -1.26756871939002E-01
DEBUG_STATS_RL:                  Gv (DYNAMICS)  max=  1.25762043840406E-01
DEBUG_STATS_RL:                  Gv (DYNAMICS) mean=  2.94280805748757E-03
DEBUG_STATS_RL:                  Gv (DYNAMICS) S.D.=  1.74551601525677E-02
DEBUG_STATS_RL:               GuNm1 (DYNAMICS)  min= -8.13310072728249E-06
DEBUG_STATS_RL:               GuNm1 (DYNAMICS)  max=  7.75240206354701E-06
DEBUG_STATS_RL:               GuNm1 (DYNAMICS) mean= -1.50370255378003E-08
DEBUG_STATS_RL:               GuNm1 (DYNAMICS) S.D.=  1.21908968889881E-06
DEBUG_STATS_RL:               GvNm1 (DYNAMICS)  min= -1.09071202116488E-05
DEBUG_STATS_RL:               GvNm1 (DYNAMICS)  max=  1.67707837513333E-05
DEBUG_STATS_RL:               GvNm1 (DYNAMICS) mean=  7.70901013646731E-07
DEBUG_STATS_RL:               GvNm1 (DYNAMICS) S.D.=  2.67161023970296E-06
DEBUG_STATS_RL:               GtNm1 (DYNAMICS)  min= -3.66657424801814E-06
DEBUG_STATS_RL:               GtNm1 (DYNAMICS)  max=  3.04752079181394E-06
DEBUG_STATS_RL:               GtNm1 (DYNAMICS) mean=  3.72513255161909E-09
DEBUG_STATS_RL:               GtNm1 (DYNAMICS) S.D.=  2.32922306398477E-07
DEBUG_STATS_RL:               GsNm1 (DYNAMICS)  min= -7.34758375614811E-07
DEBUG_STATS_RL:               GsNm1 (DYNAMICS)  max=  5.85673158161047E-07
DEBUG_STATS_RL:               GsNm1 (DYNAMICS) mean= -5.68101545584281E-10
DEBUG_STATS_RL:               GsNm1 (DYNAMICS) S.D.=  2.19725249084663E-08
DEBUG_STATS_RL:    cg2d_b (SOLVE_FOR_PRESSURE)  min= -2.13461485414901E+04
DEBUG_STATS_RL:    cg2d_b (SOLVE_FOR_PRESSURE)  max=  2.26788326780084E+04
DEBUG_STATS_RL:    cg2d_b (SOLVE_FOR_PRESSURE) mean=  2.12719986893492E+00
DEBUG_STATS_RL:    cg2d_b (SOLVE_FOR_PRESSURE) S.D.=  4.08617671587607E+03
 cg2d: Sum(rhs),rhsMax =   2.17139381312093E-01  1.48960645118131E+00
(PID.TID 0000.0001)  cg2d: iter=     1 ; resid.=  4.06744774233291E-01
(PID.TID 0000.0001)  cg2d: iter=     2 ; resid.=  3.67649063405919E-01
(PID.TID 0000.0001)  cg2d: iter=     3 ; resid.=  3.24624220988428E-01
(PID.TID 0000.0001)  cg2d: iter=     4 ; resid.=  2.80105443735009E-01
(PID.TID 0000.0001)  cg2d: iter=     5 ; resid.=  2.50232782625526E-01
(PID.TID 0000.0001)  cg2d: iter=     6 ; resid.=  2.22124353711272E-01
(PID.TID 0000.0001)  cg2d: iter=     7 ; resid.=  1.79795795609105E-01
(PID.TID 0000.0001)  cg2d: iter=     8 ; resid.=  1.37392746577691E-01
(PID.TID 0000.0001)  cg2d: iter=     9 ; resid.=  1.09376764414976E-01
(PID.TID 0000.0001)  cg2d: iter=    10 ; resid.=  9.77077806756538E-02
(PID.TID 0000.0001)  cg2d: iter=    11 ; resid.=  8.42798324083312E-02
(PID.TID 0000.0001)  cg2d: iter=    12 ; resid.=  7.15363751170283E-02
(PID.TID 0000.0001)  cg2d: iter=    13 ; resid.=  5.55988431707825E-02
(PID.TID 0000.0001)  cg2d: iter=    14 ; resid.=  4.17890692047271E-02
(PID.TID 0000.0001)  cg2d: iter=    15 ; resid.=  3.36966431285922E-02
(PID.TID 0000.0001)  cg2d: iter=    16 ; resid.=  3.02620979792349E-02
(PID.TID 0000.0001)  cg2d: iter=    17 ; resid.=  2.58007974843163E-02
(PID.TID 0000.0001)  cg2d: iter=    18 ; resid.=  2.25115698295320E-02
(PID.TID 0000.0001)  cg2d: iter=    19 ; resid.=  1.79887374171443E-02
(PID.TID 0000.0001)  cg2d: iter=    20 ; resid.=  1.52707907139348E-02
(PID.TID 0000.0001)  cg2d: iter=    21 ; resid.=  1.33972106599686E-02
(PID.TID 0000.0001)  cg2d: iter=    22 ; resid.=  1.20921689066015E-02
(PID.TID 0000.0001)  cg2d: iter=    23 ; resid.=  1.01848744523254E-02
(PID.TID 0000.0001)  cg2d: iter=    24 ; resid.=  8.30684120797374E-03
(PID.TID 0000.0001)  cg2d: iter=    25 ; resid.=  6.04335051577917E-03
(PID.TID 0000.0001)  cg2d: iter=    26 ; resid.=  5.19609324467903E-03
(PID.TID 0000.0001)  cg2d: iter=    27 ; resid.=  4.31421966817457E-03
(PID.TID 0000.0001)  cg2d: iter=    28 ; resid.=  3.49719704572552E-03
(PID.TID 0000.0001)  cg2d: iter=    29 ; resid.=  2.77343239791784E-03
(PID.TID 0000.0001)  cg2d: iter=    30 ; resid.=  2.25005330945685E-03
(PID.TID 0000.0001)  cg2d: iter=    31 ; resid.=  1.84556405608285E-03
(PID.TID 0000.0001)  cg2d: iter=    32 ; resid.=  1.54515915410047E-03
(PID.TID 0000.0001)  cg2d: iter=    33 ; resid.=  1.24448612869857E-03
(PID.TID 0000.0001)  cg2d: iter=    34 ; resid.=  1.04271661845187E-03
(PID.TID 0000.0001)  cg2d: iter=    35 ; resid.=  8.43821006210166E-04
(PID.TID 0000.0001)  cg2d: iter=    36 ; resid.=  7.16203606538156E-04
(PID.TID 0000.0001)  cg2d: iter=    37 ; resid.=  6.38786776602712E-04
(PID.TID 0000.0001)  cg2d: iter=    38 ; resid.=  5.61863969336690E-04
(PID.TID 0000.0001)  cg2d: iter=    39 ; resid.=  4.48434963755887E-04
(PID.TID 0000.0001)  cg2d: iter=    40 ; resid.=  3.79312084196820E-04
(PID.TID 0000.0001)  cg2d: iter=    41 ; resid.=  3.40377912998439E-04
(PID.TID 0000.0001)  cg2d: iter=    42 ; resid.=  3.11369640279330E-04
(PID.TID 0000.0001)  cg2d: iter=    43 ; resid.=  2.52638136833279E-04
(PID.TID 0000.0001)  cg2d: iter=    44 ; resid.=  2.11487447597122E-04
(PID.TID 0000.0001)  cg2d: iter=    45 ; resid.=  1.78786565175200E-04
(PID.TID 0000.0001)  cg2d: iter=    46 ; resid.=  1.44009913866026E-04
(PID.TID 0000.0001)  cg2d: iter=    47 ; resid.=  1.22363598186685E-04
(PID.TID 0000.0001)  cg2d: iter=    48 ; resid.=  9.57500351418358E-05
(PID.TID 0000.0001)  cg2d: iter=    49 ; resid.=  7.17361606847176E-05
(PID.TID 0000.0001)  cg2d: iter=    50 ; resid.=  5.90912904459982E-05
(PID.TID 0000.0001)  cg2d: iter=    51 ; resid.=  5.28014684643653E-05
(PID.TID 0000.0001)  cg2d: iter=    52 ; resid.=  4.64803064015650E-05
(PID.TID 0000.0001)  cg2d: iter=    53 ; resid.=  4.01334904665258E-05
(PID.TID 0000.0001)  cg2d: iter=    54 ; resid.=  3.23517471881268E-05
(PID.TID 0000.0001)  cg2d: iter=    55 ; resid.=  3.01927958400955E-05
(PID.TID 0000.0001)  cg2d: iter=    56 ; resid.=  2.75749885085120E-05
(PID.TID 0000.0001)  cg2d: iter=    57 ; resid.=  2.16712534219930E-05
(PID.TID 0000.0001)  cg2d: iter=    58 ; resid.=  1.76463241293996E-05
(PID.TID 0000.0001)  cg2d: iter=    59 ; resid.=  1.35807206699536E-05
(PID.TID 0000.0001)  cg2d: iter=    60 ; resid.=  1.08112827702034E-05
(PID.TID 0000.0001)  cg2d: iter=    61 ; resid.=  8.92497395430419E-06
(PID.TID 0000.0001)  cg2d: iter=    62 ; resid.=  7.54131112680754E-06
(PID.TID 0000.0001)  cg2d: iter=    63 ; resid.=  5.62047825007698E-06
(PID.TID 0000.0001)  cg2d: iter=    64 ; resid.=  4.72075961801533E-06
(PID.TID 0000.0001)  cg2d: iter=    65 ; resid.=  3.50574787227559E-06
(PID.TID 0000.0001)  cg2d: iter=    66 ; resid.=  2.94716149397330E-06
(PID.TID 0000.0001)  cg2d: iter=    67 ; resid.=  2.68593677587436E-06
(PID.TID 0000.0001)  cg2d: iter=    68 ; resid.=  2.28942744064343E-06
(PID.TID 0000.0001)  cg2d: iter=    69 ; resid.=  1.90134670098458E-06
(PID.TID 0000.0001)  cg2d: iter=    70 ; resid.=  1.64138440512809E-06
(PID.TID 0000.0001)  cg2d: iter=    71 ; resid.=  1.32633939476272E-06
(PID.TID 0000.0001)  cg2d: iter=    72 ; resid.=  1.14598065496873E-06
(PID.TID 0000.0001)  cg2d: iter=    73 ; resid.=  9.73341048633743E-07
(PID.TID 0000.0001)  cg2d: iter=    74 ; resid.=  8.38169631047038E-07
(PID.TID 0000.0001)  cg2d: iter=    75 ; resid.=  6.54321115795749E-07
(PID.TID 0000.0001)  cg2d: iter=    76 ; resid.=  5.66815623358770E-07
(PID.TID 0000.0001)  cg2d: iter=    77 ; resid.=  4.63611913963482E-07
(PID.TID 0000.0001)  cg2d: iter=    78 ; resid.=  3.74373013628061E-07
(PID.TID 0000.0001)  cg2d: iter=    79 ; resid.=  3.07795345332251E-07
(PID.TID 0000.0001)  cg2d: iter=    80 ; resid.=  2.35446721825043E-07
(PID.TID 0000.0001)  cg2d: iter=    81 ; resid.=  1.97392515532930E-07
(PID.TID 0000.0001)  cg2d: iter=    82 ; resid.=  1.52893688218376E-07
(PID.TID 0000.0001)  cg2d: iter=    83 ; resid.=  1.12888762236675E-07
(PID.TID 0000.0001)  cg2d: iter=    84 ; resid.=  8.50137446043022E-08
(PID.TID 0000.0001)  cg2d: iter=    85 ; resid.=  6.25289001955700E-08
(PID.TID 0000.0001)  cg2d: iter=    86 ; resid.=  4.53872036770284E-08
(PID.TID 0000.0001)  cg2d: iter=    87 ; resid.=  3.32603567322407E-08
(PID.TID 0000.0001)  cg2d: iter=    88 ; resid.=  2.69158924420105E-08
(PID.TID 0000.0001)  cg2d: iter=    89 ; resid.=  2.30100389859979E-08
(PID.TID 0000.0001)  cg2d: iter=    90 ; resid.=  1.98196968491235E-08
(PID.TID 0000.0001)  cg2d: iter=    91 ; resid.=  1.54771654059652E-08
(PID.TID 0000.0001)  cg2d: iter=    92 ; resid.=  1.16606178254649E-08
(PID.TID 0000.0001)  cg2d: iter=    93 ; resid.=  9.28088033454271E-09
(PID.TID 0000.0001)  cg2d: iter=    94 ; resid.=  7.34779499928419E-09
(PID.TID 0000.0001)  cg2d: iter=    95 ; resid.=  6.04042702565742E-09
(PID.TID 0000.0001)  cg2d: iter=    96 ; resid.=  4.50763430777326E-09
(PID.TID 0000.0001)  cg2d: iter=    97 ; resid.=  3.67984159433423E-09
(PID.TID 0000.0001)  cg2d: iter=    98 ; resid.=  3.10798460234004E-09
(PID.TID 0000.0001)  cg2d: iter=    99 ; resid.=  2.60242930577814E-09
(PID.TID 0000.0001)  cg2d: iter=   100 ; resid.=  2.13125545688278E-09
(PID.TID 0000.0001)  cg2d: iter=   101 ; resid.=  1.72296158983517E-09
(PID.TID 0000.0001)  cg2d: iter=   102 ; resid.=  1.38442863875843E-09
(PID.TID 0000.0001)  cg2d: iter=   103 ; resid.=  1.07407971076079E-09
(PID.TID 0000.0001)  cg2d: iter=   104 ; resid.=  9.19736484678490E-10
(PID.TID 0000.0001)  cg2d: iter=   105 ; resid.=  7.56558124747871E-10
(PID.TID 0000.0001)  cg2d: iter=   106 ; resid.=  6.72865773802172E-10
(PID.TID 0000.0001)  cg2d: iter=   107 ; resid.=  5.78558169252659E-10
(PID.TID 0000.0001)  cg2d: iter=   108 ; resid.=  4.24569300647552E-10
(PID.TID 0000.0001)  cg2d: iter=   109 ; resid.=  3.25425862273068E-10
(PID.TID 0000.0001)  cg2d: iter=   110 ; resid.=  2.38209788708961E-10
(PID.TID 0000.0001)  cg2d: iter=   111 ; resid.=  1.68164537794080E-10
(PID.TID 0000.0001)  cg2d: iter=   112 ; resid.=  1.21375795297119E-10
(PID.TID 0000.0001)  cg2d: iter=   113 ; resid.=  8.70584056360093E-11
(PID.TID 0000.0001)  cg2d: iter=   114 ; resid.=  6.50375775982340E-11
(PID.TID 0000.0001)  cg2d: iter=   115 ; resid.=  4.68169953483045E-11
(PID.TID 0000.0001)  cg2d: iter=   116 ; resid.=  3.44902723290748E-11
(PID.TID 0000.0001)  cg2d: iter=   117 ; resid.=  2.64594032827664E-11
(PID.TID 0000.0001)  cg2d: iter=   118 ; resid.=  2.04948058744224E-11
(PID.TID 0000.0001)  cg2d: iter=   119 ; resid.=  1.60798526910213E-11
(PID.TID 0000.0001)  cg2d: iter=   120 ; resid.=  1.24238027709766E-11
(PID.TID 0000.0001)  cg2d: iter=   121 ; resid.=  9.36086265736880E-12
(PID.TID 0000.0001)  cg2d: iter=   122 ; resid.=  6.88480598445147E-12
(PID.TID 0000.0001)  cg2d: iter=   123 ; resid.=  5.36952439409078E-12
(PID.TID 0000.0001)  cg2d: iter=   124 ; resid.=  4.55109319816479E-12
(PID.TID 0000.0001)  cg2d: iter=   125 ; resid.=  3.23376569711599E-12
(PID.TID 0000.0001)  cg2d: iter=   126 ; resid.=  2.05311511329409E-12
(PID.TID 0000.0001)  cg2d: iter=   127 ; resid.=  1.36271797877075E-12
(PID.TID 0000.0001)  cg2d: iter=   128 ; resid.=  9.69320116128856E-13
(PID.TID 0000.0001)  cg2d: iter=   129 ; resid.=  6.96755403372449E-13
(PID.TID 0000.0001)  cg2d: iter=   130 ; resid.=  5.31066067211625E-13
(PID.TID 0000.0001)  cg2d: iter=   131 ; resid.=  3.75728651754254E-13
(PID.TID 0000.0001)  cg2d: iter=   132 ; resid.=  2.68520948364308E-13
(PID.TID 0000.0001)  cg2d: iter=   133 ; resid.=  2.03114060442603E-13
(PID.TID 0000.0001)  cg2d: iter=   134 ; resid.=  1.59192178656925E-13
(PID.TID 0000.0001)  cg2d: iter=   135 ; resid.=  1.23026527342022E-13
(PID.TID 0000.0001)  cg2d: iter=   136 ; resid.=  8.79196303897438E-14
DEBUG_STATS_RL:    cg2d_x (SOLVE_FOR_PRESSURE)  min= -2.08293408076584E+01
DEBUG_STATS_RL:    cg2d_x (SOLVE_FOR_PRESSURE)  max=  1.23350820362912E+01
DEBUG_STATS_RL:    cg2d_x (SOLVE_FOR_PRESSURE) mean= -1.37577394319836E+00
DEBUG_STATS_RL:    cg2d_x (SOLVE_FOR_PRESSURE) S.D.=  7.00944664977545E+00
(PID.TID 0000.0001)      cg2d_init_res =   6.06169325346657E-01
(PID.TID 0000.0001)      cg2d_iters(min,last) =      -1     136
(PID.TID 0000.0001)      cg2d_last_res =   8.79196303897438E-14
(PID.TID 0000.0001) // =======================================================
(PID.TID 0000.0001) // Begin MONITOR dynamic field statistics
(PID.TID 0000.0001) // =======================================================
(PID.TID 0000.0001) %MON time_tsnumber                =                    30
(PID.TID 0000.0001) %MON time_secondsf                =   2.5920000000000E+06
(PID.TID 0000.0001) %MON dynstat_eta_max              =   1.2573987804578E+00
(PID.TID 0000.0001) %MON dynstat_eta_min              =  -2.1232763310560E+00
(PID.TID 0000.0001) %MON dynstat_eta_mean             =  -2.2194692991570E-03
(PID.TID 0000.0001) %MON dynstat_eta_sd               =   6.0299975153121E-01
(PID.TID 0000.0001) %MON dynstat_eta_del2             =   2.2422788588895E-03
(PID.TID 0000.0001) %MON dynstat_uvel_max             =   2.2789411341514E-01
(PID.TID 0000.0001) %MON dynstat_uvel_min             =  -1.8823152006029E-01
(PID.TID 0000.0001) %MON dynstat_uvel_mean            =   2.7573152947032E-03
(PID.TID 0000.0001) %MON dynstat_uvel_sd              =   2.3171245545272E-02
(PID.TID 0000.0001) %MON dynstat_uvel_del2            =   1.1298379852459E-04
(PID.TID 0000.0001) %MON dynstat_vvel_max             =   1.3523755180512E-01
(PID.TID 0000.0001) %MON dynstat_vvel_min             =  -1.2035757553830E-01
(PID.TID 0000.0001) %MON dynstat_vvel_mean            =  -1.3169858814676E-04
(PID.TID 0000.0001) %MON dynstat_vvel_sd              =   1.2591927017305E-02
(PID.TID 0000.0001) %MON dynstat_vvel_del2            =   9.9384222275077E-05
(PID.TID 0000.0001) %MON dynstat_wvel_max             =   2.3807202910769E-04
(PID.TID 0000.0001) %MON dynstat_wvel_min             =  -2.8963123135407E-04
(PID.TID 0000.0001) %MON dynstat_wvel_mean            =  -2.0787733209111E-22
(PID.TID 0000.0001) %MON dynstat_wvel_sd              =   2.1468276448002E-05
(PID.TID 0000.0001) %MON dynstat_wvel_del2            =   2.3516476587305E-07
(PID.TID 0000.0001) %MON dynstat_theta_max            =   3.0200223706806E+01
(PID.TID 0000.0001) %MON dynstat_theta_min            =  -2.0058347315225E+00
(PID.TID 0000.0001) %MON dynstat_theta_mean           =   3.6509780428357E+00
(PID.TID 0000.0001) %MON dynstat_theta_sd             =   4.4174610625717E+00
(PID.TID 0000.0001) %MON dynstat_theta_del2           =   4.8913361557261E-03
(PID.TID 0000.0001) %MON dynstat_salt_max             =   3.7479295285930E+01
(PID.TID 0000.0001) %MON dynstat_salt_min             =   2.9866823858034E+01
(PID.TID 0000.0001) %MON dynstat_salt_mean            =   3.4747942358167E+01
(PID.TID 0000.0001) %MON dynstat_salt_sd              =   2.9616224656808E-01
(PID.TID 0000.0001) %MON dynstat_salt_del2            =   9.9950442722672E-04
(PID.TID 0000.0001) %MON dynstat_sst_max              =   3.0200223706806E+01
(PID.TID 0000.0001) %MON dynstat_sst_min              =  -2.0058347315225E+00
(PID.TID 0000.0001) %MON dynstat_sst_mean             =   1.8764178500508E+01
(PID.TID 0000.0001) %MON dynstat_sst_sd               =   9.0503106651277E+00
(PID.TID 0000.0001) %MON dynstat_sst_del2             =   2.6744826692191E-02
(PID.TID 0000.0001) %MON dynstat_sss_max              =   3.7459992667749E+01
(PID.TID 0000.0001) %MON dynstat_sss_min              =   2.9866823858034E+01
(PID.TID 0000.0001) %MON dynstat_sss_mean             =   3.4876638969729E+01
(PID.TID 0000.0001) %MON dynstat_sss_sd               =   9.7500841752265E-01
(PID.TID 0000.0001) %MON dynstat_sss_del2             =   7.8917629462239E-03
(PID.TID 0000.0001) %MON forcing_qnet_max             =   3.9514640299479E+02
(PID.TID 0000.0001) %MON forcing_qnet_min             =  -1.7666627705892E+02
(PID.TID 0000.0001) %MON forcing_qnet_mean            =  -1.5323797657397E+01
(PID.TID 0000.0001) %MON forcing_qnet_sd              =   9.5133125046695E+01
(PID.TID 0000.0001) %MON forcing_qnet_del2            =   9.7583035332786E-01
(PID.TID 0000.0001) %MON forcing_qsw_max              =   0.0000000000000E+00
(PID.TID 0000.0001) %MON forcing_qsw_min              =   0.0000000000000E+00
(PID.TID 0000.0001) %MON forcing_qsw_mean             =   0.0000000000000E+00
(PID.TID 0000.0001) %MON forcing_qsw_sd               =   0.0000000000000E+00
(PID.TID 0000.0001) %MON forcing_qsw_del2             =   0.0000000000000E+00
(PID.TID 0000.0001) %MON forcing_empmr_max            =   7.7776982720934E-05
(PID.TID 0000.0001) %MON forcing_empmr_min            =  -7.7270975869700E-05
(PID.TID 0000.0001) %MON forcing_empmr_mean           =   9.3249062375004E-07
(PID.TID 0000.0001) %MON forcing_empmr_sd             =   2.8214611087815E-05
(PID.TID 0000.0001) %MON forcing_empmr_del2           =   3.5545803972656E-07
(PID.TID 0000.0001) %MON forcing_fu_max               =   2.8244099617004E-01
(PID.TID 0000.0001) %MON forcing_fu_min               =  -1.8917357027531E-01
(PID.TID 0000.0001) %MON forcing_fu_mean              =   1.6761938169132E-02
(PID.TID 0000.0001) %MON forcing_fu_sd                =   9.0031773326239E-02
(PID.TID 0000.0001) %MON forcing_fu_del2              =   6.6818963371085E-04
(PID.TID 0000.0001) %MON forcing_fv_max               =   1.9031694233418E-01
(PID.TID 0000.0001) %MON forcing_fv_min               =  -1.6425870358944E-01
(PID.TID 0000.0001) %MON forcing_fv_mean              =  -6.1725504335176E-03
(PID.TID 0000.0001) %MON forcing_fv_sd                =   4.5033516804219E-02
(PID.TID 0000.0001) %MON forcing_fv_del2              =   4.6460661813294E-04
(PID.TID 0000.0001) %MON trAdv_CFL_u_max              =   7.2862332356064E-02
(PID.TID 0000.0001) %MON trAdv_CFL_v_max              =   2.6277882376409E-02
(PID.TID 0000.0001) %MON trAdv_CFL_w_max              =   1.1436599241266E-01
(PID.TID 0000.0001) %MON advcfl_uvel_max              =   7.5327121736587E-02
(PID.TID 0000.0001) %MON advcfl_vvel_max              =   2.6274487366168E-02
(PID.TID 0000.0001) %MON advcfl_wvel_max              =   1.0501585217403E-01
(PID.TID 0000.0001) %MON advcfl_W_hf_max              =   1.1883372746009E-01
(PID.TID 0000.0001) %MON pe_b_mean                    =   4.6528746234658E-04
(PID.TID 0000.0001) %MON ke_max                       =   2.6865905561891E-02
(PID.TID 0000.0001) %MON ke_mean                      =   3.1856967061379E-04
(PID.TID 0000.0001) %MON ke_vol                       =   1.3226782436723E+18
(PID.TID 0000.0001) %MON vort_r_min                   =  -6.6330262090999E-07
(PID.TID 0000.0001) %MON vort_r_max                   =   6.4500163665005E-07
(PID.TID 0000.0001) %MON vort_a_mean                  =  -2.5274808184735E-05
(PID.TID 0000.0001) %MON vort_a_sd                    =   7.3604615960764E-05
(PID.TID 0000.0001) %MON vort_p_mean                  =  -3.1845656791431E-05
(PID.TID 0000.0001) %MON vort_p_sd                    =   1.3162898282754E-04
(PID.TID 0000.0001) %MON surfExpan_theta_mean         =   3.1785671326633E-07
(PID.TID 0000.0001) %MON surfExpan_salt_mean          =  -3.3719583941355E-07
(PID.TID 0000.0001) // =======================================================
(PID.TID 0000.0001) // End MONITOR dynamic field statistics
(PID.TID 0000.0001) // =======================================================
(PID.TID 0000.0001) // =======================================================
(PID.TID 0000.0001) // Field Current uVel   at iteration         30
(PID.TID 0000.0001) // CMIN =         -1.882315200602922E-01
(PID.TID 0000.0001) // CMAX =          2.278941134151387E-01
(PID.TID 0000.0001) // CINT =          1.541206049909003E-02
(PID.TID 0000.0001) // SYMBOLS (CMIN->CMAX): -abcdefghijklmnopqrstuvwxyz+
(PID.TID 0000.0001) //                  0.0: .
(PID.TID 0000.0001) // RANGE I (Lo:Hi:Step):(     1:    90:     1)
(PID.TID 0000.0001) // RANGE J (Lo:Hi:Step):(    40:     1:    -1)
(PID.TID 0000.0001) // RANGE K (Lo:Hi:Step):(   1:   1:   1)
(PID.TID 0000.0001) // =======================================================
(PID.TID 0000.0001) K =   1
(PID.TID 0000.0001)                I=10      I=20      I=30      I=40      I=50      I=60      I=70      I=80      I=90
(PID.TID 0000.0001) |--J--|123456789|123456789|123456789|123456789|123456789|123456789|123456789|123456789|123456789|
(PID.TID 0000.0001)     40 mmmll..llllllllllll...................................................................llmm
(PID.TID 0000.0001)     39 kllkklllllllll....l......................................................lll.........kjijk
(PID.TID 0000.0001)     38 lllllllmmmmmm............................................................mlll.......jiijkk
(PID.TID 0000.0001)     37 mmm...................................................................m....kl....kkjk..mmm
(PID.TID 0000.0001)     36 on..........................................kkl.....................kllmmmmljl..kjlllmmnno
(PID.TID 0000.0001)     35 ml..................................kll...llkkkl....lllm............mm.....lllljjllllmmmll
(PID.TID 0000.0001)     34 ....................................lll..kmmllll..lkkllmm...................mlllmmmmmmmm..
(PID.TID 0000.0001)     33 .....................................lkkklmnmlmmmllmmmmmmmm..................monnnnnmmlll.
(PID.TID 0000.0001)     32 .....................................jkkllmmnnnnnnmmnnnnnmm.................mpqnnonnmlkkk.
(PID.TID 0000.0001)     31 .....................................lllmmmmnnnnnnnnnnooonm...............lqutrppoonmlll..
(PID.TID 0000.0001)     30 ....................................mnnnnnnnnnnnnooooopponm.............kmopqqqpppoommll..
(PID.TID 0000.0001)     29 ..................................npqponoooooooooooooppoonml............opppoonnnonnmllk..
(PID.TID 0000.0001)     28 ................................mnppponmnonnooonnoooppoonmlll..........ooonnnmmmmmmllkkj..
(PID.TID 0000.0001)     27 ...............l...............mnllmmlklmnmmmmmmmmmnnnnmllkkkl....mmm..oonmmmmlllkkkkk....
(PID.TID 0000.0001)     26 ...............lk............jijjhhhhhhikkkkjjjjjjjjjjjjiiiijklm..lmmmnmmllllkjjjjiihi....
(PID.TID 0000.0001)     25 ...............kik....ll....ifghfcbccdeefffgffffffffeeeeddefhijkl....kiiihhhigffghfefg....
(PID.TID 0000.0001)     24 .............ihihij..kik....gi..ib--abaababccccddedddccbbbcdffhiiiij..ihffeefeeeefeffg....
(PID.TID 0000.0001)     23 .............hdffgi..igj....gj...fecdddcdcddeffghhgghhhhhggghhihhgghi.....ggjhgffggiij....
(PID.TID 0000.0001)     22 l............gfgffgihiij....k..ljlkiiiiihghhjjjkkkklkllmmkjkklllkkjijl.......kihgijklmlmmm
(PID.TID 0000.0001)     21 kkk.........iijihhjkkllll......ompnlmmnmlkklmllllkmmlnmmmmlklnnnllkklm.........kjkllmmlmnl
(PID.TID 0000.0001)     20 kkk........klmnnmllmnnnmm.........mnonoononnonmmmmmmmnmmnmlkmonnlmlkkl..........lklllllmom
(PID.TID 0000.0001)     19 mkj........mmoprolllnmlllkl....mo......loqppppopponmnnmnnlkklmkkkkkjjk............kkllmmlm
(PID.TID 0000.0001)     18 kjk........nikllihiijjijkklmnoolm....mplqpopppooooonnnmmlkjjkjhjjiijjll...........kkklmljk
(PID.TID 0000.0001)     17 hhj..........igeddfggihhijllmno......llnnmlmmlklmmnnnmllkjiiihghhghiijk..........mljijjhgh
(PID.TID 0000.0001)     16 ffh.......o..jihggjhgjkijjllll........kmlkkkkihjlmmmmlkkkjihhhhhhhhiiijl.........mlkihfeff
(PID.TID 0000.0001)     15 fefj.....kk..mlmllnljlnlkjjkl..........kkkklljjknonnnmlllkjjjiiiiihhihghk.......mnlkjigffg
(PID.TID 0000.0001)     14 ggfg.....khiklmnnnonkkmlkjiik..........kljkmllklopppponnnnmlljijjjiiiihgj......kmmlllkihgg
(PID.TID 0000.0001)     13 iigh.....mkkllllllnlkkllkjihj..........lllklkkllnooooooooonnnlkkkkkjjjjij.....jlmmllllkjii
(PID.TID 0000.0001)     12 kjjiklijlnlkkkkkkjklkkkkkjjjjjklll.....mlllmmkklmmmmmmnmmnmmmmllkklllkkj......lmmmmmmmllkk
(PID.TID 0000.0001)     11 lkkkkilmnonnmmlkkkklllllkkkkllllllm...lmlln..mmllkllllllklllllllkklllllk.....lmnnnnnmmmmll
(PID.TID 0000.0001)     10 mmllmlnnooppoonnmmmmmlmmmmmmmmmmmllm..mmmll..sqnlkklllllkkkkkklllkllmmmm...ikmnmmnnnnnnnnm
(PID.TID 0000.0001)      9 onnnnnnnopqqpppopqqonnnooooonnnmmmmnonnmmn..prpnmmmmllllllkllllllmlmmmml..noonnnnnnnnnoopo
(PID.TID 0000.0001)      8 pppppoonoopqqpppqxysqppppppppooooooooooopqwvqonnnoonnnnnnnnnmmnmnnmmnnmm..psqoopponnnnoppp
(PID.TID 0000.0001)      7 qpppoooooopqppppru+ztqppppppppppppqqpppqqqrqpoopppppqppppnnoonoooonoonoqrqpqqpppqpoonnooop
(PID.TID 0000.0001)      6 ppooooooooppppppqrtvtrpppppoppppppppoopppqqqqppqqqpqqqpppoooooooppppoooooooooopppppoonoooo
(PID.TID 0000.0001)      5 nnnnnonoooooooooopppppooooooooooonnnnooopqqqqqqqqppppoooooopppoopppooopppppqssrpoooonnonnn
(PID.TID 0000.0001)      4 nnmmmnnnnnnmmmmmmnnmmmmmonmlllllllmmmmnoopppppppoooonnnnnooooooooooooooonm...ooonnnnnnnmmm
(PID.TID 0000.0001)      3 llllllllll.............................lllmnnnnnnmmmmmmmnnnooonnnmmmmmmmm...monmllmmmnnnmm
(PID.TID 0000.0001)      2 ...........................................lkkkkkkkkkkkklllmmlll...lll......lkkkkklllml...
(PID.TID 0000.0001)      1 ..........................................................................................
(PID.TID 0000.0001) // =======================================================
(PID.TID 0000.0001) // END OF FIELD                                          =
(PID.TID 0000.0001) // =======================================================
(PID.TID 0000.0001) 
(PID.TID 0000.0001) // =======================================================
(PID.TID 0000.0001) // Field Current vVel   at iteration         30
(PID.TID 0000.0001) // CMIN =         -1.203575755383027E-01
(PID.TID 0000.0001) // CMAX =          1.352375518051194E-01
(PID.TID 0000.0001) // CINT =          9.466486197904521E-03
(PID.TID 0000.0001) // SYMBOLS (CMIN->CMAX): -abcdefghijklmnopqrstuvwxyz+
(PID.TID 0000.0001) //                  0.0: .
(PID.TID 0000.0001) // RANGE I (Lo:Hi:Step):(     1:    90:     1)
(PID.TID 0000.0001) // RANGE J (Lo:Hi:Step):(    40:     1:    -1)
(PID.TID 0000.0001) // RANGE K (Lo:Hi:Step):(   1:   1:   1)
(PID.TID 0000.0001) // =======================================================
(PID.TID 0000.0001) K =   1
(PID.TID 0000.0001)                I=10      I=20      I=30      I=40      I=50      I=60      I=70      I=80      I=90
(PID.TID 0000.0001) |--J--|123456789|123456789|123456789|123456789|123456789|123456789|123456789|123456789|123456789|
(PID.TID 0000.0001)     40 lllmk.ljkllmmm...mm..................................................................mnnnl
(PID.TID 0000.0001)     39 mmmmlkkllmnnn...........................................................lmnn........ijklmm
(PID.TID 0000.0001)     38 nnm.......................................................................mol......jh.jmmm
(PID.TID 0000.0001)     37 oo...................................................................nk...lol...jlnnl.kklm
(PID.TID 0000.0001)     36 on.........................................oppn....................jnn....lnmk.ikmopomkkll
(PID.TID 0000.0001)     35 ...................................kmom..npponmk...lnnnm...................ijkkklmnnnmnk..
(PID.TID 0000.0001)     34 ....................................mpp.mppnnnnm.kmnnnnlj...................gijlmmmnnnoj..
(PID.TID 0000.0001)     33 ....................................koonoponnnmlmmmllkjjiij.................dehmlkkkklkkk.
(PID.TID 0000.0001)     32 ....................................jlllmmllllkjkjiiihhgghj................njgijihhiijjj..
(PID.TID 0000.0001)     31 ....................................iihhhhhhhhgffefffffffgi..............ijhffffhgggiijj..
(PID.TID 0000.0001)     30 ...................................hgecbccbabccccccdeefffff............kjihgfffgggghiijj..
(PID.TID 0000.0001)     29 .................................iiifdaaaaa-abccddddffghhgfg...........nkjjiiijjjjijjjjj..
(PID.TID 0000.0001)     28 ...............................pnmljiifeffeefffghhgghijjkjigi.........omllllllmnonmmlk....
(PID.TID 0000.0001)     27 ..............ml..............qooopppolklkjjjjjklmlklmmmnmlkjk...mmnp.qonnmmmlnpqponmk....
(PID.TID 0000.0001)     26 ..............nmp...........msvtrqqqqpppponnmmnoooonooooonmmmllm....rqqopqppooqrrqpoli....
(PID.TID 0000.0001)     25 ..............ppss...mll...lmo.uonooooqqqqppoooqqqpnnnnmnnmnnnmll....pqnonoqpppqrqomlm....
(PID.TID 0000.0001)     24 ............mknqsso.lmml...kno..dhjklmnppoooonnooponmmmlmoppoomlllnn.....knnlmpqqomlmq....
(PID.TID 0000.0001)     23 ............jnopppl.hihi...jo...beghiijlmmmnnnooprqpqrrrsttrqonlmnpqo.......jnqrqopqqq....
(PID.TID 0000.0001)     22 p...........gjkmmkhfcein......nigfijjjjjkjjkkmopqsrrsssutrppomlmnnonlj........lmmnoqrronln
(PID.TID 0000.0001)     21 jii........jjkjhffghhimon......m.kmmmmnnnlmnnopqqpqsrsstsrqqommnnmmmnn.........jknpppqpnlk
(PID.TID 0000.0001)     20 hhk.......nlnnmhfhknopqpn......n......kponnnonnnnnoqqrssrrsrrrqqppoopo...........qrqponmol
(PID.TID 0000.0001)     19 ihj.......spvwwvrpopqrrpmkl...lik.....xvpnnmmmmmnmmnpppqqpppqssronnopn...........qonnmlmnl
(PID.TID 0000.0001)     18 ljl.......t.+yzyvqnmoonnlkjjlpn.....lmqmmnnnlmmnnlkkmnonlllnopppnkjlpom..........ronnonlnn
(PID.TID 0000.0001)     17 nlm.......s.ssrpnjegikjkjjkkln.......nmlllmmlllmmkjjkmmljjlmnmmnljjloom.........mnnmnppnno
(PID.TID 0000.0001)     16 mmm......sp.nonlkfeggggghjllk.........oomklllklmkjijklkihikkjkmnljjkmnnm........nmmllnnmmm
(PID.TID 0000.0001)     15 lllk....kpp.koonmjkmlhghikkkk.........moljkklklmlkklmlkjijkjilnnkjjkllmnl......knonmlmlkll
(PID.TID 0000.0001)     14 mmlk....hlllmnnnlkmqnihiklkkj.........lnmklllllmmmnnnmmnnnnlmoomlklmnnpom.....hkmnnnmmlmnm
(PID.TID 0000.0001)     13 pppm....imoonmmmmmoomklopolkm.........loonmnmlnooonnmnoppoppqronoooooopn.....gjmnopoooopqq
(PID.TID 0000.0001)     12 srqojgimnpqpnnpqqpppoopqqpooonmnml....mppon.jnnopponnooooopqqpooqqqqqqql.....knooqrqqqpprs
(PID.TID 0000.0001)     11 sssrpopqppppopstutrrrrrrrrsrqqqpopm..lnoomn.illnoonnnnooppppponprrrrqqql....impqqqrrppoprs
(PID.TID 0000.0001)     10 rrrrsrrpomloqqrsttsqqrsrrrrrrqqqqppm.nmnnk..cgkmnoooonnopppponnprrrrqqpk..fcglpqqqqqpppopr
(PID.TID 0000.0001)      9 pppqqqpnmkjmopqqtsnmnpqqqppqqpppomnpommmlj.oijlmnnnnoooooopommnorrqqqqld.qhfiklmnoppooonno
(PID.TID 0000.0001)      8 nnoopponmmllmnnnpvuonnooooooooooonnmlkjhhilonllmmlkkkklmmmnnllmnoppppojb.+rpnlkllmnnnnnmmm
(PID.TID 0000.0001)      7 mmmmmnnnmlmnnmmmnptspnnnnnnnnnnnmmonlkjhghkmmllmnmllkjjkllmnllmmnnnnnonnonkjkkiijlllmmnmlm
(PID.TID 0000.0001)      6 mmmlmmmnmllmmmllmnnnnnnnmlllmmmmlklmlkjhghjklllmlkllkjjjjklmmlllmmmmlllkllllkkjjjkklllmmmm
(PID.TID 0000.0001)      5 mmmllllmmmlllllllmmmmmnoonmllllkkkjkkkkkjjkkkkllkkkllkkkkklmmlllmmmmllmmnp..ehkkkklllmmmmm
(PID.TID 0000.0001)      4 mlllllllmm............................lnnnmlkklllllllklllmmmmllllllllllmm...lnmkkkkllmmmmm
(PID.TID 0000.0001)      3 ..........................................oonnmmlllllllmmmmmmmmm..mlll.....ononlkklllmn...
(PID.TID 0000.0001)      2 ..........................................................................................
(PID.TID 0000.0001)      1 ..........................................................................................
(PID.TID 0000.0001) // =======================================================
(PID.TID 0000.0001) // END OF FIELD                                          =
(PID.TID 0000.0001) // =======================================================
(PID.TID 0000.0001) 
(PID.TID 0000.0001) // =======================================================
(PID.TID 0000.0001) // Field Current theta  at iteration         30
(PID.TID 0000.0001) // CMIN =         -2.005834731522475E+00
(PID.TID 0000.0001) // CMAX =          3.020022370680585E+01
(PID.TID 0000.0001) // CINT =          1.192816979197346E+00
(PID.TID 0000.0001) // SYMBOLS (CMIN->CMAX): -abcdefghijklmnopqrstuvwxyz+
(PID.TID 0000.0001) //                  0.0: .
(PID.TID 0000.0001) // RANGE I (Lo:Hi:Step):(     1:    90:     1)
(PID.TID 0000.0001) // RANGE J (Lo:Hi:Step):(    40:     1:    -1)
(PID.TID 0000.0001) // RANGE K (Lo:Hi:Step):(   1:   1:   1)
(PID.TID 0000.0001) // =======================================================
(PID.TID 0000.0001) K =   1
(PID.TID 0000.0001)                I=10      I=20      I=30      I=40      I=50      I=60      I=70      I=80      I=90
(PID.TID 0000.0001) |--J--|123456789|123456789|123456789|123456789|123456789|123456789|123456789|123456789|123456789|
(PID.TID 0000.0001)     40 aabccbaa-----aacdddbbbbbbbbbbbbbbbbbbbbbbbbbbbbbbbbbbbbbbbbbbbbbbbbbbbbbbbbbbbbbbbbbbbbaaa
(PID.TID 0000.0001)     39 bccddcccbba---bbbddbbbbbbbbbbbbbbbbbbbbbbbbbbbbbbbbbbbbbbbbbbbbbbbbbbbbb----bbbbbbbbbbaaab
(PID.TID 0000.0001)     38 eeffeecddccaabbbbbbbbbbbbbbbbbbbbbbbbbbbbbbbbbbbbbbbbbbbbbbbbbbbbbbbbbbb-----bbbbbbcaaabcd
(PID.TID 0000.0001)     37 fggbbbbbbbbbbbbbbbbbbbbbbbbbbbbbbbbbbbbbbbbbbbbbbbbbbbbbbbbbbbbbbbbbbbbbbbbabbbbdccdfbddee
(PID.TID 0000.0001)     36 hgbbbbbbbbbbbbbbbbbbbbbbbbbbbbbbbbbbbbbbbbbcba-bbbbbbbbbbbbbbbbbbbbccccbbbbccdbdefgghhhhhh
(PID.TID 0000.0001)     35 ggbbbbbbbbbbbbbbbbbbbbbbbbbbbbbbbbba---bbbcccccbbbbeeeefbbbbbbbbbbbbbbbbbbbbdeeeefghiiiihh
(PID.TID 0000.0001)     34 bbbbbbbbbbbbbbbbbbbbbbbbbbbbbbbbbbb----bbcddddddbddeeffggbbbbbbbbbbbbbbbbbbcaceefghiijjjbb
(PID.TID 0000.0001)     33 bbbbbbbbbbbbbbbbbbbbbbbbbbbbbbbbbbbb-abbccdddddeeeefffggghibbbbbbbbbbbbbbbbbaadhijjkkkkkkb
(PID.TID 0000.0001)     32 bbbbbbbbbbbbbbbbbbbbbbbbbbbbbbbbbbbb-abccdeeeeffggggghhhiiibbbbbbbbbbbbbbbbccbdjllmmlllkkb
(PID.TID 0000.0001)     31 bbbbbbbbbbbbbbbbbbbbbbbbbbbbbbbbbbbbdeggghhiiiiiiiijjjkkkkkbbbbbbbbbbbbbbgjlkilnnnnnmmmmbb
(PID.TID 0000.0001)     30 bbbbbbbbbbbbbbbbbbbbbbbbbbbbbbbbbbblkkklllllllllllllmmmmmmlbbbbbbbbbbbbnnopppppppppooonnbb
(PID.TID 0000.0001)     29 bbbbbbbbbbbbbbbbbbbbbbbbbbbbbbbbbooooooooooooooooooooppponnmbbbbbbbbbbbqqrrqqqqqqqqqppopbb
(PID.TID 0000.0001)     28 bbbbbbbbbbbbbbbbbbbbbbbbbbbbbbboqqqqqqqqqqqqqqqqqqqqqrrqqponobbbbbbbbbssssrrsrrrrrrqqqqpbb
(PID.TID 0000.0001)     27 bbbbbbbbbbbbbbuvbbbbbbbbbbbbbbrrsssssssssttsstssttsssssrrrqppqbbbssstbuuutttuttttsssrrbbbb
(PID.TID 0000.0001)     26 bbbbbbbbbbbbbbvuubbbbbbbbbbbttuuutuuuvvvvvuuuuuuuuuutttsssrrrstubttvvvvvvvvvuuuuttssrqbbbb
(PID.TID 0000.0001)     25 bbbbbbbbbbbbbbvuvwbbbwvwbbbuuvwvvvwwwwwwwwwvvvvvvvvvuuutttsttuvwwbbbwwwwvvvvvvvuuttsrpbbbb
(PID.TID 0000.0001)     24 bbbbbbbbbbbbwvvwxyybwwwxbbbwwwbxxxxxxxxxwwwwwwwwwwvvvvvvvuuvvvwwwvvvbxwwwvvvvwvvuuutsrbbbb
(PID.TID 0000.0001)     23 bbbbbbbbbbbbwwwxxyybxxxxbbbxwwbbxxyyyyxxxxxxxxxxxxwxxxxxxwwxxxwwwxwwwbbbbwwwwwwwvvvvvvbbbb
(PID.TID 0000.0001)     22 wbbbbbbbbbbbxxxxyyyyxxyybbbxxbyyyzyyzzyyyyyyyyyyyyxxxxxwwwwwxxwwwwwwwwbbbbbbxxxxxxxxxyxxww
(PID.TID 0000.0001)     21 xwwbbbbbbbbxxxxyyyyyyzzzzbbbbbyyyzzzzzzzzzzzyyyyyyyyyyxwwwwwwwvvvvvvvvbbbbbbbbyxxyyyxyyxxx
(PID.TID 0000.0001)     20 xwwbbbbbbbxxxxxxyyzzzzzz+bbbbbbzbzzzzzz+++zzzzzzyyyyyyxxxwxxxwwwwwvvvubbbbbbbbbyyyyyyyyxxx
(PID.TID 0000.0001)     19 wvvbbbbbbbyzzzyyyyyzzzzzzzybbbzzzbbbbbz+++++zzzzzzzzyyyyxxxxxwwwwwwvvvbbbbbbbbbbbyyxxxwwwx
(PID.TID 0000.0001)     18 vutbbbbbbbyzzyyyyyyyyyyyzzzyzz+zzbbb++z++++zzz+z+zzzzzyyyyyxxwwwvvwvvutbbbbbbbbbbyyxxwvvww
(PID.TID 0000.0001)     17 uutbbbbbbbybyyxxxxxyyyyxyyyyyzzbbbbbzzzzzzzzzzzzzzzzzyyyyyyxxwwvuuvuuuvbbbbbbbbbyyyxxwuuvu
(PID.TID 0000.0001)     16 utsbbbbbbyybyyxxxxxxxxxwwxxxxybbbbbbbyyyyyyyyyyyyyyyyyyyyyyyxxwwvvvuutttbbbbbbbbyyyyxwvvvu
(PID.TID 0000.0001)     15 ttsrbbbbxyxbxxxxxwwwwwwwvvvwwbbbbbbbbbxxxxxxxxxxxxxxxyxxxyyyxwwwvvuuttssrbbbbbbxxxxxxxwwvu
(PID.TID 0000.0001)     14 utsqbbbbxxxwwxwvwxwvvuuuuuuuubbbbbbbbbwwwwwwwwwwwwwwwwwwxxxxxwwwvvuutsssrbbbbbvwxwwwxwwwvu
(PID.TID 0000.0001)     13 tttrbbbbwxwvvvuuuvvvuuuttttttbbbbbbbbbvvvvvvvvuuuuuuuvvvvwwwxwvvvuuutsssqbbbbvwwwvvvwwwvvu
(PID.TID 0000.0001)     12 tstsssstuuttttssssssttsrrssssqqrrqbbbbuuuttttsssssssssssstuuuttttsstssrqbbbbbuvvutttuutttt
(PID.TID 0000.0001)     11 qppqrsssrrrqrrrqqpppprqppqpppqqqqqqbbttssssbrrqqqrrrrqqqqrrrqqqrrqrrrrqpbbbbprsssrrrrrqqqq
(PID.TID 0000.0001)     10 mmlmnoooonoonoonnnnmmnmmmmmlmnnnoooobqrqqqqbpqqppqpppppppppooooopoooppoobbonoppooonnooonnm
(PID.TID 0000.0001)      9 jiiijiijiijjijjjiijjjjiiiijiijkklmnmmnoooobnnnnoooonnnnonnmmlmmmmmllmmmmbmnmmmmlllkjkkkjii
(PID.TID 0000.0001)      8 ffffffggffghhhgggggghhgggghhhiijjjkkjklllmlllllllklmmllllkkjjjkkkkkkkkljbllkkjjiihhgggffff
(PID.TID 0000.0001)      7 dddeeeefffeefgfffffffeeeefgggggghhghhhijjkjjjkkkjiiihhiiiiiiihiiiiiiijijijjjihhgfeeeeeeedd
(PID.TID 0000.0001)      6 cccddeeeeeddeeeeeeeeeeeeeeeedeefeeefffgghhhhhhiihgfeeffffgfffffghhhhhhhhhhhggffedddddccccc
(PID.TID 0000.0001)      5 ccddddddddddeeeeeeddddeddddddeeeeeeeeeeeeffffefffddccddddeeeeeeeeffffffeeffeedddcccccccccc
(PID.TID 0000.0001)      4 cddddcccccccccccccccccbbbbbbccccccccccccddddcccccccccccccccccddddddddddddcbbbaabcccccccccc
(PID.TID 0000.0001)      3 bccbbbaaaabbbbbbbbbbbbbbbbbbbbbbbbbbbbbbbbbbbbbbbbbbbbbbbbbbbbbbbbbbbbbbbbbbaaaabbcccccbbb
(PID.TID 0000.0001)      2 bbbbbbbbbbbbbbbbbbbbbbbbbbbbbbbbbbbbbbbbbbbcccbbbbbbaaaaaaaaaaaabbaaaabbbbbaaaaabbbbbbbbbb
(PID.TID 0000.0001)      1 bbbbbbbbbbbbbbbbbbbbbbbbbbbbbbbbbbbbbbbbbbbbbbbbbbbbbbbbbbbbbbbbbbbbbbbbbbbbbbbbbbbbbbbbbb
(PID.TID 0000.0001) // =======================================================
(PID.TID 0000.0001) // END OF FIELD                                          =
(PID.TID 0000.0001) // =======================================================
(PID.TID 0000.0001) 
(PID.TID 0000.0001) // =======================================================
(PID.TID 0000.0001) // Field Current etaN   at iteration         30
(PID.TID 0000.0001) // CMIN =         -2.123276331056012E+00
(PID.TID 0000.0001) // CMAX =          1.257398780457828E+00
(PID.TID 0000.0001) // CINT =          1.252101893153274E-01
(PID.TID 0000.0001) // SYMBOLS (CMIN->CMAX): -abcdefghijklmnopqrstuvwxyz+
(PID.TID 0000.0001) //                  0.0: .
(PID.TID 0000.0001) // RANGE I (Lo:Hi:Step):(    -1:    92:     1)
(PID.TID 0000.0001) // RANGE J (Lo:Hi:Step):(    42:    -1:    -1)
(PID.TID 0000.0001) // RANGE K (Lo:Hi:Step):(   1:   1:   1)
(PID.TID 0000.0001) // =======================================================
(PID.TID 0000.0001) K =   1
(PID.TID 0000.0001)                I=8       I=18      I=28      I=38      I=48      I=58      I=68      I=78      I=88
(PID.TID 0000.0001) |--J--|101234567|901234567|901234567|901234567|901234567|901234567|901234567|901234567|901234567|9012
(PID.TID 0000.0001)     42 ............................................--aabbccddeefffffeefff..gfff.....abbccddeeeef.....
(PID.TID 0000.0001)     41 ..............................................................................................
(PID.TID 0000.0001)     40 yxxxxxx.rsssstttsssss..................................................................zyyyxxx
(PID.TID 0000.0001)     39 xwwvvvvuuttttuuv...pp.....................................................vvvw........yyxxxwwv
(PID.TID 0000.0001)     38 vvvvvvvvuuuuuuu...........................................................uvvvv......xxwwvvvvv
(PID.TID 0000.0001)     37 uvvvw..................................................................vv...tuu...wwvwv.uuuvvv
(PID.TID 0000.0001)     36 vvvw.........................................oopp....................ttuvvutsttt.vuuuuvvvvvvvw
(PID.TID 0000.0001)     35 wwww.................................hhii..nnnoopp...sssss...........stu....trrrrssssttuuvwwww
(PID.TID 0000.0001)     34 .....................................hhij.mnnnnooo.qppqqqrs..................srqqqqqrsttuw....
(PID.TID 0000.0001)     33 u.....................................iijklmmmmnnoooppppqqqqq.................pppqqrrstuuuu...
(PID.TID 0000.0001)     32 t.....................................ijjjklmmnnoooppppqqqqqq................jmooqssttttttt...
(PID.TID 0000.0001)     31 ......................................hijkllmnnoppppqqqqrrrqq..............mnoppqrsstttsss....
(PID.TID 0000.0001)     30 .....................................hikllmnnooppqqqqrrrrrrrq............kmnprsstttutttttt....
(PID.TID 0000.0001)     29 ...................................kllnnooopqqqqqrrrrrrssssrqq...........opqsstttuuutttttt....
(PID.TID 0000.0001)     28 .................................nnnooppqqqqrrrrrrsssssssssrrqq.........qqrrsstttuuutttttt....
(PID.TID 0000.0001)     27 ................qq..............qpppppqqqqrrrsssssssssssssssrrqq...vutt.ssssttttttttttss......
(PID.TID 0000.0001)     26 ................rqq...........rrrrqqqqqqqrrssssssssstssssssrrrrqqr.vvuuuuttuuuuuuuttttss......
(PID.TID 0000.0001)     25 ................srrs...tss...srrssrqqqqrrrsssssssssssssssssrrrrrrrr...vvvuuuuuuuuuttttsr......
(PID.TID 0000.0001)     24 ..............ttssstt.utts...ssr.tsrrqrrrrrrsssssssssssssrrrrrrrrrrrrr.vvvvvvvvuuutttsss......
(PID.TID 0000.0001)     23 ..............tsssttt.uttt...tsr..srrrrrrrssssstttttssssssrrrrrrrrrrrrr....vvwvvuuuttttt......
(PID.TID 0000.0001)     22 rrr...........tttstttttttt...ts.rrsrrrrrssssstttssssssssssrrrrrrrrrrrrrr......vvvuuuttttssrrr.
(PID.TID 0000.0001)     21 rrrrr........ttsttttttttttt.....rqqqqqqrrsssssssssssssssssrrrrrrrqrrrrrr........vuuuttssssrrrr
(PID.TID 0000.0001)     20 rrrrr.......utttttttttttttt......r.qqqqrrsstttssssttttttsssssrrrrrrrqrrr.........uuutttsssrrrr
(PID.TID 0000.0001)     19 rrrqr.......uuuuutttuuuuuuttt...srr.....stuttttttttttttttsssssssrrrrrrrr...........uuttssrrrrq
(PID.TID 0000.0001)     18 rrqqq.......uuvvuuuuuuutuutttttttrr...wwuvuuuutuuuuttttttttssssssrrrrrrrr..........uuttsrrrrqq
(PID.TID 0000.0001)     17 rrqqq.......w.xwvvvvuuuuuutttttss.....wwvvuuttttuuuutttttttssssssrrrrrrrr.........wvutssrrrrqq
(PID.TID 0000.0001)     16 rrrqq......zx.yxwwvvuuuuuuttttst.......wvuuttttttuutttttttstttssssssrrrrrq........vuuttsssrrrq
(PID.TID 0000.0001)     15 ssrrqp....+zw.zxxwwvvvuuuuttsss.........wvuttttttuutttttstttttttssssssrrqqp......wvuutttssssrr
(PID.TID 0000.0001)     14 sssrqp....zyxxxxwvvvvutttttssrr.........wvutttttttttssssssttttttsssssssrrqp.....uuuuttttttsssr
(PID.TID 0000.0001)     13 tssrqp....yyxxwwvvuuutttttssrrq.........vuutttsssssrrrrrssssstttstsssssrrqp....stttttstttttssr
(PID.TID 0000.0001)     12 sssrrqppsvwxwwvwvvuuttttttsrrrrrqqqq....ttttttsrrrqqqqqqqqqrrrsrssssrrrrqp.....rrrssssssstsssr
(PID.TID 0000.0001)     11 rrrrqqqssttvvvvwwvuuttssssrrrqqqqqqpp..qrssst.rrqqpppppqqqqqqqqqrssrrrqqqp....moopqqqqrrrrrrrr
(PID.TID 0000.0001)     10 qqppppopppqqrrrtttsrrrqqqqqqpppppooonm.opqrss.ooopppppppqqqppppqqrrqpppppo..fhkmmmnnooopppqqpp
(PID.TID 0000.0001)      9 nnnnnnmmmmmmnooooooonnoonnnnnnnnnnnoommnoopq.iklnooooopppqqqpopppqppooonnn.cegijkllllllmmmnnnn
(PID.TID 0000.0001)      8 jjkkkkjjjjjjklllllmlkjkkkkjjkjkkkkklllllmmnnljjklmmnnnooooooonnoopoonnmmmn.defghiiiiiiijjijjkk
(PID.TID 0000.0001)      7 hhhhgggghhhiiiijjjjjhgggggggghhhhhhhhggghijkjjjjjjjjjjkklllllllmmmnmmllkjihffgggfggggghhhghhhh
(PID.TID 0000.0001)      6 ffeefffggggghhhgghhgfeeeeeeefffffeeeeddeefghihhhhhgggffghijjkkkkkkkkkkjjiihgfffeeeefffffffffee
(PID.TID 0000.0001)      5 eeeeeffffffffffffffedddddccccdccccccddccccdeeeeeeedeeeeefgghiiihiiiihhhhggfffeeeddddeeeeeeeeee
(PID.TID 0000.0001)      4 eeeeeeeeeffeffeeeeeeddddcccbbbbbbccccccccccbbccccccccddeeffgggggggggggggfffg..dcccddddeeeeeeee
(PID.TID 0000.0001)      3 eeeeeeeeefff............................cbbaaabbbccccdddeefffffffffffffgggh..abbbccddeeeeeeeee
(PID.TID 0000.0001)      2 ............................................--aabbccddeefffffeefff..gfff.....abbccddeeeef.....
(PID.TID 0000.0001)      1 ..............................................................................................
(PID.TID 0000.0001)      0 yxxxxxx.rsssstttsssss..................................................................zyyyxxx
(PID.TID 0000.0001)     -1 xwwvvvvuuttttuuv...pp.....................................................vvvw........yyxxxwwv
(PID.TID 0000.0001) // =======================================================
(PID.TID 0000.0001) // END OF FIELD                                          =
(PID.TID 0000.0001) // =======================================================
(PID.TID 0000.0001) 
(PID.TID 0000.0001)  MDS_WRITE_FIELD: it,rec,kS,kL,kH=      30     1  15   1  15 file=U.0000000030
(PID.TID 0000.0001)  MDS_WRITE_FIELD: it,rec,kS,kL,kH=      30     1  15   1  15 file=V.0000000030
(PID.TID 0000.0001)  MDS_WRITE_FIELD: it,rec,kS,kL,kH=      30     1  15   1  15 file=T.0000000030
(PID.TID 0000.0001)  MDS_WRITE_FIELD: it,rec,kS,kL,kH=      30     1  15   1  15 file=S.0000000030
(PID.TID 0000.0001)  MDS_WRITE_FIELD: it,rec,kS,kL,kH=      30     1   1   1   1 file=Eta.0000000030
(PID.TID 0000.0001)  MDS_WRITE_FIELD: it,rec,kS,kL,kH=      30     1  15   1  15 file=W.0000000030
(PID.TID 0000.0001)  MDS_WRITE_FIELD: it,rec,kS,kL,kH=      30     1  15   1  15 file=PH.0000000030
(PID.TID 0000.0001)  MDS_WRITE_FIELD: it,rec,kS,kL,kH=      30     1   1   1   1 file=PHL.0000000030
(PID.TID 0000.0001)  MDS_WRITE_FIELD: it,rec,kS,kL,kH=      30     1   1   1   1 file=ETAtave.0000000030
(PID.TID 0000.0001)  MDS_WRITE_FIELD: it,rec,kS,kL,kH=      30     1  15   1  15 file=Ttave.0000000030
(PID.TID 0000.0001)  MDS_WRITE_FIELD: it,rec,kS,kL,kH=      30     1  15   1  15 file=Stave.0000000030
(PID.TID 0000.0001)  MDS_WRITE_FIELD: it,rec,kS,kL,kH=      30     1  15   1  15 file=uVeltave.0000000030
(PID.TID 0000.0001)  MDS_WRITE_FIELD: it,rec,kS,kL,kH=      30     1  15   1  15 file=vVeltave.0000000030
(PID.TID 0000.0001)  MDS_WRITE_FIELD: it,rec,kS,kL,kH=      30     1  15   1  15 file=wVeltave.0000000030
(PID.TID 0000.0001)  MDS_WRITE_FIELD: it,rec,kS,kL,kH=      30     1   1   1   1 file=Eta2tave.0000000030
(PID.TID 0000.0001)  MDS_WRITE_FIELD: it,rec,kS,kL,kH=      30     1  15   1  15 file=UTtave.0000000030
(PID.TID 0000.0001)  MDS_WRITE_FIELD: it,rec,kS,kL,kH=      30     1  15   1  15 file=VTtave.0000000030
(PID.TID 0000.0001)  MDS_WRITE_FIELD: it,rec,kS,kL,kH=      30     1  15   1  15 file=WTtave.0000000030
(PID.TID 0000.0001)  MDS_WRITE_FIELD: it,rec,kS,kL,kH=      30     1  15   1  15 file=UStave.0000000030
(PID.TID 0000.0001)  MDS_WRITE_FIELD: it,rec,kS,kL,kH=      30     1  15   1  15 file=VStave.0000000030
(PID.TID 0000.0001)  MDS_WRITE_FIELD: it,rec,kS,kL,kH=      30     1  15   1  15 file=WStave.0000000030
(PID.TID 0000.0001)  MDS_WRITE_FIELD: it,rec,kS,kL,kH=      30     1  15   1  15 file=TTtave.0000000030
(PID.TID 0000.0001)  MDS_WRITE_FIELD: it,rec,kS,kL,kH=      30     1  15   1  15 file=UUtave.0000000030
(PID.TID 0000.0001)  MDS_WRITE_FIELD: it,rec,kS,kL,kH=      30     1  15   1  15 file=VVtave.0000000030
(PID.TID 0000.0001)  MDS_WRITE_FIELD: it,rec,kS,kL,kH=      30     1  15   1  15 file=UVtave.0000000030
(PID.TID 0000.0001)  MDS_WRITE_FIELD: it,rec,kS,kL,kH=      30     1  15   1  15 file=Tdiftave.0000000030
(PID.TID 0000.0001)  MDS_WRITE_FIELD: it,rec,kS,kL,kH=      30     1  15   1  15 file=PhHytave.0000000030
(PID.TID 0000.0001)  MDS_WRITE_FIELD: it,rec,kS,kL,kH=      30     1   1   1   1 file=PHLtave.0000000030
(PID.TID 0000.0001)  MDS_WRITE_FIELD: it,rec,kS,kL,kH=      30     1   1   1   1 file=uFluxtave.0000000030
(PID.TID 0000.0001)  MDS_WRITE_FIELD: it,rec,kS,kL,kH=      30     1   1   1   1 file=vFluxtave.0000000030
(PID.TID 0000.0001)  MDS_WRITE_FIELD: it,rec,kS,kL,kH=      30     1   1   1   1 file=tFluxtave.0000000030
(PID.TID 0000.0001)  MDS_WRITE_FIELD: it,rec,kS,kL,kH=      30     1   1   1   1 file=sFluxtave.0000000030
(PID.TID 0000.0001)  MDS_WRITE_FIELD: it,rec,kS,kL,kH=      30     1   1   1   1 file=PHL2tave.0000000030
(PID.TID 0000.0001)  MDS_WRITE_FIELD: it,rec,kS,kL,kH=      30     1  15   1  15 file=Convtave.0000000030
(PID.TID 0000.0001) // Time-average data written, t-step        30
(PID.TID 0000.0001) 
(PID.TID 0000.0001)  MDS_WRITE_FIELD: it,rec,kS,kL,kH=      30     1  15   1  15 file=GM_Kwx-T.0000000030
(PID.TID 0000.0001)  MDS_WRITE_FIELD: it,rec,kS,kL,kH=      30     1  15   1  15 file=GM_Kwy-T.0000000030
(PID.TID 0000.0001)  MDS_WRITE_FIELD: it,rec,kS,kL,kH=      30     1  15   1  15 file=GM_Kwz-T.0000000030
(PID.TID 0000.0001)  MDS_WRITE_FIELD: it,rec,kS,kL,kH=      30     1  15   1  15 file=pickup_cd.0000000030
(PID.TID 0000.0001)  MDS_WRITE_FIELD: it,rec,kS,kL,kH=      30     2  15   1  15 file=pickup_cd.0000000030
(PID.TID 0000.0001)  MDS_WRITE_FIELD: it,rec,kS,kL,kH=      30     3  15   1  15 file=pickup_cd.0000000030
(PID.TID 0000.0001)  MDS_WRITE_FIELD: it,rec,kS,kL,kH=      30     4  15   1  15 file=pickup_cd.0000000030
(PID.TID 0000.0001)  MDS_WRITE_FIELD: it,rec,kS,kL,kH=      30    61   1   1   1 file=pickup_cd.0000000030
(PID.TID 0000.0001)  MDS_WRITE_FIELD: it,rec,kS,kL,kH=      30    -1  15   1  15 file=pickup.0000000030
(PID.TID 0000.0001)  MDS_WRITE_FIELD: it,rec,kS,kL,kH=      30    -2  15   1  15 file=pickup.0000000030
(PID.TID 0000.0001)  MDS_WRITE_FIELD: it,rec,kS,kL,kH=      30    -3  15   1  15 file=pickup.0000000030
(PID.TID 0000.0001)  MDS_WRITE_FIELD: it,rec,kS,kL,kH=      30    -4  15   1  15 file=pickup.0000000030
(PID.TID 0000.0001)  MDS_WRITE_FIELD: it,rec,kS,kL,kH=      30    -5  15   1  15 file=pickup.0000000030
(PID.TID 0000.0001)  MDS_WRITE_FIELD: it,rec,kS,kL,kH=      30    -6  15   1  15 file=pickup.0000000030
(PID.TID 0000.0001)  MDS_WRITE_FIELD: it,rec,kS,kL,kH=      30    -7  15   1  15 file=pickup.0000000030
(PID.TID 0000.0001)  MDS_WRITE_FIELD: it,rec,kS,kL,kH=      30    -8  15   1  15 file=pickup.0000000030
(PID.TID 0000.0001)  MDS_WRITE_FIELD: it,rec,kS,kL,kH=      30  -121   1   1   1 file=pickup.0000000030
(PID.TID 0000.0001)  MDS_WRITE_FIELD: it,rec,kS,kL,kH=      30  -122   1   1   1 file=pickup.0000000030
(PID.TID 0000.0001)  MDS_WRITE_FIELD: it,rec,kS,kL,kH=      30  -123   1   1   1 file=pickup.0000000030
(PID.TID 0000.0001) %CHECKPOINT        30 0000000030
 EXTERNAL_FIELDS_LOAD,        30 : iP,iLd,i0,i1=    1    2    1    2 ; Wght=  0.5000000000  0.5000000000
 EXTERNAL_FIELDS_LOAD: (fu0,1),fu,fv= -3.5633E-02 -1.4435E-02 -2.5034E-02 -3.7446E-02
 EXTERNAL_FIELDS_LOAD: SST,SSS,Q,E-P=  2.1328E-01  3.4568E+01  2.5313E+02  1.0007E-05
DEBUG_STATS_RL:          Uvel (THERMODYNAMICS)  min= -1.88231520060292E-01
DEBUG_STATS_RL:          Uvel (THERMODYNAMICS)  max=  2.27894113415139E-01
DEBUG_STATS_RL:          Uvel (THERMODYNAMICS) mean=  5.00401172601252E-03
DEBUG_STATS_RL:          Uvel (THERMODYNAMICS) S.D.=  2.87615914012080E-02
DEBUG_STATS_RL:          Vvel (THERMODYNAMICS)  min= -1.20357575538303E-01
DEBUG_STATS_RL:          Vvel (THERMODYNAMICS)  max=  1.35237551805119E-01
DEBUG_STATS_RL:          Vvel (THERMODYNAMICS) mean=  3.19202548821727E-04
DEBUG_STATS_RL:          Vvel (THERMODYNAMICS) S.D.=  1.67453576803023E-02
DEBUG_STATS_RL:          Wvel (THERMODYNAMICS)  min= -2.89631231354075E-04
DEBUG_STATS_RL:          Wvel (THERMODYNAMICS)  max=  2.38072029107694E-04
DEBUG_STATS_RL:          Wvel (THERMODYNAMICS) mean= -7.65699520228358E-08
DEBUG_STATS_RL:          Wvel (THERMODYNAMICS) S.D.=  1.96421505563959E-05
DEBUG_STATS_RL:         Theta (THERMODYNAMICS)  min= -2.00528417987484E+00
DEBUG_STATS_RL:         Theta (THERMODYNAMICS)  max=  3.02293189528574E+01
DEBUG_STATS_RL:         Theta (THERMODYNAMICS) mean=  3.23901367552118E+00
DEBUG_STATS_RL:         Theta (THERMODYNAMICS) S.D.=  5.85839466439463E+00
DEBUG_STATS_RL:          Salt (THERMODYNAMICS)  min=  3.00000000000000E-02
DEBUG_STATS_RL:          Salt (THERMODYNAMICS)  max=  3.74804723618953E+01
DEBUG_STATS_RL:          Salt (THERMODYNAMICS) mean=  1.88748917374580E+01
DEBUG_STATS_RL:          Salt (THERMODYNAMICS) S.D.=  1.73003995206862E+01
DEBUG_STATS_RL:         GtNm1 (THERMODYNAMICS)  min= -3.65210892194138E-06
DEBUG_STATS_RL:         GtNm1 (THERMODYNAMICS)  max=  3.33397511449064E-06
DEBUG_STATS_RL:         GtNm1 (THERMODYNAMICS) mean=  4.95185355209973E-09
DEBUG_STATS_RL:         GtNm1 (THERMODYNAMICS) S.D.=  2.29808104876664E-07
DEBUG_STATS_RL:         GsNm1 (THERMODYNAMICS)  min= -7.32837633023458E-07
DEBUG_STATS_RL:         GsNm1 (THERMODYNAMICS)  max=  5.80638610182483E-07
DEBUG_STATS_RL:         GsNm1 (THERMODYNAMICS) mean= -5.16932477320424E-10
DEBUG_STATS_RL:         GsNm1 (THERMODYNAMICS) S.D.=  2.17633857067865E-08
DEBUG_STATS_RL:                EtaN (DYNAMICS)  min= -2.12327633105601E+00
DEBUG_STATS_RL:                EtaN (DYNAMICS)  max=  1.25739878045783E+00
DEBUG_STATS_RL:                EtaN (DYNAMICS) mean= -1.40241992171086E-01
DEBUG_STATS_RL:                EtaN (DYNAMICS) S.D.=  7.14520555532663E-01
DEBUG_STATS_RL:                Uvel (DYNAMICS)  min= -1.88231520060292E-01
DEBUG_STATS_RL:                Uvel (DYNAMICS)  max=  2.27894113415139E-01
DEBUG_STATS_RL:                Uvel (DYNAMICS) mean=  5.00401172601252E-03
DEBUG_STATS_RL:                Uvel (DYNAMICS) S.D.=  2.87615914012080E-02
DEBUG_STATS_RL:                Vvel (DYNAMICS)  min= -1.20357575538303E-01
DEBUG_STATS_RL:                Vvel (DYNAMICS)  max=  1.35237551805119E-01
DEBUG_STATS_RL:                Vvel (DYNAMICS) mean=  3.19202548821727E-04
DEBUG_STATS_RL:                Vvel (DYNAMICS) S.D.=  1.67453576803023E-02
DEBUG_STATS_RL:                Wvel (DYNAMICS)  min= -2.89631231354075E-04
DEBUG_STATS_RL:                Wvel (DYNAMICS)  max=  2.38072029107694E-04
DEBUG_STATS_RL:                Wvel (DYNAMICS) mean= -7.65699520228358E-08
DEBUG_STATS_RL:                Wvel (DYNAMICS) S.D.=  1.96421505563959E-05
DEBUG_STATS_RL:               Theta (DYNAMICS)  min= -2.00528417987484E+00
DEBUG_STATS_RL:               Theta (DYNAMICS)  max=  3.02293189528574E+01
DEBUG_STATS_RL:               Theta (DYNAMICS) mean=  3.23901367552118E+00
DEBUG_STATS_RL:               Theta (DYNAMICS) S.D.=  5.85839466439463E+00
DEBUG_STATS_RL:                Salt (DYNAMICS)  min=  3.00000000000000E-02
DEBUG_STATS_RL:                Salt (DYNAMICS)  max=  3.74804723618953E+01
DEBUG_STATS_RL:                Salt (DYNAMICS) mean=  1.88748917374580E+01
DEBUG_STATS_RL:                Salt (DYNAMICS) S.D.=  1.73003995206862E+01
DEBUG_STATS_RL:                  Gu (DYNAMICS)  min= -1.91140564934696E-01
DEBUG_STATS_RL:                  Gu (DYNAMICS)  max=  2.14477017836964E-01
DEBUG_STATS_RL:                  Gu (DYNAMICS) mean=  5.57498783870405E-03
DEBUG_STATS_RL:                  Gu (DYNAMICS) S.D.=  2.97436807276792E-02
DEBUG_STATS_RL:                  Gv (DYNAMICS)  min= -1.23269060185355E-01
DEBUG_STATS_RL:                  Gv (DYNAMICS)  max=  1.29824519820477E-01
DEBUG_STATS_RL:                  Gv (DYNAMICS) mean=  2.72261786342629E-03
DEBUG_STATS_RL:                  Gv (DYNAMICS) S.D.=  1.71219013257744E-02
DEBUG_STATS_RL:               GuNm1 (DYNAMICS)  min= -8.16794588385332E-06
DEBUG_STATS_RL:               GuNm1 (DYNAMICS)  max=  7.63649419122245E-06
DEBUG_STATS_RL:               GuNm1 (DYNAMICS) mean= -1.72308261947358E-08
DEBUG_STATS_RL:               GuNm1 (DYNAMICS) S.D.=  1.21801440856390E-06
DEBUG_STATS_RL:               GvNm1 (DYNAMICS)  min= -1.09970373130385E-05
DEBUG_STATS_RL:               GvNm1 (DYNAMICS)  max=  1.67181953293204E-05
DEBUG_STATS_RL:               GvNm1 (DYNAMICS) mean=  7.68268812015035E-07
DEBUG_STATS_RL:               GvNm1 (DYNAMICS) S.D.=  2.67123846507964E-06
DEBUG_STATS_RL:               GtNm1 (DYNAMICS)  min= -3.65210892194138E-06
DEBUG_STATS_RL:               GtNm1 (DYNAMICS)  max=  3.33397511449064E-06
DEBUG_STATS_RL:               GtNm1 (DYNAMICS) mean=  4.95185355209973E-09
DEBUG_STATS_RL:               GtNm1 (DYNAMICS) S.D.=  2.29808104876664E-07
DEBUG_STATS_RL:               GsNm1 (DYNAMICS)  min= -7.32837633023458E-07
DEBUG_STATS_RL:               GsNm1 (DYNAMICS)  max=  5.80638610182483E-07
DEBUG_STATS_RL:               GsNm1 (DYNAMICS) mean= -5.16932477320424E-10
DEBUG_STATS_RL:               GsNm1 (DYNAMICS) S.D.=  2.17633857067865E-08
DEBUG_STATS_RL:    cg2d_b (SOLVE_FOR_PRESSURE)  min= -2.04986660381897E+04
DEBUG_STATS_RL:    cg2d_b (SOLVE_FOR_PRESSURE)  max=  2.25798194996783E+04
DEBUG_STATS_RL:    cg2d_b (SOLVE_FOR_PRESSURE) mean=  2.20186102711594E+00
DEBUG_STATS_RL:    cg2d_b (SOLVE_FOR_PRESSURE) S.D.=  4.07472136029842E+03
 cg2d: Sum(rhs),rhsMax =   2.25746192428376E-01  1.48310300052817E+00
(PID.TID 0000.0001)  cg2d: iter=     1 ; resid.=  4.25623982642822E-01
(PID.TID 0000.0001)  cg2d: iter=     2 ; resid.=  3.91260335618352E-01
(PID.TID 0000.0001)  cg2d: iter=     3 ; resid.=  3.51304989300464E-01
(PID.TID 0000.0001)  cg2d: iter=     4 ; resid.=  3.16311347928139E-01
(PID.TID 0000.0001)  cg2d: iter=     5 ; resid.=  2.94233467525582E-01
(PID.TID 0000.0001)  cg2d: iter=     6 ; resid.=  2.58090233452922E-01
(PID.TID 0000.0001)  cg2d: iter=     7 ; resid.=  2.05324990866553E-01
(PID.TID 0000.0001)  cg2d: iter=     8 ; resid.=  1.51155923439062E-01
(PID.TID 0000.0001)  cg2d: iter=     9 ; resid.=  1.16174392863139E-01
(PID.TID 0000.0001)  cg2d: iter=    10 ; resid.=  1.02125583057938E-01
(PID.TID 0000.0001)  cg2d: iter=    11 ; resid.=  8.77254972201681E-02
(PID.TID 0000.0001)  cg2d: iter=    12 ; resid.=  7.52271494695903E-02
(PID.TID 0000.0001)  cg2d: iter=    13 ; resid.=  5.90724256917223E-02
(PID.TID 0000.0001)  cg2d: iter=    14 ; resid.=  4.60628960812250E-02
(PID.TID 0000.0001)  cg2d: iter=    15 ; resid.=  3.68628571230082E-02
(PID.TID 0000.0001)  cg2d: iter=    16 ; resid.=  3.32995219397257E-02
(PID.TID 0000.0001)  cg2d: iter=    17 ; resid.=  2.89199064643166E-02
(PID.TID 0000.0001)  cg2d: iter=    18 ; resid.=  2.54893043051652E-02
(PID.TID 0000.0001)  cg2d: iter=    19 ; resid.=  1.97511074620082E-02
(PID.TID 0000.0001)  cg2d: iter=    20 ; resid.=  1.67102639158522E-02
(PID.TID 0000.0001)  cg2d: iter=    21 ; resid.=  1.45813359529381E-02
(PID.TID 0000.0001)  cg2d: iter=    22 ; resid.=  1.29271223467904E-02
(PID.TID 0000.0001)  cg2d: iter=    23 ; resid.=  1.09426699997772E-02
(PID.TID 0000.0001)  cg2d: iter=    24 ; resid.=  9.18503747099502E-03
(PID.TID 0000.0001)  cg2d: iter=    25 ; resid.=  6.64313788050718E-03
(PID.TID 0000.0001)  cg2d: iter=    26 ; resid.=  5.68701517495675E-03
(PID.TID 0000.0001)  cg2d: iter=    27 ; resid.=  4.70764096019771E-03
(PID.TID 0000.0001)  cg2d: iter=    28 ; resid.=  3.83594243297383E-03
(PID.TID 0000.0001)  cg2d: iter=    29 ; resid.=  3.03840916436749E-03
(PID.TID 0000.0001)  cg2d: iter=    30 ; resid.=  2.48299602983343E-03
(PID.TID 0000.0001)  cg2d: iter=    31 ; resid.=  2.06413874874569E-03
(PID.TID 0000.0001)  cg2d: iter=    32 ; resid.=  1.73289561446190E-03
(PID.TID 0000.0001)  cg2d: iter=    33 ; resid.=  1.40431254843660E-03
(PID.TID 0000.0001)  cg2d: iter=    34 ; resid.=  1.18046447719778E-03
(PID.TID 0000.0001)  cg2d: iter=    35 ; resid.=  9.67378271190417E-04
(PID.TID 0000.0001)  cg2d: iter=    36 ; resid.=  8.25188797948470E-04
(PID.TID 0000.0001)  cg2d: iter=    37 ; resid.=  7.45795544496419E-04
(PID.TID 0000.0001)  cg2d: iter=    38 ; resid.=  6.66487268910693E-04
(PID.TID 0000.0001)  cg2d: iter=    39 ; resid.=  5.41036022289194E-04
(PID.TID 0000.0001)  cg2d: iter=    40 ; resid.=  4.59049927312467E-04
(PID.TID 0000.0001)  cg2d: iter=    41 ; resid.=  4.08694215264753E-04
(PID.TID 0000.0001)  cg2d: iter=    42 ; resid.=  3.68712353977347E-04
(PID.TID 0000.0001)  cg2d: iter=    43 ; resid.=  2.94314865486390E-04
(PID.TID 0000.0001)  cg2d: iter=    44 ; resid.=  2.40080173006689E-04
(PID.TID 0000.0001)  cg2d: iter=    45 ; resid.=  1.94352442820078E-04
(PID.TID 0000.0001)  cg2d: iter=    46 ; resid.=  1.58506047877503E-04
(PID.TID 0000.0001)  cg2d: iter=    47 ; resid.=  1.33651727585102E-04
(PID.TID 0000.0001)  cg2d: iter=    48 ; resid.=  1.02676730145913E-04
(PID.TID 0000.0001)  cg2d: iter=    49 ; resid.=  7.84925087023709E-05
(PID.TID 0000.0001)  cg2d: iter=    50 ; resid.=  6.79885117229163E-05
(PID.TID 0000.0001)  cg2d: iter=    51 ; resid.=  6.13420614732445E-05
(PID.TID 0000.0001)  cg2d: iter=    52 ; resid.=  5.42485977467411E-05
(PID.TID 0000.0001)  cg2d: iter=    53 ; resid.=  4.77725471645201E-05
(PID.TID 0000.0001)  cg2d: iter=    54 ; resid.=  3.80349917738047E-05
(PID.TID 0000.0001)  cg2d: iter=    55 ; resid.=  3.44705419687027E-05
(PID.TID 0000.0001)  cg2d: iter=    56 ; resid.=  3.09020877645659E-05
(PID.TID 0000.0001)  cg2d: iter=    57 ; resid.=  2.38156629288916E-05
(PID.TID 0000.0001)  cg2d: iter=    58 ; resid.=  1.89284059697772E-05
(PID.TID 0000.0001)  cg2d: iter=    59 ; resid.=  1.44338694931863E-05
(PID.TID 0000.0001)  cg2d: iter=    60 ; resid.=  1.14024710716703E-05
(PID.TID 0000.0001)  cg2d: iter=    61 ; resid.=  9.38507627836367E-06
(PID.TID 0000.0001)  cg2d: iter=    62 ; resid.=  7.90231114742717E-06
(PID.TID 0000.0001)  cg2d: iter=    63 ; resid.=  6.03398040000083E-06
(PID.TID 0000.0001)  cg2d: iter=    64 ; resid.=  5.10739732578292E-06
(PID.TID 0000.0001)  cg2d: iter=    65 ; resid.=  3.75704128441847E-06
(PID.TID 0000.0001)  cg2d: iter=    66 ; resid.=  3.26237765412532E-06
(PID.TID 0000.0001)  cg2d: iter=    67 ; resid.=  2.97910754872682E-06
(PID.TID 0000.0001)  cg2d: iter=    68 ; resid.=  2.54341184816312E-06
(PID.TID 0000.0001)  cg2d: iter=    69 ; resid.=  2.11634850624431E-06
(PID.TID 0000.0001)  cg2d: iter=    70 ; resid.=  1.80020546682680E-06
(PID.TID 0000.0001)  cg2d: iter=    71 ; resid.=  1.44257066301022E-06
(PID.TID 0000.0001)  cg2d: iter=    72 ; resid.=  1.27054984256898E-06
(PID.TID 0000.0001)  cg2d: iter=    73 ; resid.=  1.09540318305830E-06
(PID.TID 0000.0001)  cg2d: iter=    74 ; resid.=  9.53653503124331E-07
(PID.TID 0000.0001)  cg2d: iter=    75 ; resid.=  7.58259071682065E-07
(PID.TID 0000.0001)  cg2d: iter=    76 ; resid.=  6.49212125925695E-07
(PID.TID 0000.0001)  cg2d: iter=    77 ; resid.=  5.10572404670463E-07
(PID.TID 0000.0001)  cg2d: iter=    78 ; resid.=  4.00142020904899E-07
(PID.TID 0000.0001)  cg2d: iter=    79 ; resid.=  3.17421830818664E-07
(PID.TID 0000.0001)  cg2d: iter=    80 ; resid.=  2.32305656757657E-07
(PID.TID 0000.0001)  cg2d: iter=    81 ; resid.=  1.86495274320002E-07
(PID.TID 0000.0001)  cg2d: iter=    82 ; resid.=  1.46091334184534E-07
(PID.TID 0000.0001)  cg2d: iter=    83 ; resid.=  1.07081425908102E-07
(PID.TID 0000.0001)  cg2d: iter=    84 ; resid.=  7.90070151167690E-08
(PID.TID 0000.0001)  cg2d: iter=    85 ; resid.=  5.85474316585431E-08
(PID.TID 0000.0001)  cg2d: iter=    86 ; resid.=  4.25907931206187E-08
(PID.TID 0000.0001)  cg2d: iter=    87 ; resid.=  3.05657705737811E-08
(PID.TID 0000.0001)  cg2d: iter=    88 ; resid.=  2.42864235095122E-08
(PID.TID 0000.0001)  cg2d: iter=    89 ; resid.=  2.09584523792356E-08
(PID.TID 0000.0001)  cg2d: iter=    90 ; resid.=  1.88833254271189E-08
(PID.TID 0000.0001)  cg2d: iter=    91 ; resid.=  1.52859078268220E-08
(PID.TID 0000.0001)  cg2d: iter=    92 ; resid.=  1.21021939065153E-08
(PID.TID 0000.0001)  cg2d: iter=    93 ; resid.=  1.00220196923942E-08
(PID.TID 0000.0001)  cg2d: iter=    94 ; resid.=  7.94828091432867E-09
(PID.TID 0000.0001)  cg2d: iter=    95 ; resid.=  6.51776362103711E-09
(PID.TID 0000.0001)  cg2d: iter=    96 ; resid.=  4.92005339743426E-09
(PID.TID 0000.0001)  cg2d: iter=    97 ; resid.=  3.97608196336284E-09
(PID.TID 0000.0001)  cg2d: iter=    98 ; resid.=  3.34835744641361E-09
(PID.TID 0000.0001)  cg2d: iter=    99 ; resid.=  2.81027771820344E-09
(PID.TID 0000.0001)  cg2d: iter=   100 ; resid.=  2.30960363753028E-09
(PID.TID 0000.0001)  cg2d: iter=   101 ; resid.=  1.84964681584671E-09
(PID.TID 0000.0001)  cg2d: iter=   102 ; resid.=  1.45871589284862E-09
(PID.TID 0000.0001)  cg2d: iter=   103 ; resid.=  1.09888306179539E-09
(PID.TID 0000.0001)  cg2d: iter=   104 ; resid.=  9.23966114039200E-10
(PID.TID 0000.0001)  cg2d: iter=   105 ; resid.=  7.36074317972195E-10
(PID.TID 0000.0001)  cg2d: iter=   106 ; resid.=  6.39369943658013E-10
(PID.TID 0000.0001)  cg2d: iter=   107 ; resid.=  5.36175562835141E-10
(PID.TID 0000.0001)  cg2d: iter=   108 ; resid.=  3.88503438193779E-10
(PID.TID 0000.0001)  cg2d: iter=   109 ; resid.=  2.98609868060274E-10
(PID.TID 0000.0001)  cg2d: iter=   110 ; resid.=  2.20435494855090E-10
(PID.TID 0000.0001)  cg2d: iter=   111 ; resid.=  1.58198779438607E-10
(PID.TID 0000.0001)  cg2d: iter=   112 ; resid.=  1.16422999772302E-10
(PID.TID 0000.0001)  cg2d: iter=   113 ; resid.=  8.39808202445182E-11
(PID.TID 0000.0001)  cg2d: iter=   114 ; resid.=  6.42543782201873E-11
(PID.TID 0000.0001)  cg2d: iter=   115 ; resid.=  4.85470133572248E-11
(PID.TID 0000.0001)  cg2d: iter=   116 ; resid.=  3.60552579876680E-11
(PID.TID 0000.0001)  cg2d: iter=   117 ; resid.=  2.83855164751674E-11
(PID.TID 0000.0001)  cg2d: iter=   118 ; resid.=  2.27512320395144E-11
(PID.TID 0000.0001)  cg2d: iter=   119 ; resid.=  1.76327821207539E-11
(PID.TID 0000.0001)  cg2d: iter=   120 ; resid.=  1.35904676703153E-11
(PID.TID 0000.0001)  cg2d: iter=   121 ; resid.=  1.03318870468970E-11
(PID.TID 0000.0001)  cg2d: iter=   122 ; resid.=  7.47801077316029E-12
(PID.TID 0000.0001)  cg2d: iter=   123 ; resid.=  5.64435194111506E-12
(PID.TID 0000.0001)  cg2d: iter=   124 ; resid.=  4.54792429841823E-12
(PID.TID 0000.0001)  cg2d: iter=   125 ; resid.=  3.22392896829044E-12
(PID.TID 0000.0001)  cg2d: iter=   126 ; resid.=  2.05611251430532E-12
(PID.TID 0000.0001)  cg2d: iter=   127 ; resid.=  1.31135070954596E-12
(PID.TID 0000.0001)  cg2d: iter=   128 ; resid.=  9.02338420377423E-13
(PID.TID 0000.0001)  cg2d: iter=   129 ; resid.=  6.35262954427988E-13
(PID.TID 0000.0001)  cg2d: iter=   130 ; resid.=  4.72484425418858E-13
(PID.TID 0000.0001)  cg2d: iter=   131 ; resid.=  3.28525372800583E-13
(PID.TID 0000.0001)  cg2d: iter=   132 ; resid.=  2.37131477417553E-13
(PID.TID 0000.0001)  cg2d: iter=   133 ; resid.=  1.76453958454243E-13
(PID.TID 0000.0001)  cg2d: iter=   134 ; resid.=  1.39844629812214E-13
(PID.TID 0000.0001)  cg2d: iter=   135 ; resid.=  1.09424101633738E-13
(PID.TID 0000.0001)  cg2d: iter=   136 ; resid.=  7.91292524092261E-14
DEBUG_STATS_RL:    cg2d_x (SOLVE_FOR_PRESSURE)  min= -1.99568836815801E+01
DEBUG_STATS_RL:    cg2d_x (SOLVE_FOR_PRESSURE)  max=  1.24887705364897E+01
DEBUG_STATS_RL:    cg2d_x (SOLVE_FOR_PRESSURE) mean= -1.40151658629549E+00
DEBUG_STATS_RL:    cg2d_x (SOLVE_FOR_PRESSURE) S.D.=  6.86437497782476E+00
(PID.TID 0000.0001)      cg2d_init_res =   6.11299720083950E-01
(PID.TID 0000.0001)      cg2d_iters(min,last) =      -1     136
(PID.TID 0000.0001)      cg2d_last_res =   7.91292524092261E-14
(PID.TID 0000.0001) // =======================================================
(PID.TID 0000.0001) // Begin MONITOR dynamic field statistics
(PID.TID 0000.0001) // =======================================================
(PID.TID 0000.0001) %MON time_tsnumber                =                    31
(PID.TID 0000.0001) %MON time_secondsf                =   2.6784000000000E+06
(PID.TID 0000.0001) %MON dynstat_eta_max              =   1.2730652942395E+00
(PID.TID 0000.0001) %MON dynstat_eta_min              =  -2.0343408441977E+00
(PID.TID 0000.0001) %MON dynstat_eta_mean             =  -2.2973689600415E-03
(PID.TID 0000.0001) %MON dynstat_eta_sd               =   5.9402449254472E-01
(PID.TID 0000.0001) %MON dynstat_eta_del2             =   2.2530468898959E-03
(PID.TID 0000.0001) %MON dynstat_uvel_max             =   2.2936053176356E-01
(PID.TID 0000.0001) %MON dynstat_uvel_min             =  -1.8977134053115E-01
(PID.TID 0000.0001) %MON dynstat_uvel_mean            =   3.1900869973695E-03
(PID.TID 0000.0001) %MON dynstat_uvel_sd              =   2.3437286773304E-02
(PID.TID 0000.0001) %MON dynstat_uvel_del2            =   1.1265988801080E-04
(PID.TID 0000.0001) %MON dynstat_vvel_max             =   1.4277434867801E-01
(PID.TID 0000.0001) %MON dynstat_vvel_min             =  -1.1711067941572E-01
(PID.TID 0000.0001) %MON dynstat_vvel_mean            =  -2.0200900610043E-04
(PID.TID 0000.0001) %MON dynstat_vvel_sd              =   1.2559492763734E-02
(PID.TID 0000.0001) %MON dynstat_vvel_del2            =   1.0043743556204E-04
(PID.TID 0000.0001) %MON dynstat_wvel_max             =   2.4121906003096E-04
(PID.TID 0000.0001) %MON dynstat_wvel_min             =  -2.8066093584601E-04
(PID.TID 0000.0001) %MON dynstat_wvel_mean            =   1.8812864148862E-22
(PID.TID 0000.0001) %MON dynstat_wvel_sd              =   2.1629646833162E-05
(PID.TID 0000.0001) %MON dynstat_wvel_del2            =   2.3718612356296E-07
(PID.TID 0000.0001) %MON dynstat_theta_max            =   3.0229318952857E+01
(PID.TID 0000.0001) %MON dynstat_theta_min            =  -2.0052841798748E+00
(PID.TID 0000.0001) %MON dynstat_theta_mean           =   3.6510528901433E+00
(PID.TID 0000.0001) %MON dynstat_theta_sd             =   4.4175906243126E+00
(PID.TID 0000.0001) %MON dynstat_theta_del2           =   4.8846585904719E-03
(PID.TID 0000.0001) %MON dynstat_salt_max             =   3.7480472361895E+01
(PID.TID 0000.0001) %MON dynstat_salt_min             =   2.9865351452080E+01
(PID.TID 0000.0001) %MON dynstat_salt_mean            =   3.4747951723608E+01
(PID.TID 0000.0001) %MON dynstat_salt_sd              =   2.9618489042518E-01
(PID.TID 0000.0001) %MON dynstat_salt_del2            =   9.9810443894906E-04
(PID.TID 0000.0001) %MON dynstat_sst_max              =   3.0229318952857E+01
(PID.TID 0000.0001) %MON dynstat_sst_min              =  -2.0052841798748E+00
(PID.TID 0000.0001) %MON dynstat_sst_mean             =   1.8771697307280E+01
(PID.TID 0000.0001) %MON dynstat_sst_sd               =   9.0471086452671E+00
(PID.TID 0000.0001) %MON dynstat_sst_del2             =   2.6791941924155E-02
(PID.TID 0000.0001) %MON dynstat_sss_max              =   3.7460207220837E+01
(PID.TID 0000.0001) %MON dynstat_sss_min              =   2.9865351452080E+01
(PID.TID 0000.0001) %MON dynstat_sss_mean             =   3.4876146089304E+01
(PID.TID 0000.0001) %MON dynstat_sss_sd               =   9.7527097966876E-01
(PID.TID 0000.0001) %MON dynstat_sss_del2             =   7.8909392623891E-03
(PID.TID 0000.0001) %MON forcing_qnet_max             =   3.9182731628418E+02
(PID.TID 0000.0001) %MON forcing_qnet_min             =  -1.7642675781250E+02
(PID.TID 0000.0001) %MON forcing_qnet_mean            =  -1.5238888489994E+01
(PID.TID 0000.0001) %MON forcing_qnet_sd              =   9.4114712979606E+01
(PID.TID 0000.0001) %MON forcing_qnet_del2            =   9.7322307830092E-01
(PID.TID 0000.0001) %MON forcing_qsw_max              =   0.0000000000000E+00
(PID.TID 0000.0001) %MON forcing_qsw_min              =   0.0000000000000E+00
(PID.TID 0000.0001) %MON forcing_qsw_mean             =   0.0000000000000E+00
(PID.TID 0000.0001) %MON forcing_qsw_sd               =   0.0000000000000E+00
(PID.TID 0000.0001) %MON forcing_qsw_del2             =   0.0000000000000E+00
(PID.TID 0000.0001) %MON forcing_empmr_max            =   7.7462892988933E-05
(PID.TID 0000.0001) %MON forcing_empmr_min            =  -7.7350620131256E-05
(PID.TID 0000.0001) %MON forcing_empmr_mean           =   9.3317302101000E-07
(PID.TID 0000.0001) %MON forcing_empmr_sd             =   2.8186220289087E-05
(PID.TID 0000.0001) %MON forcing_empmr_del2           =   3.5503679705846E-07
(PID.TID 0000.0001) %MON forcing_fu_max               =   2.8382815420628E-01
(PID.TID 0000.0001) %MON forcing_fu_min               =  -1.9083349406719E-01
(PID.TID 0000.0001) %MON forcing_fu_mean              =   1.6816238384601E-02
(PID.TID 0000.0001) %MON forcing_fu_sd                =   9.0089488020582E-02
(PID.TID 0000.0001) %MON forcing_fu_del2              =   6.6869774104657E-04
(PID.TID 0000.0001) %MON forcing_fv_max               =   1.8921542167664E-01
(PID.TID 0000.0001) %MON forcing_fv_min               =  -1.6326740384102E-01
(PID.TID 0000.0001) %MON forcing_fv_mean              =  -6.2378113402327E-03
(PID.TID 0000.0001) %MON forcing_fv_sd                =   4.4915007548310E-02
(PID.TID 0000.0001) %MON forcing_fv_del2              =   4.6591560448849E-04
(PID.TID 0000.0001) %MON trAdv_CFL_u_max              =   7.5342421213760E-02
(PID.TID 0000.0001) %MON trAdv_CFL_v_max              =   2.7039803468264E-02
(PID.TID 0000.0001) %MON trAdv_CFL_w_max              =   1.1883372746009E-01
(PID.TID 0000.0001) %MON advcfl_uvel_max              =   7.5811825232403E-02
(PID.TID 0000.0001) %MON advcfl_vvel_max              =   2.7738766122881E-02
(PID.TID 0000.0001) %MON advcfl_wvel_max              =   1.0559763453372E-01
(PID.TID 0000.0001) %MON advcfl_W_hf_max              =   1.1949206013026E-01
(PID.TID 0000.0001) %MON pe_b_mean                    =   4.5154017810581E-04
(PID.TID 0000.0001) %MON ke_max                       =   2.9218666784775E-02
(PID.TID 0000.0001) %MON ke_mean                      =   3.2501673009707E-04
(PID.TID 0000.0001) %MON ke_vol                       =   1.3226782436723E+18
(PID.TID 0000.0001) %MON vort_r_min                   =  -5.9592370750432E-07
(PID.TID 0000.0001) %MON vort_r_max                   =   6.8873839773769E-07
(PID.TID 0000.0001) %MON vort_a_mean                  =  -2.5274808309748E-05
(PID.TID 0000.0001) %MON vort_a_sd                    =   7.3604687403023E-05
(PID.TID 0000.0001) %MON vort_p_mean                  =  -3.1845656948945E-05
(PID.TID 0000.0001) %MON vort_p_sd                    =   1.3162884933898E-04
(PID.TID 0000.0001) %MON surfExpan_theta_mean         =   5.0358700382497E-07
(PID.TID 0000.0001) %MON surfExpan_salt_mean          =  -3.7965389553048E-07
(PID.TID 0000.0001) // =======================================================
(PID.TID 0000.0001) // End MONITOR dynamic field statistics
(PID.TID 0000.0001) // =======================================================
 EXTERNAL_FIELDS_LOAD,        31 : iP,iLd,i0,i1=    1    2    1    2 ; Wght=  0.4666666667  0.5333333333
 EXTERNAL_FIELDS_LOAD: (fu0,1),fu,fv= -3.5633E-02 -1.4435E-02 -2.4327E-02 -3.6125E-02
 EXTERNAL_FIELDS_LOAD: SST,SSS,Q,E-P=  1.6361E-01  3.4558E+01  2.5228E+02  9.8983E-06
DEBUG_STATS_RL:          Uvel (THERMODYNAMICS)  min= -1.89771340531149E-01
DEBUG_STATS_RL:          Uvel (THERMODYNAMICS)  max=  2.29360531763559E-01
DEBUG_STATS_RL:          Uvel (THERMODYNAMICS) mean=  5.38206741978558E-03
DEBUG_STATS_RL:          Uvel (THERMODYNAMICS) S.D.=  2.92865117409241E-02
DEBUG_STATS_RL:          Vvel (THERMODYNAMICS)  min= -1.17110679415720E-01
DEBUG_STATS_RL:          Vvel (THERMODYNAMICS)  max=  1.42774348678010E-01
DEBUG_STATS_RL:          Vvel (THERMODYNAMICS) mean=  9.19334952650957E-05
DEBUG_STATS_RL:          Vvel (THERMODYNAMICS) S.D.=  1.66004105558321E-02
DEBUG_STATS_RL:          Wvel (THERMODYNAMICS)  min= -2.80660935846008E-04
DEBUG_STATS_RL:          Wvel (THERMODYNAMICS)  max=  2.41219060030959E-04
DEBUG_STATS_RL:          Wvel (THERMODYNAMICS) mean= -1.45027239059639E-07
DEBUG_STATS_RL:          Wvel (THERMODYNAMICS) S.D.=  1.97753132242727E-05
DEBUG_STATS_RL:         Theta (THERMODYNAMICS)  min= -2.00494199763562E+00
DEBUG_STATS_RL:         Theta (THERMODYNAMICS)  max=  3.02500024320566E+01
DEBUG_STATS_RL:         Theta (THERMODYNAMICS) mean=  3.23932435663539E+00
DEBUG_STATS_RL:         Theta (THERMODYNAMICS) S.D.=  5.85863710564487E+00
DEBUG_STATS_RL:          Salt (THERMODYNAMICS)  min=  3.00000000000000E-02
DEBUG_STATS_RL:          Salt (THERMODYNAMICS)  max=  3.74815932132715E+01
DEBUG_STATS_RL:          Salt (THERMODYNAMICS) mean=  1.88748748089240E+01
DEBUG_STATS_RL:          Salt (THERMODYNAMICS) S.D.=  1.73003850988441E+01
DEBUG_STATS_RL:         GtNm1 (THERMODYNAMICS)  min= -4.01881648606424E-06
DEBUG_STATS_RL:         GtNm1 (THERMODYNAMICS)  max=  3.55596119130879E-06
DEBUG_STATS_RL:         GtNm1 (THERMODYNAMICS) mean=  6.20915213331787E-09
DEBUG_STATS_RL:         GtNm1 (THERMODYNAMICS) S.D.=  2.28095405241052E-07
DEBUG_STATS_RL:         GsNm1 (THERMODYNAMICS)  min= -8.41443399212236E-07
DEBUG_STATS_RL:         GsNm1 (THERMODYNAMICS)  max=  6.55608696521226E-07
DEBUG_STATS_RL:         GsNm1 (THERMODYNAMICS) mean= -4.55143375751973E-10
DEBUG_STATS_RL:         GsNm1 (THERMODYNAMICS) S.D.=  2.17803405874274E-08
DEBUG_STATS_RL:                EtaN (DYNAMICS)  min= -2.03434084419773E+00
DEBUG_STATS_RL:                EtaN (DYNAMICS)  max=  1.27306529423952E+00
DEBUG_STATS_RL:                EtaN (DYNAMICS) mean= -1.42866114810956E-01
DEBUG_STATS_RL:                EtaN (DYNAMICS) S.D.=  6.99732413641665E-01
DEBUG_STATS_RL:                Uvel (DYNAMICS)  min= -1.89771340531149E-01
DEBUG_STATS_RL:                Uvel (DYNAMICS)  max=  2.29360531763559E-01
DEBUG_STATS_RL:                Uvel (DYNAMICS) mean=  5.38206741978558E-03
DEBUG_STATS_RL:                Uvel (DYNAMICS) S.D.=  2.92865117409241E-02
DEBUG_STATS_RL:                Vvel (DYNAMICS)  min= -1.17110679415720E-01
DEBUG_STATS_RL:                Vvel (DYNAMICS)  max=  1.42774348678010E-01
DEBUG_STATS_RL:                Vvel (DYNAMICS) mean=  9.19334952650957E-05
DEBUG_STATS_RL:                Vvel (DYNAMICS) S.D.=  1.66004105558321E-02
DEBUG_STATS_RL:                Wvel (DYNAMICS)  min= -2.80660935846008E-04
DEBUG_STATS_RL:                Wvel (DYNAMICS)  max=  2.41219060030959E-04
DEBUG_STATS_RL:                Wvel (DYNAMICS) mean= -1.45027239059639E-07
DEBUG_STATS_RL:                Wvel (DYNAMICS) S.D.=  1.97753132242727E-05
DEBUG_STATS_RL:               Theta (DYNAMICS)  min= -2.00494199763562E+00
DEBUG_STATS_RL:               Theta (DYNAMICS)  max=  3.02500024320566E+01
DEBUG_STATS_RL:               Theta (DYNAMICS) mean=  3.23932435663539E+00
DEBUG_STATS_RL:               Theta (DYNAMICS) S.D.=  5.85863710564487E+00
DEBUG_STATS_RL:                Salt (DYNAMICS)  min=  3.00000000000000E-02
DEBUG_STATS_RL:                Salt (DYNAMICS)  max=  3.74815932132715E+01
DEBUG_STATS_RL:                Salt (DYNAMICS) mean=  1.88748748089240E+01
DEBUG_STATS_RL:                Salt (DYNAMICS) S.D.=  1.73003850988441E+01
DEBUG_STATS_RL:                  Gu (DYNAMICS)  min= -1.91923352332935E-01
DEBUG_STATS_RL:                  Gu (DYNAMICS)  max=  2.08714074228523E-01
DEBUG_STATS_RL:                  Gu (DYNAMICS) mean=  5.76706717138469E-03
DEBUG_STATS_RL:                  Gu (DYNAMICS) S.D.=  3.01412061396830E-02
DEBUG_STATS_RL:                  Gv (DYNAMICS)  min= -1.18845971767406E-01
DEBUG_STATS_RL:                  Gv (DYNAMICS)  max=  1.46184257484409E-01
DEBUG_STATS_RL:                  Gv (DYNAMICS) mean=  2.52914734027936E-03
DEBUG_STATS_RL:                  Gv (DYNAMICS) S.D.=  1.69113719188363E-02
DEBUG_STATS_RL:               GuNm1 (DYNAMICS)  min= -8.42125802332579E-06
DEBUG_STATS_RL:               GuNm1 (DYNAMICS)  max=  7.69240507210259E-06
DEBUG_STATS_RL:               GuNm1 (DYNAMICS) mean= -1.91630045277147E-08
DEBUG_STATS_RL:               GuNm1 (DYNAMICS) S.D.=  1.21588167770351E-06
DEBUG_STATS_RL:               GvNm1 (DYNAMICS)  min= -1.10510639288805E-05
DEBUG_STATS_RL:               GvNm1 (DYNAMICS)  max=  1.66659836770083E-05
DEBUG_STATS_RL:               GvNm1 (DYNAMICS) mean=  7.65460060826826E-07
DEBUG_STATS_RL:               GvNm1 (DYNAMICS) S.D.=  2.66902965590196E-06
DEBUG_STATS_RL:               GtNm1 (DYNAMICS)  min= -4.01881648606424E-06
DEBUG_STATS_RL:               GtNm1 (DYNAMICS)  max=  3.55596119130879E-06
DEBUG_STATS_RL:               GtNm1 (DYNAMICS) mean=  6.20915213331787E-09
DEBUG_STATS_RL:               GtNm1 (DYNAMICS) S.D.=  2.28095405241052E-07
DEBUG_STATS_RL:               GsNm1 (DYNAMICS)  min= -8.41443399212236E-07
DEBUG_STATS_RL:               GsNm1 (DYNAMICS)  max=  6.55608696521226E-07
DEBUG_STATS_RL:               GsNm1 (DYNAMICS) mean= -4.55143375751973E-10
DEBUG_STATS_RL:               GsNm1 (DYNAMICS) S.D.=  2.17803405874274E-08
DEBUG_STATS_RL:    cg2d_b (SOLVE_FOR_PRESSURE)  min= -1.97277393824452E+04
DEBUG_STATS_RL:    cg2d_b (SOLVE_FOR_PRESSURE)  max=  2.23138868652430E+04
DEBUG_STATS_RL:    cg2d_b (SOLVE_FOR_PRESSURE) mean=  2.27657678242856E+00
DEBUG_STATS_RL:    cg2d_b (SOLVE_FOR_PRESSURE) S.D.=  4.05968170110353E+03
 cg2d: Sum(rhs),rhsMax =   2.36188131774172E-01  1.46563583308358E+00
(PID.TID 0000.0001)  cg2d: iter=     1 ; resid.=  4.42911217008957E-01
(PID.TID 0000.0001)  cg2d: iter=     2 ; resid.=  4.08590307839486E-01
(PID.TID 0000.0001)  cg2d: iter=     3 ; resid.=  3.73061461539578E-01
(PID.TID 0000.0001)  cg2d: iter=     4 ; resid.=  3.48014201239002E-01
(PID.TID 0000.0001)  cg2d: iter=     5 ; resid.=  3.30309560461160E-01
(PID.TID 0000.0001)  cg2d: iter=     6 ; resid.=  2.84965160806243E-01
(PID.TID 0000.0001)  cg2d: iter=     7 ; resid.=  2.24727316302843E-01
(PID.TID 0000.0001)  cg2d: iter=     8 ; resid.=  1.61961936021341E-01
(PID.TID 0000.0001)  cg2d: iter=     9 ; resid.=  1.20904938092431E-01
(PID.TID 0000.0001)  cg2d: iter=    10 ; resid.=  1.05251558610798E-01
(PID.TID 0000.0001)  cg2d: iter=    11 ; resid.=  9.08142234450321E-02
(PID.TID 0000.0001)  cg2d: iter=    12 ; resid.=  7.87823467739172E-02
(PID.TID 0000.0001)  cg2d: iter=    13 ; resid.=  6.27739307776240E-02
(PID.TID 0000.0001)  cg2d: iter=    14 ; resid.=  5.07953044741008E-02
(PID.TID 0000.0001)  cg2d: iter=    15 ; resid.=  4.01968041447696E-02
(PID.TID 0000.0001)  cg2d: iter=    16 ; resid.=  3.63177118801537E-02
(PID.TID 0000.0001)  cg2d: iter=    17 ; resid.=  3.18676893075340E-02
(PID.TID 0000.0001)  cg2d: iter=    18 ; resid.=  2.81222659113710E-02
(PID.TID 0000.0001)  cg2d: iter=    19 ; resid.=  2.12590959014499E-02
(PID.TID 0000.0001)  cg2d: iter=    20 ; resid.=  1.79247627077152E-02
(PID.TID 0000.0001)  cg2d: iter=    21 ; resid.=  1.54847918304161E-02
(PID.TID 0000.0001)  cg2d: iter=    22 ; resid.=  1.35387106479971E-02
(PID.TID 0000.0001)  cg2d: iter=    23 ; resid.=  1.16257796870932E-02
(PID.TID 0000.0001)  cg2d: iter=    24 ; resid.=  1.00581803724037E-02
(PID.TID 0000.0001)  cg2d: iter=    25 ; resid.=  7.24492670725950E-03
(PID.TID 0000.0001)  cg2d: iter=    26 ; resid.=  6.14104430510373E-03
(PID.TID 0000.0001)  cg2d: iter=    27 ; resid.=  5.00952453768132E-03
(PID.TID 0000.0001)  cg2d: iter=    28 ; resid.=  4.03891884060717E-03
(PID.TID 0000.0001)  cg2d: iter=    29 ; resid.=  3.16977489126591E-03
(PID.TID 0000.0001)  cg2d: iter=    30 ; resid.=  2.61160870009426E-03
(PID.TID 0000.0001)  cg2d: iter=    31 ; resid.=  2.19778418709556E-03
(PID.TID 0000.0001)  cg2d: iter=    32 ; resid.=  1.86241747191315E-03
(PID.TID 0000.0001)  cg2d: iter=    33 ; resid.=  1.53796525877079E-03
(PID.TID 0000.0001)  cg2d: iter=    34 ; resid.=  1.29739045332496E-03
(PID.TID 0000.0001)  cg2d: iter=    35 ; resid.=  1.07726930229672E-03
(PID.TID 0000.0001)  cg2d: iter=    36 ; resid.=  9.20429525219571E-04
(PID.TID 0000.0001)  cg2d: iter=    37 ; resid.=  8.33040158115380E-04
(PID.TID 0000.0001)  cg2d: iter=    38 ; resid.=  7.47767387415828E-04
(PID.TID 0000.0001)  cg2d: iter=    39 ; resid.=  6.12545246012809E-04
(PID.TID 0000.0001)  cg2d: iter=    40 ; resid.=  5.15016501188173E-04
(PID.TID 0000.0001)  cg2d: iter=    41 ; resid.=  4.49074136360630E-04
(PID.TID 0000.0001)  cg2d: iter=    42 ; resid.=  4.00654056612044E-04
(PID.TID 0000.0001)  cg2d: iter=    43 ; resid.=  3.18815712070233E-04
(PID.TID 0000.0001)  cg2d: iter=    44 ; resid.=  2.56112441953249E-04
(PID.TID 0000.0001)  cg2d: iter=    45 ; resid.=  2.01325318703996E-04
(PID.TID 0000.0001)  cg2d: iter=    46 ; resid.=  1.67699113015650E-04
(PID.TID 0000.0001)  cg2d: iter=    47 ; resid.=  1.41238916575204E-04
(PID.TID 0000.0001)  cg2d: iter=    48 ; resid.=  1.07409744506230E-04
(PID.TID 0000.0001)  cg2d: iter=    49 ; resid.=  8.46934803830216E-05
(PID.TID 0000.0001)  cg2d: iter=    50 ; resid.=  7.63677075185833E-05
(PID.TID 0000.0001)  cg2d: iter=    51 ; resid.=  6.90451264344208E-05
(PID.TID 0000.0001)  cg2d: iter=    52 ; resid.=  6.09404976446467E-05
(PID.TID 0000.0001)  cg2d: iter=    53 ; resid.=  5.40523088571565E-05
(PID.TID 0000.0001)  cg2d: iter=    54 ; resid.=  4.20010988098791E-05
(PID.TID 0000.0001)  cg2d: iter=    55 ; resid.=  3.66944135788040E-05
(PID.TID 0000.0001)  cg2d: iter=    56 ; resid.=  3.23645508216300E-05
(PID.TID 0000.0001)  cg2d: iter=    57 ; resid.=  2.48569599987837E-05
(PID.TID 0000.0001)  cg2d: iter=    58 ; resid.=  1.95384325467656E-05
(PID.TID 0000.0001)  cg2d: iter=    59 ; resid.=  1.49533311060774E-05
(PID.TID 0000.0001)  cg2d: iter=    60 ; resid.=  1.17574283180215E-05
(PID.TID 0000.0001)  cg2d: iter=    61 ; resid.=  9.72519097234845E-06
(PID.TID 0000.0001)  cg2d: iter=    62 ; resid.=  8.22905188822136E-06
(PID.TID 0000.0001)  cg2d: iter=    63 ; resid.=  6.43461782311541E-06
(PID.TID 0000.0001)  cg2d: iter=    64 ; resid.=  5.46928907219412E-06
(PID.TID 0000.0001)  cg2d: iter=    65 ; resid.=  4.03220296222627E-06
(PID.TID 0000.0001)  cg2d: iter=    66 ; resid.=  3.56414017398147E-06
(PID.TID 0000.0001)  cg2d: iter=    67 ; resid.=  3.22809119481443E-06
(PID.TID 0000.0001)  cg2d: iter=    68 ; resid.=  2.78004776681279E-06
(PID.TID 0000.0001)  cg2d: iter=    69 ; resid.=  2.30595227906005E-06
(PID.TID 0000.0001)  cg2d: iter=    70 ; resid.=  1.91832799189120E-06
(PID.TID 0000.0001)  cg2d: iter=    71 ; resid.=  1.54264883561893E-06
(PID.TID 0000.0001)  cg2d: iter=    72 ; resid.=  1.37190687928758E-06
(PID.TID 0000.0001)  cg2d: iter=    73 ; resid.=  1.18372068357137E-06
(PID.TID 0000.0001)  cg2d: iter=    74 ; resid.=  1.02875632684524E-06
(PID.TID 0000.0001)  cg2d: iter=    75 ; resid.=  8.31624242079600E-07
(PID.TID 0000.0001)  cg2d: iter=    76 ; resid.=  6.95188124260042E-07
(PID.TID 0000.0001)  cg2d: iter=    77 ; resid.=  5.27767705305084E-07
(PID.TID 0000.0001)  cg2d: iter=    78 ; resid.=  4.04421244657200E-07
(PID.TID 0000.0001)  cg2d: iter=    79 ; resid.=  3.13704462371660E-07
(PID.TID 0000.0001)  cg2d: iter=    80 ; resid.=  2.21076884105546E-07
(PID.TID 0000.0001)  cg2d: iter=    81 ; resid.=  1.72221812168124E-07
(PID.TID 0000.0001)  cg2d: iter=    82 ; resid.=  1.36915854024706E-07
(PID.TID 0000.0001)  cg2d: iter=    83 ; resid.=  1.00629625823118E-07
(PID.TID 0000.0001)  cg2d: iter=    84 ; resid.=  7.30050110968884E-08
(PID.TID 0000.0001)  cg2d: iter=    85 ; resid.=  5.43317396754422E-08
(PID.TID 0000.0001)  cg2d: iter=    86 ; resid.=  3.94896880712112E-08
(PID.TID 0000.0001)  cg2d: iter=    87 ; resid.=  2.81070290436459E-08
(PID.TID 0000.0001)  cg2d: iter=    88 ; resid.=  2.18743683417958E-08
(PID.TID 0000.0001)  cg2d: iter=    89 ; resid.=  1.88049072773678E-08
(PID.TID 0000.0001)  cg2d: iter=    90 ; resid.=  1.74666257011318E-08
(PID.TID 0000.0001)  cg2d: iter=    91 ; resid.=  1.47281219153122E-08
(PID.TID 0000.0001)  cg2d: iter=    92 ; resid.=  1.21979575288306E-08
(PID.TID 0000.0001)  cg2d: iter=    93 ; resid.=  1.05502981918828E-08
(PID.TID 0000.0001)  cg2d: iter=    94 ; resid.=  8.46007993623985E-09
(PID.TID 0000.0001)  cg2d: iter=    95 ; resid.=  6.92735275113541E-09
(PID.TID 0000.0001)  cg2d: iter=    96 ; resid.=  5.18462766169146E-09
(PID.TID 0000.0001)  cg2d: iter=    97 ; resid.=  4.07456228442646E-09
(PID.TID 0000.0001)  cg2d: iter=    98 ; resid.=  3.32242280767221E-09
(PID.TID 0000.0001)  cg2d: iter=    99 ; resid.=  2.71581323167374E-09
(PID.TID 0000.0001)  cg2d: iter=   100 ; resid.=  2.19131914103058E-09
(PID.TID 0000.0001)  cg2d: iter=   101 ; resid.=  1.73114308929964E-09
(PID.TID 0000.0001)  cg2d: iter=   102 ; resid.=  1.31730942912318E-09
(PID.TID 0000.0001)  cg2d: iter=   103 ; resid.=  9.42249661196428E-10
(PID.TID 0000.0001)  cg2d: iter=   104 ; resid.=  7.55965481765955E-10
(PID.TID 0000.0001)  cg2d: iter=   105 ; resid.=  5.73575332187738E-10
(PID.TID 0000.0001)  cg2d: iter=   106 ; resid.=  4.77078503479218E-10
(PID.TID 0000.0001)  cg2d: iter=   107 ; resid.=  3.94351396666303E-10
(PID.TID 0000.0001)  cg2d: iter=   108 ; resid.=  2.86839030743851E-10
(PID.TID 0000.0001)  cg2d: iter=   109 ; resid.=  2.19209497880617E-10
(PID.TID 0000.0001)  cg2d: iter=   110 ; resid.=  1.63655408421923E-10
(PID.TID 0000.0001)  cg2d: iter=   111 ; resid.=  1.21576912296627E-10
(PID.TID 0000.0001)  cg2d: iter=   112 ; resid.=  9.17912809838798E-11
(PID.TID 0000.0001)  cg2d: iter=   113 ; resid.=  6.59748759147365E-11
(PID.TID 0000.0001)  cg2d: iter=   114 ; resid.=  5.10161329536343E-11
(PID.TID 0000.0001)  cg2d: iter=   115 ; resid.=  3.92988146170969E-11
(PID.TID 0000.0001)  cg2d: iter=   116 ; resid.=  2.87197318621600E-11
(PID.TID 0000.0001)  cg2d: iter=   117 ; resid.=  2.27868142458495E-11
(PID.TID 0000.0001)  cg2d: iter=   118 ; resid.=  1.88645572825616E-11
(PID.TID 0000.0001)  cg2d: iter=   119 ; resid.=  1.48323724547463E-11
(PID.TID 0000.0001)  cg2d: iter=   120 ; resid.=  1.18113066478680E-11
(PID.TID 0000.0001)  cg2d: iter=   121 ; resid.=  9.40462152895275E-12
(PID.TID 0000.0001)  cg2d: iter=   122 ; resid.=  6.93747460635311E-12
(PID.TID 0000.0001)  cg2d: iter=   123 ; resid.=  5.24607486738833E-12
(PID.TID 0000.0001)  cg2d: iter=   124 ; resid.=  4.13035759223433E-12
(PID.TID 0000.0001)  cg2d: iter=   125 ; resid.=  3.03320812133204E-12
(PID.TID 0000.0001)  cg2d: iter=   126 ; resid.=  2.00965519179393E-12
(PID.TID 0000.0001)  cg2d: iter=   127 ; resid.=  1.27825777282573E-12
(PID.TID 0000.0001)  cg2d: iter=   128 ; resid.=  8.82735999567443E-13
(PID.TID 0000.0001)  cg2d: iter=   129 ; resid.=  6.25577256091053E-13
(PID.TID 0000.0001)  cg2d: iter=   130 ; resid.=  4.69477161813677E-13
(PID.TID 0000.0001)  cg2d: iter=   131 ; resid.=  3.36069335624796E-13
(PID.TID 0000.0001)  cg2d: iter=   132 ; resid.=  2.52844825564259E-13
(PID.TID 0000.0001)  cg2d: iter=   133 ; resid.=  1.98291494509276E-13
(PID.TID 0000.0001)  cg2d: iter=   134 ; resid.=  1.68942637467327E-13
(PID.TID 0000.0001)  cg2d: iter=   135 ; resid.=  1.39037166297184E-13
(PID.TID 0000.0001)  cg2d: iter=   136 ; resid.=  1.04368045699571E-13
(PID.TID 0000.0001)  cg2d: iter=   137 ; resid.=  7.94519440398976E-14
DEBUG_STATS_RL:    cg2d_x (SOLVE_FOR_PRESSURE)  min= -1.99922387883331E+01
DEBUG_STATS_RL:    cg2d_x (SOLVE_FOR_PRESSURE)  max=  1.25320064630763E+01
DEBUG_STATS_RL:    cg2d_x (SOLVE_FOR_PRESSURE) mean= -1.43363771962955E+00
DEBUG_STATS_RL:    cg2d_x (SOLVE_FOR_PRESSURE) S.D.=  6.77543859595667E+00
(PID.TID 0000.0001)      cg2d_init_res =   6.18146384978402E-01
(PID.TID 0000.0001)      cg2d_iters(min,last) =      -1     137
(PID.TID 0000.0001)      cg2d_last_res =   7.94519440398976E-14
(PID.TID 0000.0001) // =======================================================
(PID.TID 0000.0001) // Begin MONITOR dynamic field statistics
(PID.TID 0000.0001) // =======================================================
(PID.TID 0000.0001) %MON time_tsnumber                =                    32
(PID.TID 0000.0001) %MON time_secondsf                =   2.7648000000000E+06
(PID.TID 0000.0001) %MON dynstat_eta_max              =   1.2774726262055E+00
(PID.TID 0000.0001) %MON dynstat_eta_min              =  -2.0379448306150E+00
(PID.TID 0000.0001) %MON dynstat_eta_mean             =  -2.3753255862622E-03
(PID.TID 0000.0001) %MON dynstat_eta_sd               =   5.9320962459398E-01
(PID.TID 0000.0001) %MON dynstat_eta_del2             =   2.2630441007006E-03
(PID.TID 0000.0001) %MON dynstat_uvel_max             =   2.2471907779669E-01
(PID.TID 0000.0001) %MON dynstat_uvel_min             =  -1.9053109175697E-01
(PID.TID 0000.0001) %MON dynstat_uvel_mean            =   3.4753374332259E-03
(PID.TID 0000.0001) %MON dynstat_uvel_sd              =   2.3609879048421E-02
(PID.TID 0000.0001) %MON dynstat_uvel_del2            =   1.1209692699819E-04
(PID.TID 0000.0001) %MON dynstat_vvel_max             =   1.4862570098706E-01
(PID.TID 0000.0001) %MON dynstat_vvel_min             =  -1.1581354982149E-01
(PID.TID 0000.0001) %MON dynstat_vvel_mean            =  -2.5366297588600E-04
(PID.TID 0000.0001) %MON dynstat_vvel_sd              =   1.2556201304347E-02
(PID.TID 0000.0001) %MON dynstat_vvel_del2            =   1.0162551786872E-04
(PID.TID 0000.0001) %MON dynstat_wvel_max             =   2.3646939976721E-04
(PID.TID 0000.0001) %MON dynstat_wvel_min             =  -2.6236743495631E-04
(PID.TID 0000.0001) %MON dynstat_wvel_mean            =   7.8696582412514E-23
(PID.TID 0000.0001) %MON dynstat_wvel_sd              =   2.1703071329622E-05
(PID.TID 0000.0001) %MON dynstat_wvel_del2            =   2.3725231180178E-07
(PID.TID 0000.0001) %MON dynstat_theta_max            =   3.0250002432057E+01
(PID.TID 0000.0001) %MON dynstat_theta_min            =  -2.0049419976356E+00
(PID.TID 0000.0001) %MON dynstat_theta_mean           =   3.6511233922499E+00
(PID.TID 0000.0001) %MON dynstat_theta_sd             =   4.4177140975917E+00
(PID.TID 0000.0001) %MON dynstat_theta_del2           =   4.8759116189167E-03
(PID.TID 0000.0001) %MON dynstat_salt_max             =   3.7481593213272E+01
(PID.TID 0000.0001) %MON dynstat_salt_min             =   2.9862594236800E+01
(PID.TID 0000.0001) %MON dynstat_salt_mean            =   3.4747961839851E+01
(PID.TID 0000.0001) %MON dynstat_salt_sd              =   2.9621070556582E-01
(PID.TID 0000.0001) %MON dynstat_salt_del2            =   9.9669454521886E-04
(PID.TID 0000.0001) %MON dynstat_sst_max              =   3.0250002432057E+01
(PID.TID 0000.0001) %MON dynstat_sst_min              =  -2.0049419976356E+00
(PID.TID 0000.0001) %MON dynstat_sst_mean             =   1.8779879226841E+01
(PID.TID 0000.0001) %MON dynstat_sst_sd               =   9.0434671548988E+00
(PID.TID 0000.0001) %MON dynstat_sst_del2             =   2.6828680342814E-02
(PID.TID 0000.0001) %MON dynstat_sss_max              =   3.7460410872240E+01
(PID.TID 0000.0001) %MON dynstat_sss_min              =   2.9862594236800E+01
(PID.TID 0000.0001) %MON dynstat_sss_mean             =   3.4875725503469E+01
(PID.TID 0000.0001) %MON dynstat_sss_sd               =   9.7551915920930E-01
(PID.TID 0000.0001) %MON dynstat_sss_del2             =   7.8896600107929E-03
(PID.TID 0000.0001) %MON forcing_qnet_max             =   3.8850822957357E+02
(PID.TID 0000.0001) %MON forcing_qnet_min             =  -1.7618723856608E+02
(PID.TID 0000.0001) %MON forcing_qnet_mean            =  -1.5153979322590E+01
(PID.TID 0000.0001) %MON forcing_qnet_sd              =   9.3101706459460E+01
(PID.TID 0000.0001) %MON forcing_qnet_del2            =   9.7073809157123E-01
(PID.TID 0000.0001) %MON forcing_qsw_max              =   0.0000000000000E+00
(PID.TID 0000.0001) %MON forcing_qsw_min              =   0.0000000000000E+00
(PID.TID 0000.0001) %MON forcing_qsw_mean             =   0.0000000000000E+00
(PID.TID 0000.0001) %MON forcing_qsw_sd               =   0.0000000000000E+00
(PID.TID 0000.0001) %MON forcing_qsw_del2             =   0.0000000000000E+00
(PID.TID 0000.0001) %MON forcing_empmr_max            =   7.7148803256932E-05
(PID.TID 0000.0001) %MON forcing_empmr_min            =  -7.7430264392812E-05
(PID.TID 0000.0001) %MON forcing_empmr_mean           =   9.3385541826996E-07
(PID.TID 0000.0001) %MON forcing_empmr_sd             =   2.8159654457023E-05
(PID.TID 0000.0001) %MON forcing_empmr_del2           =   3.5467644143970E-07
(PID.TID 0000.0001) %MON forcing_fu_max               =   2.8521531224251E-01
(PID.TID 0000.0001) %MON forcing_fu_min               =  -1.9249341785908E-01
(PID.TID 0000.0001) %MON forcing_fu_mean              =   1.6870538600070E-02
(PID.TID 0000.0001) %MON forcing_fu_sd                =   9.0164710524852E-02
(PID.TID 0000.0001) %MON forcing_fu_del2              =   6.6983433008820E-04
(PID.TID 0000.0001) %MON forcing_fv_max               =   1.8811390101910E-01
(PID.TID 0000.0001) %MON forcing_fv_min               =  -1.6227610409260E-01
(PID.TID 0000.0001) %MON forcing_fv_mean              =  -6.3030722469479E-03
(PID.TID 0000.0001) %MON forcing_fv_sd                =   4.4812198805099E-02
(PID.TID 0000.0001) %MON forcing_fv_del2              =   4.6773713492803E-04
(PID.TID 0000.0001) %MON trAdv_CFL_u_max              =   7.5827223156323E-02
(PID.TID 0000.0001) %MON trAdv_CFL_v_max              =   2.9060202189866E-02
(PID.TID 0000.0001) %MON trAdv_CFL_w_max              =   1.1949206013026E-01
(PID.TID 0000.0001) %MON advcfl_uvel_max              =   7.4277659374593E-02
(PID.TID 0000.0001) %MON advcfl_vvel_max              =   2.8875590032121E-02
(PID.TID 0000.0001) %MON advcfl_wvel_max              =   1.0284152209980E-01
(PID.TID 0000.0001) %MON advcfl_W_hf_max              =   1.1637330132346E-01
(PID.TID 0000.0001) %MON pe_b_mean                    =   4.5030268938028E-04
(PID.TID 0000.0001) %MON ke_max                       =   3.0702120928201E-02
(PID.TID 0000.0001) %MON ke_mean                      =   3.2954300890609E-04
(PID.TID 0000.0001) %MON ke_vol                       =   1.3226782436723E+18
(PID.TID 0000.0001) %MON vort_r_min                   =  -5.0611072681756E-07
(PID.TID 0000.0001) %MON vort_r_max                   =   7.1273480524011E-07
(PID.TID 0000.0001) %MON vort_a_mean                  =  -2.5274808309788E-05
(PID.TID 0000.0001) %MON vort_a_sd                    =   7.3604740944207E-05
(PID.TID 0000.0001) %MON vort_p_mean                  =  -3.1845656948995E-05
(PID.TID 0000.0001) %MON vort_p_sd                    =   1.3162859106870E-04
(PID.TID 0000.0001) %MON surfExpan_theta_mean         =   6.6029294742988E-07
(PID.TID 0000.0001) %MON surfExpan_salt_mean          =  -4.0628777422545E-07
(PID.TID 0000.0001) // =======================================================
(PID.TID 0000.0001) // End MONITOR dynamic field statistics
(PID.TID 0000.0001) // =======================================================
 EXTERNAL_FIELDS_LOAD,        32 : iP,iLd,i0,i1=    1    2    1    2 ; Wght=  0.4333333333  0.5666666667
 EXTERNAL_FIELDS_LOAD: (fu0,1),fu,fv= -3.5633E-02 -1.4435E-02 -2.3621E-02 -3.4805E-02
 EXTERNAL_FIELDS_LOAD: SST,SSS,Q,E-P=  1.1393E-01  3.4548E+01  2.5144E+02  9.7896E-06
DEBUG_STATS_RL:          Uvel (THERMODYNAMICS)  min= -1.90531091756967E-01
DEBUG_STATS_RL:          Uvel (THERMODYNAMICS)  max=  2.24719077796687E-01
DEBUG_STATS_RL:          Uvel (THERMODYNAMICS) mean=  5.59155688098742E-03
DEBUG_STATS_RL:          Uvel (THERMODYNAMICS) S.D.=  2.97036763657238E-02
DEBUG_STATS_RL:          Vvel (THERMODYNAMICS)  min= -1.15813549821490E-01
DEBUG_STATS_RL:          Vvel (THERMODYNAMICS)  max=  1.48625700987064E-01
DEBUG_STATS_RL:          Vvel (THERMODYNAMICS) mean= -9.23247383605579E-05
DEBUG_STATS_RL:          Vvel (THERMODYNAMICS) S.D.=  1.65723438658184E-02
DEBUG_STATS_RL:          Wvel (THERMODYNAMICS)  min= -2.62367434956314E-04
DEBUG_STATS_RL:          Wvel (THERMODYNAMICS)  max=  2.36469399767211E-04
DEBUG_STATS_RL:          Wvel (THERMODYNAMICS) mean= -2.06262427469881E-07
DEBUG_STATS_RL:          Wvel (THERMODYNAMICS) S.D.=  1.97791909698463E-05
DEBUG_STATS_RL:         Theta (THERMODYNAMICS)  min= -2.00477568872879E+00
DEBUG_STATS_RL:         Theta (THERMODYNAMICS)  max=  3.02633507862248E+01
DEBUG_STATS_RL:         Theta (THERMODYNAMICS) mean=  3.23969316380094E+00
DEBUG_STATS_RL:         Theta (THERMODYNAMICS) S.D.=  5.85893467887882E+00
DEBUG_STATS_RL:          Salt (THERMODYNAMICS)  min=  3.00000000000000E-02
DEBUG_STATS_RL:          Salt (THERMODYNAMICS)  max=  3.74826383405609E+01
DEBUG_STATS_RL:          Salt (THERMODYNAMICS) mean=  1.88748616432599E+01
DEBUG_STATS_RL:          Salt (THERMODYNAMICS) S.D.=  1.73003742372271E+01
DEBUG_STATS_RL:         GtNm1 (THERMODYNAMICS)  min= -3.85160227513553E-06
DEBUG_STATS_RL:         GtNm1 (THERMODYNAMICS)  max=  3.71172034327803E-06
DEBUG_STATS_RL:         GtNm1 (THERMODYNAMICS) mean=  7.48933528976796E-09
DEBUG_STATS_RL:         GtNm1 (THERMODYNAMICS) S.D.=  2.26669477241591E-07
DEBUG_STATS_RL:         GsNm1 (THERMODYNAMICS)  min= -7.95006523497209E-07
DEBUG_STATS_RL:         GsNm1 (THERMODYNAMICS)  max=  6.22247182675175E-07
DEBUG_STATS_RL:         GsNm1 (THERMODYNAMICS) mean= -3.79509162876822E-10
DEBUG_STATS_RL:         GsNm1 (THERMODYNAMICS) S.D.=  2.16430820855065E-08
DEBUG_STATS_RL:                EtaN (DYNAMICS)  min= -2.03794483061498E+00
DEBUG_STATS_RL:                EtaN (DYNAMICS)  max=  1.27747262620554E+00
DEBUG_STATS_RL:                EtaN (DYNAMICS) mean= -1.46140440329209E-01
DEBUG_STATS_RL:                EtaN (DYNAMICS) S.D.=  6.90666523542984E-01
DEBUG_STATS_RL:                Uvel (DYNAMICS)  min= -1.90531091756967E-01
DEBUG_STATS_RL:                Uvel (DYNAMICS)  max=  2.24719077796687E-01
DEBUG_STATS_RL:                Uvel (DYNAMICS) mean=  5.59155688098742E-03
DEBUG_STATS_RL:                Uvel (DYNAMICS) S.D.=  2.97036763657238E-02
DEBUG_STATS_RL:                Vvel (DYNAMICS)  min= -1.15813549821490E-01
DEBUG_STATS_RL:                Vvel (DYNAMICS)  max=  1.48625700987064E-01
DEBUG_STATS_RL:                Vvel (DYNAMICS) mean= -9.23247383605579E-05
DEBUG_STATS_RL:                Vvel (DYNAMICS) S.D.=  1.65723438658184E-02
DEBUG_STATS_RL:                Wvel (DYNAMICS)  min= -2.62367434956314E-04
DEBUG_STATS_RL:                Wvel (DYNAMICS)  max=  2.36469399767211E-04
DEBUG_STATS_RL:                Wvel (DYNAMICS) mean= -2.06262427469881E-07
DEBUG_STATS_RL:                Wvel (DYNAMICS) S.D.=  1.97791909698463E-05
DEBUG_STATS_RL:               Theta (DYNAMICS)  min= -2.00477568872879E+00
DEBUG_STATS_RL:               Theta (DYNAMICS)  max=  3.02633507862248E+01
DEBUG_STATS_RL:               Theta (DYNAMICS) mean=  3.23969316380094E+00
DEBUG_STATS_RL:               Theta (DYNAMICS) S.D.=  5.85893467887882E+00
DEBUG_STATS_RL:                Salt (DYNAMICS)  min=  3.00000000000000E-02
DEBUG_STATS_RL:                Salt (DYNAMICS)  max=  3.74826383405609E+01
DEBUG_STATS_RL:                Salt (DYNAMICS) mean=  1.88748616432599E+01
DEBUG_STATS_RL:                Salt (DYNAMICS) S.D.=  1.73003742372271E+01
DEBUG_STATS_RL:                  Gu (DYNAMICS)  min= -1.91931464228081E-01
DEBUG_STATS_RL:                  Gu (DYNAMICS)  max=  1.97228510100503E-01
DEBUG_STATS_RL:                  Gu (DYNAMICS) mean=  5.78430238172262E-03
DEBUG_STATS_RL:                  Gu (DYNAMICS) S.D.=  3.04490401767595E-02
DEBUG_STATS_RL:                  Gv (DYNAMICS)  min= -1.13568580450983E-01
DEBUG_STATS_RL:                  Gv (DYNAMICS)  max=  1.65302405583327E-01
DEBUG_STATS_RL:                  Gv (DYNAMICS) mean=  2.36914530434108E-03
DEBUG_STATS_RL:                  Gv (DYNAMICS) S.D.=  1.68160762682044E-02
DEBUG_STATS_RL:               GuNm1 (DYNAMICS)  min= -8.65720934429520E-06
DEBUG_STATS_RL:               GuNm1 (DYNAMICS)  max=  7.79165700325269E-06
DEBUG_STATS_RL:               GuNm1 (DYNAMICS) mean= -2.07353707356999E-08
DEBUG_STATS_RL:               GuNm1 (DYNAMICS) S.D.=  1.21292459685398E-06
DEBUG_STATS_RL:               GvNm1 (DYNAMICS)  min= -1.10699100893521E-05
DEBUG_STATS_RL:               GvNm1 (DYNAMICS)  max=  1.66152746781421E-05
DEBUG_STATS_RL:               GvNm1 (DYNAMICS) mean=  7.62562934847584E-07
DEBUG_STATS_RL:               GvNm1 (DYNAMICS) S.D.=  2.66519735592755E-06
DEBUG_STATS_RL:               GtNm1 (DYNAMICS)  min= -3.85160227513553E-06
DEBUG_STATS_RL:               GtNm1 (DYNAMICS)  max=  3.71172034327803E-06
DEBUG_STATS_RL:               GtNm1 (DYNAMICS) mean=  7.48933528976796E-09
DEBUG_STATS_RL:               GtNm1 (DYNAMICS) S.D.=  2.26669477241591E-07
DEBUG_STATS_RL:               GsNm1 (DYNAMICS)  min= -7.95006523497209E-07
DEBUG_STATS_RL:               GsNm1 (DYNAMICS)  max=  6.22247182675175E-07
DEBUG_STATS_RL:               GsNm1 (DYNAMICS) mean= -3.79509162876822E-10
DEBUG_STATS_RL:               GsNm1 (DYNAMICS) S.D.=  2.16430820855065E-08
DEBUG_STATS_RL:    cg2d_b (SOLVE_FOR_PRESSURE)  min= -1.90800246714498E+04
DEBUG_STATS_RL:    cg2d_b (SOLVE_FOR_PRESSURE)  max=  2.18927906458392E+04
DEBUG_STATS_RL:    cg2d_b (SOLVE_FOR_PRESSURE) mean=  2.35134713487236E+00
DEBUG_STATS_RL:    cg2d_b (SOLVE_FOR_PRESSURE) S.D.=  4.04243457040494E+03
 cg2d: Sum(rhs),rhsMax =   2.48637494656844E-01  1.43797710593930E+00
(PID.TID 0000.0001)  cg2d: iter=     1 ; resid.=  4.56883804164371E-01
(PID.TID 0000.0001)  cg2d: iter=     2 ; resid.=  4.19501872361412E-01
(PID.TID 0000.0001)  cg2d: iter=     3 ; resid.=  3.89422076952475E-01
(PID.TID 0000.0001)  cg2d: iter=     4 ; resid.=  3.72516613537112E-01
(PID.TID 0000.0001)  cg2d: iter=     5 ; resid.=  3.56841805670586E-01
(PID.TID 0000.0001)  cg2d: iter=     6 ; resid.=  3.04150640148729E-01
(PID.TID 0000.0001)  cg2d: iter=     7 ; resid.=  2.39234419320010E-01
(PID.TID 0000.0001)  cg2d: iter=     8 ; resid.=  1.71066738233910E-01
(PID.TID 0000.0001)  cg2d: iter=     9 ; resid.=  1.25472192862015E-01
(PID.TID 0000.0001)  cg2d: iter=    10 ; resid.=  1.08294815556516E-01
(PID.TID 0000.0001)  cg2d: iter=    11 ; resid.=  9.39711163738239E-02
(PID.TID 0000.0001)  cg2d: iter=    12 ; resid.=  8.22026352593903E-02
(PID.TID 0000.0001)  cg2d: iter=    13 ; resid.=  6.62711717499987E-02
(PID.TID 0000.0001)  cg2d: iter=    14 ; resid.=  5.52405980772507E-02
(PID.TID 0000.0001)  cg2d: iter=    15 ; resid.=  4.32683755386801E-02
(PID.TID 0000.0001)  cg2d: iter=    16 ; resid.=  3.90719264104363E-02
(PID.TID 0000.0001)  cg2d: iter=    17 ; resid.=  3.43674213981471E-02
(PID.TID 0000.0001)  cg2d: iter=    18 ; resid.=  3.02954187365755E-02
(PID.TID 0000.0001)  cg2d: iter=    19 ; resid.=  2.25592225338857E-02
(PID.TID 0000.0001)  cg2d: iter=    20 ; resid.=  1.89153788867197E-02
(PID.TID 0000.0001)  cg2d: iter=    21 ; resid.=  1.61214493893339E-02
(PID.TID 0000.0001)  cg2d: iter=    22 ; resid.=  1.39733613914505E-02
(PID.TID 0000.0001)  cg2d: iter=    23 ; resid.=  1.21849482846112E-02
(PID.TID 0000.0001)  cg2d: iter=    24 ; resid.=  1.08202402840786E-02
(PID.TID 0000.0001)  cg2d: iter=    25 ; resid.=  7.80527672174233E-03
(PID.TID 0000.0001)  cg2d: iter=    26 ; resid.=  6.52565780796135E-03
(PID.TID 0000.0001)  cg2d: iter=    27 ; resid.=  5.19910515079243E-03
(PID.TID 0000.0001)  cg2d: iter=    28 ; resid.=  4.11504093534580E-03
(PID.TID 0000.0001)  cg2d: iter=    29 ; resid.=  3.18648939384091E-03
(PID.TID 0000.0001)  cg2d: iter=    30 ; resid.=  2.64867742233680E-03
(PID.TID 0000.0001)  cg2d: iter=    31 ; resid.=  2.25957751405379E-03
(PID.TID 0000.0001)  cg2d: iter=    32 ; resid.=  1.94611469462216E-03
(PID.TID 0000.0001)  cg2d: iter=    33 ; resid.=  1.65505588566643E-03
(PID.TID 0000.0001)  cg2d: iter=    34 ; resid.=  1.40268976092204E-03
(PID.TID 0000.0001)  cg2d: iter=    35 ; resid.=  1.17636232762980E-03
(PID.TID 0000.0001)  cg2d: iter=    36 ; resid.=  1.00029277866699E-03
(PID.TID 0000.0001)  cg2d: iter=    37 ; resid.=  8.93706718238641E-04
(PID.TID 0000.0001)  cg2d: iter=    38 ; resid.=  7.99430412342549E-04
(PID.TID 0000.0001)  cg2d: iter=    39 ; resid.=  6.58370991923423E-04
(PID.TID 0000.0001)  cg2d: iter=    40 ; resid.=  5.47038067750887E-04
(PID.TID 0000.0001)  cg2d: iter=    41 ; resid.=  4.68207485873547E-04
(PID.TID 0000.0001)  cg2d: iter=    42 ; resid.=  4.16260618134777E-04
(PID.TID 0000.0001)  cg2d: iter=    43 ; resid.=  3.33743705224859E-04
(PID.TID 0000.0001)  cg2d: iter=    44 ; resid.=  2.67264822520110E-04
(PID.TID 0000.0001)  cg2d: iter=    45 ; resid.=  2.05831207290533E-04
(PID.TID 0000.0001)  cg2d: iter=    46 ; resid.=  1.73719821541664E-04
(PID.TID 0000.0001)  cg2d: iter=    47 ; resid.=  1.46056269596633E-04
(PID.TID 0000.0001)  cg2d: iter=    48 ; resid.=  1.10370090991570E-04
(PID.TID 0000.0001)  cg2d: iter=    49 ; resid.=  8.95633984293187E-05
(PID.TID 0000.0001)  cg2d: iter=    50 ; resid.=  8.32187296203276E-05
(PID.TID 0000.0001)  cg2d: iter=    51 ; resid.=  7.55681973207079E-05
(PID.TID 0000.0001)  cg2d: iter=    52 ; resid.=  6.63581203416992E-05
(PID.TID 0000.0001)  cg2d: iter=    53 ; resid.=  5.86792426188659E-05
(PID.TID 0000.0001)  cg2d: iter=    54 ; resid.=  4.44779639015619E-05
(PID.TID 0000.0001)  cg2d: iter=    55 ; resid.=  3.71982970359383E-05
(PID.TID 0000.0001)  cg2d: iter=    56 ; resid.=  3.21569400584040E-05
(PID.TID 0000.0001)  cg2d: iter=    57 ; resid.=  2.48461974116422E-05
(PID.TID 0000.0001)  cg2d: iter=    58 ; resid.=  1.95792593200566E-05
(PID.TID 0000.0001)  cg2d: iter=    59 ; resid.=  1.51849623647580E-05
(PID.TID 0000.0001)  cg2d: iter=    60 ; resid.=  1.19426291876216E-05
(PID.TID 0000.0001)  cg2d: iter=    61 ; resid.=  1.00218324435916E-05
(PID.TID 0000.0001)  cg2d: iter=    62 ; resid.=  8.57905060823386E-06
(PID.TID 0000.0001)  cg2d: iter=    63 ; resid.=  6.85470594762525E-06
(PID.TID 0000.0001)  cg2d: iter=    64 ; resid.=  5.82787528883278E-06
(PID.TID 0000.0001)  cg2d: iter=    65 ; resid.=  4.32115689473580E-06
(PID.TID 0000.0001)  cg2d: iter=    66 ; resid.=  3.82007094820316E-06
(PID.TID 0000.0001)  cg2d: iter=    67 ; resid.=  3.40017421094349E-06
(PID.TID 0000.0001)  cg2d: iter=    68 ; resid.=  2.96127728902904E-06
(PID.TID 0000.0001)  cg2d: iter=    69 ; resid.=  2.44849599322890E-06
(PID.TID 0000.0001)  cg2d: iter=    70 ; resid.=  2.00185178485345E-06
(PID.TID 0000.0001)  cg2d: iter=    71 ; resid.=  1.63013234727478E-06
(PID.TID 0000.0001)  cg2d: iter=    72 ; resid.=  1.45821160770193E-06
(PID.TID 0000.0001)  cg2d: iter=    73 ; resid.=  1.24258356796503E-06
(PID.TID 0000.0001)  cg2d: iter=    74 ; resid.=  1.06038507994727E-06
(PID.TID 0000.0001)  cg2d: iter=    75 ; resid.=  8.63695190044581E-07
(PID.TID 0000.0001)  cg2d: iter=    76 ; resid.=  7.12072863539254E-07
(PID.TID 0000.0001)  cg2d: iter=    77 ; resid.=  5.28085835627482E-07
(PID.TID 0000.0001)  cg2d: iter=    78 ; resid.=  3.97432037632592E-07
(PID.TID 0000.0001)  cg2d: iter=    79 ; resid.=  2.98709381301555E-07
(PID.TID 0000.0001)  cg2d: iter=    80 ; resid.=  2.06823826353386E-07
(PID.TID 0000.0001)  cg2d: iter=    81 ; resid.=  1.58946435794554E-07
(PID.TID 0000.0001)  cg2d: iter=    82 ; resid.=  1.29056363714321E-07
(PID.TID 0000.0001)  cg2d: iter=    83 ; resid.=  9.62888241611512E-08
(PID.TID 0000.0001)  cg2d: iter=    84 ; resid.=  6.99126030159969E-08
(PID.TID 0000.0001)  cg2d: iter=    85 ; resid.=  5.25750823408588E-08
(PID.TID 0000.0001)  cg2d: iter=    86 ; resid.=  3.89962559029809E-08
(PID.TID 0000.0001)  cg2d: iter=    87 ; resid.=  2.88265311793698E-08
(PID.TID 0000.0001)  cg2d: iter=    88 ; resid.=  2.28156648778298E-08
(PID.TID 0000.0001)  cg2d: iter=    89 ; resid.=  1.98158412487071E-08
(PID.TID 0000.0001)  cg2d: iter=    90 ; resid.=  1.85644250802028E-08
(PID.TID 0000.0001)  cg2d: iter=    91 ; resid.=  1.55631878417390E-08
(PID.TID 0000.0001)  cg2d: iter=    92 ; resid.=  1.27661180020807E-08
(PID.TID 0000.0001)  cg2d: iter=    93 ; resid.=  1.10035112304008E-08
(PID.TID 0000.0001)  cg2d: iter=    94 ; resid.=  8.73153725133780E-09
(PID.TID 0000.0001)  cg2d: iter=    95 ; resid.=  7.07501081652378E-09
(PID.TID 0000.0001)  cg2d: iter=    96 ; resid.=  5.20052694342930E-09
(PID.TID 0000.0001)  cg2d: iter=    97 ; resid.=  4.01112155482301E-09
(PID.TID 0000.0001)  cg2d: iter=    98 ; resid.=  3.21384515981273E-09
(PID.TID 0000.0001)  cg2d: iter=    99 ; resid.=  2.61393583430111E-09
(PID.TID 0000.0001)  cg2d: iter=   100 ; resid.=  2.13562004133800E-09
(PID.TID 0000.0001)  cg2d: iter=   101 ; resid.=  1.75436368002571E-09
(PID.TID 0000.0001)  cg2d: iter=   102 ; resid.=  1.36513657900705E-09
(PID.TID 0000.0001)  cg2d: iter=   103 ; resid.=  9.93965440467709E-10
(PID.TID 0000.0001)  cg2d: iter=   104 ; resid.=  8.02911056935034E-10
(PID.TID 0000.0001)  cg2d: iter=   105 ; resid.=  6.10705187995933E-10
(PID.TID 0000.0001)  cg2d: iter=   106 ; resid.=  4.98896990077338E-10
(PID.TID 0000.0001)  cg2d: iter=   107 ; resid.=  3.92379063377474E-10
(PID.TID 0000.0001)  cg2d: iter=   108 ; resid.=  2.78070441707179E-10
(PID.TID 0000.0001)  cg2d: iter=   109 ; resid.=  2.04406455248176E-10
(PID.TID 0000.0001)  cg2d: iter=   110 ; resid.=  1.49095125182022E-10
(PID.TID 0000.0001)  cg2d: iter=   111 ; resid.=  1.12255154895582E-10
(PID.TID 0000.0001)  cg2d: iter=   112 ; resid.=  8.56578706234244E-11
(PID.TID 0000.0001)  cg2d: iter=   113 ; resid.=  6.14935652730968E-11
(PID.TID 0000.0001)  cg2d: iter=   114 ; resid.=  4.77564658824575E-11
(PID.TID 0000.0001)  cg2d: iter=   115 ; resid.=  3.65849372577298E-11
(PID.TID 0000.0001)  cg2d: iter=   116 ; resid.=  2.61050629933642E-11
(PID.TID 0000.0001)  cg2d: iter=   117 ; resid.=  2.05330220909343E-11
(PID.TID 0000.0001)  cg2d: iter=   118 ; resid.=  1.68822586570048E-11
(PID.TID 0000.0001)  cg2d: iter=   119 ; resid.=  1.31109263063377E-11
(PID.TID 0000.0001)  cg2d: iter=   120 ; resid.=  1.04505500661287E-11
(PID.TID 0000.0001)  cg2d: iter=   121 ; resid.=  8.53419637218167E-12
(PID.TID 0000.0001)  cg2d: iter=   122 ; resid.=  6.35271548056211E-12
(PID.TID 0000.0001)  cg2d: iter=   123 ; resid.=  4.78701538369517E-12
(PID.TID 0000.0001)  cg2d: iter=   124 ; resid.=  3.67601335857987E-12
(PID.TID 0000.0001)  cg2d: iter=   125 ; resid.=  2.77698669762262E-12
(PID.TID 0000.0001)  cg2d: iter=   126 ; resid.=  1.92902367902745E-12
(PID.TID 0000.0001)  cg2d: iter=   127 ; resid.=  1.26296478662981E-12
(PID.TID 0000.0001)  cg2d: iter=   128 ; resid.=  8.99248505827475E-13
(PID.TID 0000.0001)  cg2d: iter=   129 ; resid.=  6.52748841043367E-13
(PID.TID 0000.0001)  cg2d: iter=   130 ; resid.=  5.05292679647263E-13
(PID.TID 0000.0001)  cg2d: iter=   131 ; resid.=  3.77588550431851E-13
(PID.TID 0000.0001)  cg2d: iter=   132 ; resid.=  2.96908847271172E-13
(PID.TID 0000.0001)  cg2d: iter=   133 ; resid.=  2.43866444182068E-13
(PID.TID 0000.0001)  cg2d: iter=   134 ; resid.=  2.14583486535301E-13
(PID.TID 0000.0001)  cg2d: iter=   135 ; resid.=  1.76803357465797E-13
(PID.TID 0000.0001)  cg2d: iter=   136 ; resid.=  1.29026010166638E-13
(PID.TID 0000.0001)  cg2d: iter=   137 ; resid.=  9.79282346269354E-14
DEBUG_STATS_RL:    cg2d_x (SOLVE_FOR_PRESSURE)  min= -1.99643486234748E+01
DEBUG_STATS_RL:    cg2d_x (SOLVE_FOR_PRESSURE)  max=  1.24152599386737E+01
DEBUG_STATS_RL:    cg2d_x (SOLVE_FOR_PRESSURE) mean= -1.47195175848536E+00
DEBUG_STATS_RL:    cg2d_x (SOLVE_FOR_PRESSURE) S.D.=  6.77600956596701E+00
(PID.TID 0000.0001)      cg2d_init_res =   6.26522457012075E-01
(PID.TID 0000.0001)      cg2d_iters(min,last) =      -1     137
(PID.TID 0000.0001)      cg2d_last_res =   9.79282346269354E-14
(PID.TID 0000.0001) // =======================================================
(PID.TID 0000.0001) // Begin MONITOR dynamic field statistics
(PID.TID 0000.0001) // =======================================================
(PID.TID 0000.0001) %MON time_tsnumber                =                    33
(PID.TID 0000.0001) %MON time_secondsf                =   2.8512000000000E+06
(PID.TID 0000.0001) %MON dynstat_eta_max              =   1.2655718591920E+00
(PID.TID 0000.0001) %MON dynstat_eta_min              =  -2.0351017964806E+00
(PID.TID 0000.0001) %MON dynstat_eta_mean             =  -2.4533391778193E-03
(PID.TID 0000.0001) %MON dynstat_eta_sd               =   6.0308678450868E-01
(PID.TID 0000.0001) %MON dynstat_eta_del2             =   2.2734414169092E-03
(PID.TID 0000.0001) %MON dynstat_uvel_max             =   2.1415642774888E-01
(PID.TID 0000.0001) %MON dynstat_uvel_min             =  -1.9050528739987E-01
(PID.TID 0000.0001) %MON dynstat_uvel_mean            =   3.6112144977451E-03
(PID.TID 0000.0001) %MON dynstat_uvel_sd              =   2.3692889228440E-02
(PID.TID 0000.0001) %MON dynstat_uvel_del2            =   1.1153030451457E-04
(PID.TID 0000.0001) %MON dynstat_vvel_max             =   1.5741016970335E-01
(PID.TID 0000.0001) %MON dynstat_vvel_min             =  -1.1401121457235E-01
(PID.TID 0000.0001) %MON dynstat_vvel_mean            =  -2.8670489834556E-04
(PID.TID 0000.0001) %MON dynstat_vvel_sd              =   1.2576991882380E-02
(PID.TID 0000.0001) %MON dynstat_vvel_del2            =   1.0276858143218E-04
(PID.TID 0000.0001) %MON dynstat_wvel_max             =   2.2496316276392E-04
(PID.TID 0000.0001) %MON dynstat_wvel_min             =  -2.4117958464542E-04
(PID.TID 0000.0001) %MON dynstat_wvel_mean            =  -3.4686361630231E-23
(PID.TID 0000.0001) %MON dynstat_wvel_sd              =   2.1677012362241E-05
(PID.TID 0000.0001) %MON dynstat_wvel_del2            =   2.3537888614783E-07
(PID.TID 0000.0001) %MON dynstat_theta_max            =   3.0263350786225E+01
(PID.TID 0000.0001) %MON dynstat_theta_min            =  -2.0047756887288E+00
(PID.TID 0000.0001) %MON dynstat_theta_mean           =   3.6511902714662E+00
(PID.TID 0000.0001) %MON dynstat_theta_sd             =   4.4178355090295E+00
(PID.TID 0000.0001) %MON dynstat_theta_del2           =   4.8655689285099E-03
(PID.TID 0000.0001) %MON dynstat_salt_max             =   3.7482638340561E+01
(PID.TID 0000.0001) %MON dynstat_salt_min             =   2.9859017217501E+01
(PID.TID 0000.0001) %MON dynstat_salt_mean            =   3.4747972342967E+01
(PID.TID 0000.0001) %MON dynstat_salt_sd              =   2.9623855898721E-01
(PID.TID 0000.0001) %MON dynstat_salt_del2            =   9.9536204720360E-04
(PID.TID 0000.0001) %MON dynstat_sst_max              =   3.0263350786225E+01
(PID.TID 0000.0001) %MON dynstat_sst_min              =  -2.0047756887288E+00
(PID.TID 0000.0001) %MON dynstat_sst_mean             =   1.8788761985121E+01
(PID.TID 0000.0001) %MON dynstat_sst_sd               =   9.0395105608546E+00
(PID.TID 0000.0001) %MON dynstat_sst_del2             =   2.6862231817710E-02
(PID.TID 0000.0001) %MON dynstat_sss_max              =   3.7460587067332E+01
(PID.TID 0000.0001) %MON dynstat_sss_min              =   2.9859017217501E+01
(PID.TID 0000.0001) %MON dynstat_sss_mean             =   3.4875384721813E+01
(PID.TID 0000.0001) %MON dynstat_sss_sd               =   9.7576178100040E-01
(PID.TID 0000.0001) %MON dynstat_sss_del2             =   7.8887309370920E-03
(PID.TID 0000.0001) %MON forcing_qnet_max             =   3.8518914286296E+02
(PID.TID 0000.0001) %MON forcing_qnet_min             =  -1.7594771931966E+02
(PID.TID 0000.0001) %MON forcing_qnet_mean            =  -1.5069070155187E+01
(PID.TID 0000.0001) %MON forcing_qnet_sd              =   9.2094283864091E+01
(PID.TID 0000.0001) %MON forcing_qnet_del2            =   9.6837633456498E-01
(PID.TID 0000.0001) %MON forcing_qsw_max              =   0.0000000000000E+00
(PID.TID 0000.0001) %MON forcing_qsw_min              =   0.0000000000000E+00
(PID.TID 0000.0001) %MON forcing_qsw_mean             =   0.0000000000000E+00
(PID.TID 0000.0001) %MON forcing_qsw_sd               =   0.0000000000000E+00
(PID.TID 0000.0001) %MON forcing_qsw_del2             =   0.0000000000000E+00
(PID.TID 0000.0001) %MON forcing_empmr_max            =   7.6834713524931E-05
(PID.TID 0000.0001) %MON forcing_empmr_min            =  -7.7509908654368E-05
(PID.TID 0000.0001) %MON forcing_empmr_mean           =   9.3453781552993E-07
(PID.TID 0000.0001) %MON forcing_empmr_sd             =   2.8134918761187E-05
(PID.TID 0000.0001) %MON forcing_empmr_del2           =   3.5437715861302E-07
(PID.TID 0000.0001) %MON forcing_fu_max               =   2.8660247027874E-01
(PID.TID 0000.0001) %MON forcing_fu_min               =  -1.9415334165096E-01
(PID.TID 0000.0001) %MON forcing_fu_mean              =   1.6924838815539E-02
(PID.TID 0000.0001) %MON forcing_fu_sd                =   9.0257397064876E-02
(PID.TID 0000.0001) %MON forcing_fu_del2              =   6.7159620997325E-04
(PID.TID 0000.0001) %MON forcing_fv_max               =   1.8701238036156E-01
(PID.TID 0000.0001) %MON forcing_fv_min               =  -1.6128480434418E-01
(PID.TID 0000.0001) %MON forcing_fv_mean              =  -6.3683331536630E-03
(PID.TID 0000.0001) %MON forcing_fv_sd                =   4.4725198845894E-02
(PID.TID 0000.0001) %MON forcing_fv_del2              =   4.7006525107410E-04
(PID.TID 0000.0001) %MON trAdv_CFL_u_max              =   7.4292745698455E-02
(PID.TID 0000.0001) %MON trAdv_CFL_v_max              =   3.0251182801998E-02
(PID.TID 0000.0001) %MON trAdv_CFL_w_max              =   1.1637330132346E-01
(PID.TID 0000.0001) %MON advcfl_uvel_max              =   7.0786327307747E-02
(PID.TID 0000.0001) %MON advcfl_vvel_max              =   3.0582271417756E-02
(PID.TID 0000.0001) %MON advcfl_wvel_max              =   9.6920540062158E-02
(PID.TID 0000.0001) %MON advcfl_W_hf_max              =   1.0967324270192E-01
(PID.TID 0000.0001) %MON pe_b_mean                    =   4.6542318162775E-04
(PID.TID 0000.0001) %MON ke_max                       =   3.1255439602084E-02
(PID.TID 0000.0001) %MON ke_mean                      =   3.3200699186915E-04
(PID.TID 0000.0001) %MON ke_vol                       =   1.3226782436723E+18
(PID.TID 0000.0001) %MON vort_r_min                   =  -4.0041887855111E-07
(PID.TID 0000.0001) %MON vort_r_max                   =   7.1757491509810E-07
(PID.TID 0000.0001) %MON vort_a_mean                  =  -2.5274808198442E-05
(PID.TID 0000.0001) %MON vort_a_sd                    =   7.3604775239829E-05
(PID.TID 0000.0001) %MON vort_p_mean                  =  -3.1845656808701E-05
(PID.TID 0000.0001) %MON vort_p_sd                    =   1.3162822750673E-04
(PID.TID 0000.0001) %MON surfExpan_theta_mean         =   7.8545049767173E-07
(PID.TID 0000.0001) %MON surfExpan_salt_mean          =  -4.1753710934106E-07
(PID.TID 0000.0001) // =======================================================
(PID.TID 0000.0001) // End MONITOR dynamic field statistics
(PID.TID 0000.0001) // =======================================================
 EXTERNAL_FIELDS_LOAD,        33 : iP,iLd,i0,i1=    1    2    1    2 ; Wght=  0.4000000000  0.6000000000
 EXTERNAL_FIELDS_LOAD: (fu0,1),fu,fv= -3.5633E-02 -1.4435E-02 -2.2914E-02 -3.3484E-02
 EXTERNAL_FIELDS_LOAD: SST,SSS,Q,E-P=  6.4256E-02  3.4538E+01  2.5060E+02  9.6810E-06
DEBUG_STATS_RL:          Uvel (THERMODYNAMICS)  min= -1.90505287399871E-01
DEBUG_STATS_RL:          Uvel (THERMODYNAMICS)  max=  2.14156427748884E-01
DEBUG_STATS_RL:          Uvel (THERMODYNAMICS) mean=  5.63514663389684E-03
DEBUG_STATS_RL:          Uvel (THERMODYNAMICS) S.D.=  3.00172733987860E-02
DEBUG_STATS_RL:          Vvel (THERMODYNAMICS)  min= -1.14011214572345E-01
DEBUG_STATS_RL:          Vvel (THERMODYNAMICS)  max=  1.57410169703349E-01
DEBUG_STATS_RL:          Vvel (THERMODYNAMICS) mean= -2.27679314534952E-04
DEBUG_STATS_RL:          Vvel (THERMODYNAMICS) S.D.=  1.66457635621696E-02
DEBUG_STATS_RL:          Wvel (THERMODYNAMICS)  min= -2.41179584645417E-04
DEBUG_STATS_RL:          Wvel (THERMODYNAMICS)  max=  2.24963162763924E-04
DEBUG_STATS_RL:          Wvel (THERMODYNAMICS) mean= -2.58470559736021E-07
DEBUG_STATS_RL:          Wvel (THERMODYNAMICS) S.D.=  1.96512884190306E-05
DEBUG_STATS_RL:         Theta (THERMODYNAMICS)  min= -2.00467417883461E+00
DEBUG_STATS_RL:         Theta (THERMODYNAMICS)  max=  3.02704174664308E+01
DEBUG_STATS_RL:         Theta (THERMODYNAMICS) mean=  3.24011522259842E+00
DEBUG_STATS_RL:         Theta (THERMODYNAMICS) S.D.=  5.85929002624848E+00
DEBUG_STATS_RL:          Salt (THERMODYNAMICS)  min=  3.00000000000000E-02
DEBUG_STATS_RL:          Salt (THERMODYNAMICS)  max=  3.74835978805707E+01
DEBUG_STATS_RL:          Salt (THERMODYNAMICS) mean=  1.88748523655082E+01
DEBUG_STATS_RL:          Salt (THERMODYNAMICS) S.D.=  1.73003669739787E+01
DEBUG_STATS_RL:         GtNm1 (THERMODYNAMICS)  min= -3.91205277012022E-06
DEBUG_STATS_RL:         GtNm1 (THERMODYNAMICS)  max=  3.80157723870970E-06
DEBUG_STATS_RL:         GtNm1 (THERMODYNAMICS) mean=  8.61198013649422E-09
DEBUG_STATS_RL:         GtNm1 (THERMODYNAMICS) S.D.=  2.24463839337445E-07
DEBUG_STATS_RL:         GsNm1 (THERMODYNAMICS)  min= -8.14443390300318E-07
DEBUG_STATS_RL:         GsNm1 (THERMODYNAMICS)  max=  6.36343301691216E-07
DEBUG_STATS_RL:         GsNm1 (THERMODYNAMICS) mean= -3.07210437692635E-10
DEBUG_STATS_RL:         GsNm1 (THERMODYNAMICS) S.D.=  2.12878764626848E-08
DEBUG_STATS_RL:                EtaN (DYNAMICS)  min= -2.03510179648062E+00
DEBUG_STATS_RL:                EtaN (DYNAMICS)  max=  1.26557185919202E+00
DEBUG_STATS_RL:                EtaN (DYNAMICS) mean= -1.50046050814002E-01
DEBUG_STATS_RL:                EtaN (DYNAMICS) S.D.=  6.90724726398265E-01
DEBUG_STATS_RL:                Uvel (DYNAMICS)  min= -1.90505287399871E-01
DEBUG_STATS_RL:                Uvel (DYNAMICS)  max=  2.14156427748884E-01
DEBUG_STATS_RL:                Uvel (DYNAMICS) mean=  5.63514663389684E-03
DEBUG_STATS_RL:                Uvel (DYNAMICS) S.D.=  3.00172733987860E-02
DEBUG_STATS_RL:                Vvel (DYNAMICS)  min= -1.14011214572345E-01
DEBUG_STATS_RL:                Vvel (DYNAMICS)  max=  1.57410169703349E-01
DEBUG_STATS_RL:                Vvel (DYNAMICS) mean= -2.27679314534952E-04
DEBUG_STATS_RL:                Vvel (DYNAMICS) S.D.=  1.66457635621696E-02
DEBUG_STATS_RL:                Wvel (DYNAMICS)  min= -2.41179584645417E-04
DEBUG_STATS_RL:                Wvel (DYNAMICS)  max=  2.24963162763924E-04
DEBUG_STATS_RL:                Wvel (DYNAMICS) mean= -2.58470559736021E-07
DEBUG_STATS_RL:                Wvel (DYNAMICS) S.D.=  1.96512884190306E-05
DEBUG_STATS_RL:               Theta (DYNAMICS)  min= -2.00467417883461E+00
DEBUG_STATS_RL:               Theta (DYNAMICS)  max=  3.02704174664308E+01
DEBUG_STATS_RL:               Theta (DYNAMICS) mean=  3.24011522259842E+00
DEBUG_STATS_RL:               Theta (DYNAMICS) S.D.=  5.85929002624848E+00
DEBUG_STATS_RL:                Salt (DYNAMICS)  min=  3.00000000000000E-02
DEBUG_STATS_RL:                Salt (DYNAMICS)  max=  3.74835978805707E+01
DEBUG_STATS_RL:                Salt (DYNAMICS) mean=  1.88748523655082E+01
DEBUG_STATS_RL:                Salt (DYNAMICS) S.D.=  1.73003669739787E+01
DEBUG_STATS_RL:                  Gu (DYNAMICS)  min= -1.91164476187713E-01
DEBUG_STATS_RL:                  Gu (DYNAMICS)  max=  1.82004072633478E-01
DEBUG_STATS_RL:                  Gu (DYNAMICS) mean=  5.63985653601713E-03
DEBUG_STATS_RL:                  Gu (DYNAMICS) S.D.=  3.06790795536293E-02
DEBUG_STATS_RL:                  Gv (DYNAMICS)  min= -1.07538976892095E-01
DEBUG_STATS_RL:                  Gv (DYNAMICS)  max=  1.81674619303739E-01
DEBUG_STATS_RL:                  Gv (DYNAMICS) mean=  2.24810344805508E-03
DEBUG_STATS_RL:                  Gv (DYNAMICS) S.D.=  1.68185269511437E-02
DEBUG_STATS_RL:               GuNm1 (DYNAMICS)  min= -8.87124259325198E-06
DEBUG_STATS_RL:               GuNm1 (DYNAMICS)  max=  7.89652249896914E-06
DEBUG_STATS_RL:               GuNm1 (DYNAMICS) mean= -2.18813861356063E-08
DEBUG_STATS_RL:               GuNm1 (DYNAMICS) S.D.=  1.20939151107398E-06
DEBUG_STATS_RL:               GvNm1 (DYNAMICS)  min= -1.10551685080709E-05
DEBUG_STATS_RL:               GvNm1 (DYNAMICS)  max=  1.65671122651310E-05
DEBUG_STATS_RL:               GvNm1 (DYNAMICS) mean=  7.59657995902114E-07
DEBUG_STATS_RL:               GvNm1 (DYNAMICS) S.D.=  2.66003437566868E-06
DEBUG_STATS_RL:               GtNm1 (DYNAMICS)  min= -3.91205277012022E-06
DEBUG_STATS_RL:               GtNm1 (DYNAMICS)  max=  3.80157723870970E-06
DEBUG_STATS_RL:               GtNm1 (DYNAMICS) mean=  8.61198013649422E-09
DEBUG_STATS_RL:               GtNm1 (DYNAMICS) S.D.=  2.24463839337445E-07
DEBUG_STATS_RL:               GsNm1 (DYNAMICS)  min= -8.14443390300318E-07
DEBUG_STATS_RL:               GsNm1 (DYNAMICS)  max=  6.36343301691216E-07
DEBUG_STATS_RL:               GsNm1 (DYNAMICS) mean= -3.07210437692635E-10
DEBUG_STATS_RL:               GsNm1 (DYNAMICS) S.D.=  2.12878764626848E-08
DEBUG_STATS_RL:    cg2d_b (SOLVE_FOR_PRESSURE)  min= -1.89130655902809E+04
DEBUG_STATS_RL:    cg2d_b (SOLVE_FOR_PRESSURE)  max=  2.13312373992833E+04
DEBUG_STATS_RL:    cg2d_b (SOLVE_FOR_PRESSURE) mean=  2.42617208444627E+00
DEBUG_STATS_RL:    cg2d_b (SOLVE_FOR_PRESSURE) S.D.=  4.02412375991050E+03
 cg2d: Sum(rhs),rhsMax =   2.63303448851200E-01  1.40109278518840E+00
(PID.TID 0000.0001)  cg2d: iter=     1 ; resid.=  4.68192522314713E-01
(PID.TID 0000.0001)  cg2d: iter=     2 ; resid.=  4.25888920431185E-01
(PID.TID 0000.0001)  cg2d: iter=     3 ; resid.=  4.01482360744514E-01
(PID.TID 0000.0001)  cg2d: iter=     4 ; resid.=  3.89357828779651E-01
(PID.TID 0000.0001)  cg2d: iter=     5 ; resid.=  3.74060965521373E-01
(PID.TID 0000.0001)  cg2d: iter=     6 ; resid.=  3.16734418282440E-01
(PID.TID 0000.0001)  cg2d: iter=     7 ; resid.=  2.49621096323988E-01
(PID.TID 0000.0001)  cg2d: iter=     8 ; resid.=  1.79295948568345E-01
(PID.TID 0000.0001)  cg2d: iter=     9 ; resid.=  1.31095257648630E-01
(PID.TID 0000.0001)  cg2d: iter=    10 ; resid.=  1.12255815440055E-01
(PID.TID 0000.0001)  cg2d: iter=    11 ; resid.=  9.78353247321584E-02
(PID.TID 0000.0001)  cg2d: iter=    12 ; resid.=  8.57077478962699E-02
(PID.TID 0000.0001)  cg2d: iter=    13 ; resid.=  6.93166561849414E-02
(PID.TID 0000.0001)  cg2d: iter=    14 ; resid.=  5.89042935107184E-02
(PID.TID 0000.0001)  cg2d: iter=    15 ; resid.=  4.58583443973989E-02
(PID.TID 0000.0001)  cg2d: iter=    16 ; resid.=  4.14958691301709E-02
(PID.TID 0000.0001)  cg2d: iter=    17 ; resid.=  3.64767607343216E-02
(PID.TID 0000.0001)  cg2d: iter=    18 ; resid.=  3.21378774038148E-02
(PID.TID 0000.0001)  cg2d: iter=    19 ; resid.=  2.37518433419410E-02
(PID.TID 0000.0001)  cg2d: iter=    20 ; resid.=  1.97280389708802E-02
(PID.TID 0000.0001)  cg2d: iter=    21 ; resid.=  1.65544075786645E-02
(PID.TID 0000.0001)  cg2d: iter=    22 ; resid.=  1.42643703135876E-02
(PID.TID 0000.0001)  cg2d: iter=    23 ; resid.=  1.25814435354408E-02
(PID.TID 0000.0001)  cg2d: iter=    24 ; resid.=  1.14034509560629E-02
(PID.TID 0000.0001)  cg2d: iter=    25 ; resid.=  8.29363046565134E-03
(PID.TID 0000.0001)  cg2d: iter=    26 ; resid.=  6.84472077032304E-03
(PID.TID 0000.0001)  cg2d: iter=    27 ; resid.=  5.32752740041820E-03
(PID.TID 0000.0001)  cg2d: iter=    28 ; resid.=  4.14505788452955E-03
(PID.TID 0000.0001)  cg2d: iter=    29 ; resid.=  3.16440171034359E-03
(PID.TID 0000.0001)  cg2d: iter=    30 ; resid.=  2.65489107930895E-03
(PID.TID 0000.0001)  cg2d: iter=    31 ; resid.=  2.28763047256550E-03
(PID.TID 0000.0001)  cg2d: iter=    32 ; resid.=  1.99739867024015E-03
(PID.TID 0000.0001)  cg2d: iter=    33 ; resid.=  1.75428725102852E-03
(PID.TID 0000.0001)  cg2d: iter=    34 ; resid.=  1.49521854123126E-03
(PID.TID 0000.0001)  cg2d: iter=    35 ; resid.=  1.25993067315071E-03
(PID.TID 0000.0001)  cg2d: iter=    36 ; resid.=  1.06315927783598E-03
(PID.TID 0000.0001)  cg2d: iter=    37 ; resid.=  9.30159050503338E-04
(PID.TID 0000.0001)  cg2d: iter=    38 ; resid.=  8.26130803518327E-04
(PID.TID 0000.0001)  cg2d: iter=    39 ; resid.=  6.83574641025174E-04
(PID.TID 0000.0001)  cg2d: iter=    40 ; resid.=  5.63530880832980E-04
(PID.TID 0000.0001)  cg2d: iter=    41 ; resid.=  4.77021354118145E-04
(PID.TID 0000.0001)  cg2d: iter=    42 ; resid.=  4.24423680063571E-04
(PID.TID 0000.0001)  cg2d: iter=    43 ; resid.=  3.44984225194686E-04
(PID.TID 0000.0001)  cg2d: iter=    44 ; resid.=  2.77627978833628E-04
(PID.TID 0000.0001)  cg2d: iter=    45 ; resid.=  2.10559166808748E-04
(PID.TID 0000.0001)  cg2d: iter=    46 ; resid.=  1.77649937891077E-04
(PID.TID 0000.0001)  cg2d: iter=    47 ; resid.=  1.48855219182030E-04
(PID.TID 0000.0001)  cg2d: iter=    48 ; resid.=  1.12044897762757E-04
(PID.TID 0000.0001)  cg2d: iter=    49 ; resid.=  9.27819315823946E-05
(PID.TID 0000.0001)  cg2d: iter=    50 ; resid.=  8.80224962359563E-05
(PID.TID 0000.0001)  cg2d: iter=    51 ; resid.=  8.05224055848936E-05
(PID.TID 0000.0001)  cg2d: iter=    52 ; resid.=  7.02526961478590E-05
(PID.TID 0000.0001)  cg2d: iter=    53 ; resid.=  6.16311387368004E-05
(PID.TID 0000.0001)  cg2d: iter=    54 ; resid.=  4.58315874739198E-05
(PID.TID 0000.0001)  cg2d: iter=    55 ; resid.=  3.67235036891481E-05
(PID.TID 0000.0001)  cg2d: iter=    56 ; resid.=  3.08797125275067E-05
(PID.TID 0000.0001)  cg2d: iter=    57 ; resid.=  2.40339903886100E-05
(PID.TID 0000.0001)  cg2d: iter=    58 ; resid.=  1.91821271806286E-05
(PID.TID 0000.0001)  cg2d: iter=    59 ; resid.=  1.52676581669259E-05
(PID.TID 0000.0001)  cg2d: iter=    60 ; resid.=  1.21317327236774E-05
(PID.TID 0000.0001)  cg2d: iter=    61 ; resid.=  1.04228143518234E-05
(PID.TID 0000.0001)  cg2d: iter=    62 ; resid.=  9.07013063511144E-06
(PID.TID 0000.0001)  cg2d: iter=    63 ; resid.=  7.37764871425819E-06
(PID.TID 0000.0001)  cg2d: iter=    64 ; resid.=  6.18799762168986E-06
(PID.TID 0000.0001)  cg2d: iter=    65 ; resid.=  4.57590202256651E-06
(PID.TID 0000.0001)  cg2d: iter=    66 ; resid.=  3.96864448291574E-06
(PID.TID 0000.0001)  cg2d: iter=    67 ; resid.=  3.43334523742167E-06
(PID.TID 0000.0001)  cg2d: iter=    68 ; resid.=  3.01984956454913E-06
(PID.TID 0000.0001)  cg2d: iter=    69 ; resid.=  2.51169090089690E-06
(PID.TID 0000.0001)  cg2d: iter=    70 ; resid.=  2.04899765191562E-06
(PID.TID 0000.0001)  cg2d: iter=    71 ; resid.=  1.69705147651740E-06
(PID.TID 0000.0001)  cg2d: iter=    72 ; resid.=  1.53200316037089E-06
(PID.TID 0000.0001)  cg2d: iter=    73 ; resid.=  1.32613449194065E-06
(PID.TID 0000.0001)  cg2d: iter=    74 ; resid.=  1.12075127719010E-06
(PID.TID 0000.0001)  cg2d: iter=    75 ; resid.=  8.96001956621881E-07
(PID.TID 0000.0001)  cg2d: iter=    76 ; resid.=  7.17021316739643E-07
(PID.TID 0000.0001)  cg2d: iter=    77 ; resid.=  5.23491924654499E-07
(PID.TID 0000.0001)  cg2d: iter=    78 ; resid.=  3.86130959392769E-07
(PID.TID 0000.0001)  cg2d: iter=    79 ; resid.=  2.96369759677577E-07
(PID.TID 0000.0001)  cg2d: iter=    80 ; resid.=  2.03758327067738E-07
(PID.TID 0000.0001)  cg2d: iter=    81 ; resid.=  1.54333009715215E-07
(PID.TID 0000.0001)  cg2d: iter=    82 ; resid.=  1.26218057929074E-07
(PID.TID 0000.0001)  cg2d: iter=    83 ; resid.=  9.61120284512752E-08
(PID.TID 0000.0001)  cg2d: iter=    84 ; resid.=  7.12751602259632E-08
(PID.TID 0000.0001)  cg2d: iter=    85 ; resid.=  5.44309768472454E-08
(PID.TID 0000.0001)  cg2d: iter=    86 ; resid.=  4.16790434312118E-08
(PID.TID 0000.0001)  cg2d: iter=    87 ; resid.=  3.27052898398789E-08
(PID.TID 0000.0001)  cg2d: iter=    88 ; resid.=  2.66204338139615E-08
(PID.TID 0000.0001)  cg2d: iter=    89 ; resid.=  2.30237285571494E-08
(PID.TID 0000.0001)  cg2d: iter=    90 ; resid.=  2.07782598591199E-08
(PID.TID 0000.0001)  cg2d: iter=    91 ; resid.=  1.64605739455463E-08
(PID.TID 0000.0001)  cg2d: iter=    92 ; resid.=  1.28739499026935E-08
(PID.TID 0000.0001)  cg2d: iter=    93 ; resid.=  1.07797438297363E-08
(PID.TID 0000.0001)  cg2d: iter=    94 ; resid.=  8.51179285358022E-09
(PID.TID 0000.0001)  cg2d: iter=    95 ; resid.=  7.00664012065816E-09
(PID.TID 0000.0001)  cg2d: iter=    96 ; resid.=  5.19165964108463E-09
(PID.TID 0000.0001)  cg2d: iter=    97 ; resid.=  4.06893786161011E-09
(PID.TID 0000.0001)  cg2d: iter=    98 ; resid.=  3.33521235516938E-09
(PID.TID 0000.0001)  cg2d: iter=    99 ; resid.=  2.79807467381924E-09
(PID.TID 0000.0001)  cg2d: iter=   100 ; resid.=  2.37387099008472E-09
(PID.TID 0000.0001)  cg2d: iter=   101 ; resid.=  2.05622929019389E-09
(PID.TID 0000.0001)  cg2d: iter=   102 ; resid.=  1.64840886452225E-09
(PID.TID 0000.0001)  cg2d: iter=   103 ; resid.=  1.24083478091166E-09
(PID.TID 0000.0001)  cg2d: iter=   104 ; resid.=  1.00391817431713E-09
(PID.TID 0000.0001)  cg2d: iter=   105 ; resid.=  7.61484105288266E-10
(PID.TID 0000.0001)  cg2d: iter=   106 ; resid.=  6.09309441102631E-10
(PID.TID 0000.0001)  cg2d: iter=   107 ; resid.=  4.48232417451595E-10
(PID.TID 0000.0001)  cg2d: iter=   108 ; resid.=  3.10115830518258E-10
(PID.TID 0000.0001)  cg2d: iter=   109 ; resid.=  2.21550522947159E-10
(PID.TID 0000.0001)  cg2d: iter=   110 ; resid.=  1.61073976583096E-10
(PID.TID 0000.0001)  cg2d: iter=   111 ; resid.=  1.24941113041823E-10
(PID.TID 0000.0001)  cg2d: iter=   112 ; resid.=  9.72264637192949E-11
(PID.TID 0000.0001)  cg2d: iter=   113 ; resid.=  7.24741759046246E-11
(PID.TID 0000.0001)  cg2d: iter=   114 ; resid.=  5.83191148307052E-11
(PID.TID 0000.0001)  cg2d: iter=   115 ; resid.=  4.54539462475317E-11
(PID.TID 0000.0001)  cg2d: iter=   116 ; resid.=  3.35606785756355E-11
(PID.TID 0000.0001)  cg2d: iter=   117 ; resid.=  2.76359635992956E-11
(PID.TID 0000.0001)  cg2d: iter=   118 ; resid.=  2.25772595388693E-11
(PID.TID 0000.0001)  cg2d: iter=   119 ; resid.=  1.70217687236685E-11
(PID.TID 0000.0001)  cg2d: iter=   120 ; resid.=  1.30039788339722E-11
(PID.TID 0000.0001)  cg2d: iter=   121 ; resid.=  1.02480194557724E-11
(PID.TID 0000.0001)  cg2d: iter=   122 ; resid.=  7.29756842092560E-12
(PID.TID 0000.0001)  cg2d: iter=   123 ; resid.=  5.30443397091174E-12
(PID.TID 0000.0001)  cg2d: iter=   124 ; resid.=  3.90163607378516E-12
(PID.TID 0000.0001)  cg2d: iter=   125 ; resid.=  2.94341838289027E-12
(PID.TID 0000.0001)  cg2d: iter=   126 ; resid.=  2.08909757665297E-12
(PID.TID 0000.0001)  cg2d: iter=   127 ; resid.=  1.40463603930235E-12
(PID.TID 0000.0001)  cg2d: iter=   128 ; resid.=  1.03202395859018E-12
(PID.TID 0000.0001)  cg2d: iter=   129 ; resid.=  7.63839355371045E-13
(PID.TID 0000.0001)  cg2d: iter=   130 ; resid.=  6.01889264739724E-13
(PID.TID 0000.0001)  cg2d: iter=   131 ; resid.=  4.56064949033600E-13
(PID.TID 0000.0001)  cg2d: iter=   132 ; resid.=  3.57345579818321E-13
(PID.TID 0000.0001)  cg2d: iter=   133 ; resid.=  2.89281223977045E-13
(PID.TID 0000.0001)  cg2d: iter=   134 ; resid.=  2.44974197986042E-13
(PID.TID 0000.0001)  cg2d: iter=   135 ; resid.=  1.94023496394097E-13
(PID.TID 0000.0001)  cg2d: iter=   136 ; resid.=  1.34512281704581E-13
(PID.TID 0000.0001)  cg2d: iter=   137 ; resid.=  1.01486304677800E-13
(PID.TID 0000.0001)  cg2d: iter=   138 ; resid.=  7.57686467395795E-14
DEBUG_STATS_RL:    cg2d_x (SOLVE_FOR_PRESSURE)  min= -1.98567202225090E+01
DEBUG_STATS_RL:    cg2d_x (SOLVE_FOR_PRESSURE)  max=  1.21093274945292E+01
DEBUG_STATS_RL:    cg2d_x (SOLVE_FOR_PRESSURE) mean= -1.51609878169095E+00
DEBUG_STATS_RL:    cg2d_x (SOLVE_FOR_PRESSURE) S.D.=  6.88201900013951E+00
(PID.TID 0000.0001)      cg2d_init_res =   6.36907106731715E-01
(PID.TID 0000.0001)      cg2d_iters(min,last) =      -1     138
(PID.TID 0000.0001)      cg2d_last_res =   7.57686467395795E-14
(PID.TID 0000.0001) // =======================================================
(PID.TID 0000.0001) // Begin MONITOR dynamic field statistics
(PID.TID 0000.0001) // =======================================================
(PID.TID 0000.0001) %MON time_tsnumber                =                    34
(PID.TID 0000.0001) %MON time_secondsf                =   2.9376000000000E+06
(PID.TID 0000.0001) %MON dynstat_eta_max              =   1.2343860850692E+00
(PID.TID 0000.0001) %MON dynstat_eta_min              =  -2.0241305017848E+00
(PID.TID 0000.0001) %MON dynstat_eta_mean             =  -2.5314097347135E-03
(PID.TID 0000.0001) %MON dynstat_eta_sd               =   6.2386929343587E-01
(PID.TID 0000.0001) %MON dynstat_eta_del2             =   2.2844156525134E-03
(PID.TID 0000.0001) %MON dynstat_uvel_max             =   1.9811394484484E-01
(PID.TID 0000.0001) %MON dynstat_uvel_min             =  -1.8969518710875E-01
(PID.TID 0000.0001) %MON dynstat_uvel_mean            =   3.6019885043512E-03
(PID.TID 0000.0001) %MON dynstat_uvel_sd              =   2.3701145427168E-02
(PID.TID 0000.0001) %MON dynstat_uvel_del2            =   1.1120136694103E-04
(PID.TID 0000.0001) %MON dynstat_vvel_max             =   1.7475880217056E-01
(PID.TID 0000.0001) %MON dynstat_vvel_min             =  -1.1141180131812E-01
(PID.TID 0000.0001) %MON dynstat_vvel_mean            =  -3.0176418798497E-04
(PID.TID 0000.0001) %MON dynstat_vvel_sd              =   1.2615190517828E-02
(PID.TID 0000.0001) %MON dynstat_vvel_del2            =   1.0373071667020E-04
(PID.TID 0000.0001) %MON dynstat_wvel_max             =   2.1058639782923E-04
(PID.TID 0000.0001) %MON dynstat_wvel_min             =  -2.1935004705077E-04
(PID.TID 0000.0001) %MON dynstat_wvel_mean            =  -3.5774718621043E-22
(PID.TID 0000.0001) %MON dynstat_wvel_sd              =   2.1565097950188E-05
(PID.TID 0000.0001) %MON dynstat_wvel_del2            =   2.3194697345052E-07
(PID.TID 0000.0001) %MON dynstat_theta_max            =   3.0270417466431E+01
(PID.TID 0000.0001) %MON dynstat_theta_min            =  -2.0046741788346E+00
(PID.TID 0000.0001) %MON dynstat_theta_mean           =   3.6512543938667E+00
(PID.TID 0000.0001) %MON dynstat_theta_sd             =   4.4179584798532E+00
(PID.TID 0000.0001) %MON dynstat_theta_del2           =   4.8542788321973E-03
(PID.TID 0000.0001) %MON dynstat_salt_max             =   3.7483597880571E+01
(PID.TID 0000.0001) %MON dynstat_salt_min             =   2.9855109793539E+01
(PID.TID 0000.0001) %MON dynstat_salt_mean            =   3.4747982892103E+01
(PID.TID 0000.0001) %MON dynstat_salt_sd              =   2.9626721390003E-01
(PID.TID 0000.0001) %MON dynstat_salt_del2            =   9.9412025273571E-04
(PID.TID 0000.0001) %MON dynstat_sst_max              =   3.0270417466431E+01
(PID.TID 0000.0001) %MON dynstat_sst_min              =  -2.0046741788346E+00
(PID.TID 0000.0001) %MON dynstat_sst_mean             =   1.8798260691339E+01
(PID.TID 0000.0001) %MON dynstat_sst_sd               =   9.0352733541971E+00
(PID.TID 0000.0001) %MON dynstat_sst_del2             =   2.6893460682011E-02
(PID.TID 0000.0001) %MON dynstat_sss_max              =   3.7460721651891E+01
(PID.TID 0000.0001) %MON dynstat_sss_min              =   2.9855109793539E+01
(PID.TID 0000.0001) %MON dynstat_sss_mean             =   3.4875127087959E+01
(PID.TID 0000.0001) %MON dynstat_sss_sd               =   9.7597587882986E-01
(PID.TID 0000.0001) %MON dynstat_sss_del2             =   7.8877900675118E-03
(PID.TID 0000.0001) %MON forcing_qnet_max             =   3.8187005615234E+02
(PID.TID 0000.0001) %MON forcing_qnet_min             =  -1.7570820007324E+02
(PID.TID 0000.0001) %MON forcing_qnet_mean            =  -1.4984160987784E+01
(PID.TID 0000.0001) %MON forcing_qnet_sd              =   9.1092630456928E+01
(PID.TID 0000.0001) %MON forcing_qnet_del2            =   9.6613871099960E-01
(PID.TID 0000.0001) %MON forcing_qsw_max              =   0.0000000000000E+00
(PID.TID 0000.0001) %MON forcing_qsw_min              =   0.0000000000000E+00
(PID.TID 0000.0001) %MON forcing_qsw_mean             =   0.0000000000000E+00
(PID.TID 0000.0001) %MON forcing_qsw_sd               =   0.0000000000000E+00
(PID.TID 0000.0001) %MON forcing_qsw_del2             =   0.0000000000000E+00
(PID.TID 0000.0001) %MON forcing_empmr_max            =   7.6520623792931E-05
(PID.TID 0000.0001) %MON forcing_empmr_min            =  -7.7589552915924E-05
(PID.TID 0000.0001) %MON forcing_empmr_mean           =   9.3522021278988E-07
(PID.TID 0000.0001) %MON forcing_empmr_sd             =   2.8112018032576E-05
(PID.TID 0000.0001) %MON forcing_empmr_del2           =   3.5413910341625E-07
(PID.TID 0000.0001) %MON forcing_fu_max               =   2.8798962831497E-01
(PID.TID 0000.0001) %MON forcing_fu_min               =  -1.9581326544285E-01
(PID.TID 0000.0001) %MON forcing_fu_mean              =   1.6979139031008E-02
(PID.TID 0000.0001) %MON forcing_fu_sd                =   9.0367493904055E-02
(PID.TID 0000.0001) %MON forcing_fu_del2              =   6.7397847691000E-04
(PID.TID 0000.0001) %MON forcing_fv_max               =   1.8591085970402E-01
(PID.TID 0000.0001) %MON forcing_fv_min               =  -1.6161646842957E-01
(PID.TID 0000.0001) %MON forcing_fv_mean              =  -6.4335940603783E-03
(PID.TID 0000.0001) %MON forcing_fv_sd                =   4.4654100071951E-02
(PID.TID 0000.0001) %MON forcing_fv_del2              =   4.7289247100782E-04
(PID.TID 0000.0001) %MON trAdv_CFL_u_max              =   7.0800704517095E-02
(PID.TID 0000.0001) %MON trAdv_CFL_v_max              =   3.2039168104607E-02
(PID.TID 0000.0001) %MON trAdv_CFL_w_max              =   1.0967324270192E-01
(PID.TID 0000.0001) %MON advcfl_uvel_max              =   6.5483715298331E-02
(PID.TID 0000.0001) %MON advcfl_vvel_max              =   3.3952832467521E-02
(PID.TID 0000.0001) %MON advcfl_wvel_max              =   8.9365296605211E-02
(PID.TID 0000.0001) %MON advcfl_W_hf_max              =   1.0545153748644E-01
(PID.TID 0000.0001) %MON pe_b_mean                    =   4.9805301231187E-04
(PID.TID 0000.0001) %MON ke_max                       =   3.0920568861486E-02
(PID.TID 0000.0001) %MON ke_mean                      =   3.3259052901687E-04
(PID.TID 0000.0001) %MON ke_vol                       =   1.3226782436723E+18
(PID.TID 0000.0001) %MON vort_r_min                   =  -3.6816337673357E-07
(PID.TID 0000.0001) %MON vort_r_max                   =   7.0435733539178E-07
(PID.TID 0000.0001) %MON vort_a_mean                  =  -2.5274807999632E-05
(PID.TID 0000.0001) %MON vort_a_sd                    =   7.3604789645908E-05
(PID.TID 0000.0001) %MON vort_p_mean                  =  -3.1845656558206E-05
(PID.TID 0000.0001) %MON vort_p_sd                    =   1.3162778002899E-04
(PID.TID 0000.0001) %MON surfExpan_theta_mean         =   8.7698456340154E-07
(PID.TID 0000.0001) %MON surfExpan_salt_mean          =  -4.1437159553665E-07
(PID.TID 0000.0001) // =======================================================
(PID.TID 0000.0001) // End MONITOR dynamic field statistics
(PID.TID 0000.0001) // =======================================================
 EXTERNAL_FIELDS_LOAD,        34 : iP,iLd,i0,i1=    1    2    1    2 ; Wght=  0.3666666667  0.6333333333
 EXTERNAL_FIELDS_LOAD: (fu0,1),fu,fv= -3.5633E-02 -1.4435E-02 -2.2207E-02 -3.2163E-02
 EXTERNAL_FIELDS_LOAD: SST,SSS,Q,E-P=  1.4580E-02  3.4529E+01  2.4975E+02  9.5723E-06
DEBUG_STATS_RL:          Uvel (THERMODYNAMICS)  min= -1.89695187108754E-01
DEBUG_STATS_RL:          Uvel (THERMODYNAMICS)  max=  1.98113944844835E-01
DEBUG_STATS_RL:          Uvel (THERMODYNAMICS) mean=  5.52363129215793E-03
DEBUG_STATS_RL:          Uvel (THERMODYNAMICS) S.D.=  3.02411636137796E-02
DEBUG_STATS_RL:          Vvel (THERMODYNAMICS)  min= -1.11411801318118E-01
DEBUG_STATS_RL:          Vvel (THERMODYNAMICS)  max=  1.74758802170556E-01
DEBUG_STATS_RL:          Vvel (THERMODYNAMICS) mean= -3.10292268942263E-04
DEBUG_STATS_RL:          Vvel (THERMODYNAMICS) S.D.=  1.67958348069967E-02
DEBUG_STATS_RL:          Wvel (THERMODYNAMICS)  min= -2.19350047050769E-04
DEBUG_STATS_RL:          Wvel (THERMODYNAMICS)  max=  2.10586397829226E-04
DEBUG_STATS_RL:          Wvel (THERMODYNAMICS) mean= -3.00273168802851E-07
DEBUG_STATS_RL:          Wvel (THERMODYNAMICS) S.D.=  1.94169685305398E-05
DEBUG_STATS_RL:         Theta (THERMODYNAMICS)  min= -2.00455979049721E+00
DEBUG_STATS_RL:         Theta (THERMODYNAMICS)  max=  3.02722611588826E+01
DEBUG_STATS_RL:         Theta (THERMODYNAMICS) mean=  3.24058129401830E+00
DEBUG_STATS_RL:         Theta (THERMODYNAMICS) S.D.=  5.85971235937305E+00
DEBUG_STATS_RL:          Salt (THERMODYNAMICS)  min=  3.00000000000000E-02
DEBUG_STATS_RL:          Salt (THERMODYNAMICS)  max=  3.74844692108957E+01
DEBUG_STATS_RL:          Salt (THERMODYNAMICS) mean=  1.88748466929034E+01
DEBUG_STATS_RL:          Salt (THERMODYNAMICS) S.D.=  1.73003630010086E+01
DEBUG_STATS_RL:         GtNm1 (THERMODYNAMICS)  min= -3.25157636500937E-06
DEBUG_STATS_RL:         GtNm1 (THERMODYNAMICS)  max=  3.82701183677728E-06
DEBUG_STATS_RL:         GtNm1 (THERMODYNAMICS) mean=  9.69405761460615E-09
DEBUG_STATS_RL:         GtNm1 (THERMODYNAMICS) S.D.=  2.23653143844910E-07
DEBUG_STATS_RL:         GsNm1 (THERMODYNAMICS)  min= -6.25125220096946E-07
DEBUG_STATS_RL:         GsNm1 (THERMODYNAMICS)  max=  5.02851730316340E-07
DEBUG_STATS_RL:         GsNm1 (THERMODYNAMICS) mean= -2.22272291287571E-10
DEBUG_STATS_RL:         GsNm1 (THERMODYNAMICS) S.D.=  2.09341443874705E-08
DEBUG_STATS_RL:                EtaN (DYNAMICS)  min= -2.02413050178485E+00
DEBUG_STATS_RL:                EtaN (DYNAMICS)  max=  1.23438608506923E+00
DEBUG_STATS_RL:                EtaN (DYNAMICS) mean= -1.54546257053105E-01
DEBUG_STATS_RL:                EtaN (DYNAMICS) S.D.=  7.01530988801173E-01
DEBUG_STATS_RL:                Uvel (DYNAMICS)  min= -1.89695187108754E-01
DEBUG_STATS_RL:                Uvel (DYNAMICS)  max=  1.98113944844835E-01
DEBUG_STATS_RL:                Uvel (DYNAMICS) mean=  5.52363129215793E-03
DEBUG_STATS_RL:                Uvel (DYNAMICS) S.D.=  3.02411636137796E-02
DEBUG_STATS_RL:                Vvel (DYNAMICS)  min= -1.11411801318118E-01
DEBUG_STATS_RL:                Vvel (DYNAMICS)  max=  1.74758802170556E-01
DEBUG_STATS_RL:                Vvel (DYNAMICS) mean= -3.10292268942263E-04
DEBUG_STATS_RL:                Vvel (DYNAMICS) S.D.=  1.67958348069967E-02
DEBUG_STATS_RL:                Wvel (DYNAMICS)  min= -2.19350047050769E-04
DEBUG_STATS_RL:                Wvel (DYNAMICS)  max=  2.10586397829226E-04
DEBUG_STATS_RL:                Wvel (DYNAMICS) mean= -3.00273168802851E-07
DEBUG_STATS_RL:                Wvel (DYNAMICS) S.D.=  1.94169685305398E-05
DEBUG_STATS_RL:               Theta (DYNAMICS)  min= -2.00455979049721E+00
DEBUG_STATS_RL:               Theta (DYNAMICS)  max=  3.02722611588826E+01
DEBUG_STATS_RL:               Theta (DYNAMICS) mean=  3.24058129401830E+00
DEBUG_STATS_RL:               Theta (DYNAMICS) S.D.=  5.85971235937305E+00
DEBUG_STATS_RL:                Salt (DYNAMICS)  min=  3.00000000000000E-02
DEBUG_STATS_RL:                Salt (DYNAMICS)  max=  3.74844692108957E+01
DEBUG_STATS_RL:                Salt (DYNAMICS) mean=  1.88748466929034E+01
DEBUG_STATS_RL:                Salt (DYNAMICS) S.D.=  1.73003630010086E+01
DEBUG_STATS_RL:                  Gu (DYNAMICS)  min= -1.89628593689839E-01
DEBUG_STATS_RL:                  Gu (DYNAMICS)  max=  1.68967718830703E-01
DEBUG_STATS_RL:                  Gu (DYNAMICS) mean=  5.35393755771969E-03
DEBUG_STATS_RL:                  Gu (DYNAMICS) S.D.=  3.08456967970824E-02
DEBUG_STATS_RL:                  Gv (DYNAMICS)  min= -1.08595135556052E-01
DEBUG_STATS_RL:                  Gv (DYNAMICS)  max=  1.94802373954949E-01
DEBUG_STATS_RL:                  Gv (DYNAMICS) mean=  2.16957190414254E-03
DEBUG_STATS_RL:                  Gv (DYNAMICS) S.D.=  1.68959607417672E-02
DEBUG_STATS_RL:               GuNm1 (DYNAMICS)  min= -9.06064799103379E-06
DEBUG_STATS_RL:               GuNm1 (DYNAMICS)  max=  8.00233092901647E-06
DEBUG_STATS_RL:               GuNm1 (DYNAMICS) mean= -2.25592197049316E-08
DEBUG_STATS_RL:               GuNm1 (DYNAMICS) S.D.=  1.20553231942151E-06
DEBUG_STATS_RL:               GvNm1 (DYNAMICS)  min= -1.10483736071879E-05
DEBUG_STATS_RL:               GvNm1 (DYNAMICS)  max=  1.65224820687120E-05
DEBUG_STATS_RL:               GvNm1 (DYNAMICS) mean=  7.56821186095234E-07
DEBUG_STATS_RL:               GvNm1 (DYNAMICS) S.D.=  2.65386617206638E-06
DEBUG_STATS_RL:               GtNm1 (DYNAMICS)  min= -3.25157636500937E-06
DEBUG_STATS_RL:               GtNm1 (DYNAMICS)  max=  3.82701183677728E-06
DEBUG_STATS_RL:               GtNm1 (DYNAMICS) mean=  9.69405761460615E-09
DEBUG_STATS_RL:               GtNm1 (DYNAMICS) S.D.=  2.23653143844910E-07
DEBUG_STATS_RL:               GsNm1 (DYNAMICS)  min= -6.25125220096946E-07
DEBUG_STATS_RL:               GsNm1 (DYNAMICS)  max=  5.02851730316340E-07
DEBUG_STATS_RL:               GsNm1 (DYNAMICS) mean= -2.22272291287571E-10
DEBUG_STATS_RL:               GsNm1 (DYNAMICS) S.D.=  2.09341443874705E-08
DEBUG_STATS_RL:    cg2d_b (SOLVE_FOR_PRESSURE)  min= -1.87320088116407E+04
DEBUG_STATS_RL:    cg2d_b (SOLVE_FOR_PRESSURE)  max=  2.09730510101095E+04
DEBUG_STATS_RL:    cg2d_b (SOLVE_FOR_PRESSURE) mean=  2.50105163115279E+00
DEBUG_STATS_RL:    cg2d_b (SOLVE_FOR_PRESSURE) S.D.=  4.00558837925503E+03
 cg2d: Sum(rhs),rhsMax =   2.76065438611089E-01  1.37756614413002E+00
(PID.TID 0000.0001)  cg2d: iter=     1 ; resid.=  4.70810862067606E-01
(PID.TID 0000.0001)  cg2d: iter=     2 ; resid.=  4.23000688285034E-01
(PID.TID 0000.0001)  cg2d: iter=     3 ; resid.=  4.04203392966902E-01
(PID.TID 0000.0001)  cg2d: iter=     4 ; resid.=  3.92986913294841E-01
(PID.TID 0000.0001)  cg2d: iter=     5 ; resid.=  3.76643090891630E-01
(PID.TID 0000.0001)  cg2d: iter=     6 ; resid.=  3.18090861332069E-01
(PID.TID 0000.0001)  cg2d: iter=     7 ; resid.=  2.52218528142688E-01
(PID.TID 0000.0001)  cg2d: iter=     8 ; resid.=  1.84088810495575E-01
(PID.TID 0000.0001)  cg2d: iter=     9 ; resid.=  1.36221300580203E-01
(PID.TID 0000.0001)  cg2d: iter=    10 ; resid.=  1.15961203042249E-01
(PID.TID 0000.0001)  cg2d: iter=    11 ; resid.=  1.01455885474515E-01
(PID.TID 0000.0001)  cg2d: iter=    12 ; resid.=  8.82339513527388E-02
(PID.TID 0000.0001)  cg2d: iter=    13 ; resid.=  7.08490616714434E-02
(PID.TID 0000.0001)  cg2d: iter=    14 ; resid.=  6.06583679822227E-02
(PID.TID 0000.0001)  cg2d: iter=    15 ; resid.=  4.71591795004905E-02
(PID.TID 0000.0001)  cg2d: iter=    16 ; resid.=  4.28779764758812E-02
(PID.TID 0000.0001)  cg2d: iter=    17 ; resid.=  3.76568813971696E-02
(PID.TID 0000.0001)  cg2d: iter=    18 ; resid.=  3.31962753289245E-02
(PID.TID 0000.0001)  cg2d: iter=    19 ; resid.=  2.44972003254429E-02
(PID.TID 0000.0001)  cg2d: iter=    20 ; resid.=  2.01068823663931E-02
(PID.TID 0000.0001)  cg2d: iter=    21 ; resid.=  1.66310981384258E-02
(PID.TID 0000.0001)  cg2d: iter=    22 ; resid.=  1.42774550185089E-02
(PID.TID 0000.0001)  cg2d: iter=    23 ; resid.=  1.26554861506507E-02
(PID.TID 0000.0001)  cg2d: iter=    24 ; resid.=  1.16057979540752E-02
(PID.TID 0000.0001)  cg2d: iter=    25 ; resid.=  8.54551463251232E-03
(PID.TID 0000.0001)  cg2d: iter=    26 ; resid.=  6.99352565592019E-03
(PID.TID 0000.0001)  cg2d: iter=    27 ; resid.=  5.37139507670655E-03
(PID.TID 0000.0001)  cg2d: iter=    28 ; resid.=  4.15786666964785E-03
(PID.TID 0000.0001)  cg2d: iter=    29 ; resid.=  3.15447714761590E-03
(PID.TID 0000.0001)  cg2d: iter=    30 ; resid.=  2.67562815462308E-03
(PID.TID 0000.0001)  cg2d: iter=    31 ; resid.=  2.30416469681574E-03
(PID.TID 0000.0001)  cg2d: iter=    32 ; resid.=  2.00512202826879E-03
(PID.TID 0000.0001)  cg2d: iter=    33 ; resid.=  1.79469937812077E-03
(PID.TID 0000.0001)  cg2d: iter=    34 ; resid.=  1.53367961117387E-03
(PID.TID 0000.0001)  cg2d: iter=    35 ; resid.=  1.29478875996138E-03
(PID.TID 0000.0001)  cg2d: iter=    36 ; resid.=  1.09288768832841E-03
(PID.TID 0000.0001)  cg2d: iter=    37 ; resid.=  9.42550201744493E-04
(PID.TID 0000.0001)  cg2d: iter=    38 ; resid.=  8.36380231049266E-04
(PID.TID 0000.0001)  cg2d: iter=    39 ; resid.=  6.97546095176942E-04
(PID.TID 0000.0001)  cg2d: iter=    40 ; resid.=  5.73682803742631E-04
(PID.TID 0000.0001)  cg2d: iter=    41 ; resid.=  4.82499016851602E-04
(PID.TID 0000.0001)  cg2d: iter=    42 ; resid.=  4.27299856476477E-04
(PID.TID 0000.0001)  cg2d: iter=    43 ; resid.=  3.50822714717442E-04
(PID.TID 0000.0001)  cg2d: iter=    44 ; resid.=  2.83083411172795E-04
(PID.TID 0000.0001)  cg2d: iter=    45 ; resid.=  2.12861291371488E-04
(PID.TID 0000.0001)  cg2d: iter=    46 ; resid.=  1.78439163993519E-04
(PID.TID 0000.0001)  cg2d: iter=    47 ; resid.=  1.49998959234370E-04
(PID.TID 0000.0001)  cg2d: iter=    48 ; resid.=  1.13711673920476E-04
(PID.TID 0000.0001)  cg2d: iter=    49 ; resid.=  9.54562014663098E-05
(PID.TID 0000.0001)  cg2d: iter=    50 ; resid.=  9.09992280283147E-05
(PID.TID 0000.0001)  cg2d: iter=    51 ; resid.=  8.26801519016552E-05
(PID.TID 0000.0001)  cg2d: iter=    52 ; resid.=  7.08166129475589E-05
(PID.TID 0000.0001)  cg2d: iter=    53 ; resid.=  6.13904114897419E-05
(PID.TID 0000.0001)  cg2d: iter=    54 ; resid.=  4.56962367407699E-05
(PID.TID 0000.0001)  cg2d: iter=    55 ; resid.=  3.62821658299488E-05
(PID.TID 0000.0001)  cg2d: iter=    56 ; resid.=  3.01295696114370E-05
(PID.TID 0000.0001)  cg2d: iter=    57 ; resid.=  2.38907654265996E-05
(PID.TID 0000.0001)  cg2d: iter=    58 ; resid.=  1.93834455701120E-05
(PID.TID 0000.0001)  cg2d: iter=    59 ; resid.=  1.58428440683727E-05
(PID.TID 0000.0001)  cg2d: iter=    60 ; resid.=  1.26443966890288E-05
(PID.TID 0000.0001)  cg2d: iter=    61 ; resid.=  1.09788066876493E-05
(PID.TID 0000.0001)  cg2d: iter=    62 ; resid.=  9.54385455391033E-06
(PID.TID 0000.0001)  cg2d: iter=    63 ; resid.=  7.79678770793664E-06
(PID.TID 0000.0001)  cg2d: iter=    64 ; resid.=  6.38376044268255E-06
(PID.TID 0000.0001)  cg2d: iter=    65 ; resid.=  4.76376995414733E-06
(PID.TID 0000.0001)  cg2d: iter=    66 ; resid.=  4.10947028714056E-06
(PID.TID 0000.0001)  cg2d: iter=    67 ; resid.=  3.49290037652979E-06
(PID.TID 0000.0001)  cg2d: iter=    68 ; resid.=  3.07328146700414E-06
(PID.TID 0000.0001)  cg2d: iter=    69 ; resid.=  2.54421385412848E-06
(PID.TID 0000.0001)  cg2d: iter=    70 ; resid.=  2.06241325201403E-06
(PID.TID 0000.0001)  cg2d: iter=    71 ; resid.=  1.73445095985837E-06
(PID.TID 0000.0001)  cg2d: iter=    72 ; resid.=  1.57447685470784E-06
(PID.TID 0000.0001)  cg2d: iter=    73 ; resid.=  1.37605411518899E-06
(PID.TID 0000.0001)  cg2d: iter=    74 ; resid.=  1.14501502710733E-06
(PID.TID 0000.0001)  cg2d: iter=    75 ; resid.=  9.04675777178408E-07
(PID.TID 0000.0001)  cg2d: iter=    76 ; resid.=  7.21390027652002E-07
(PID.TID 0000.0001)  cg2d: iter=    77 ; resid.=  5.33233865101799E-07
(PID.TID 0000.0001)  cg2d: iter=    78 ; resid.=  3.99200120726548E-07
(PID.TID 0000.0001)  cg2d: iter=    79 ; resid.=  3.09798233645490E-07
(PID.TID 0000.0001)  cg2d: iter=    80 ; resid.=  2.17202678805666E-07
(PID.TID 0000.0001)  cg2d: iter=    81 ; resid.=  1.65050757617569E-07
(PID.TID 0000.0001)  cg2d: iter=    82 ; resid.=  1.33432743042357E-07
(PID.TID 0000.0001)  cg2d: iter=    83 ; resid.=  9.99698483416925E-08
(PID.TID 0000.0001)  cg2d: iter=    84 ; resid.=  7.40703322629975E-08
(PID.TID 0000.0001)  cg2d: iter=    85 ; resid.=  5.59551501022626E-08
(PID.TID 0000.0001)  cg2d: iter=    86 ; resid.=  4.37482759052463E-08
(PID.TID 0000.0001)  cg2d: iter=    87 ; resid.=  3.61619632611413E-08
(PID.TID 0000.0001)  cg2d: iter=    88 ; resid.=  3.00149751359382E-08
(PID.TID 0000.0001)  cg2d: iter=    89 ; resid.=  2.56678609631850E-08
(PID.TID 0000.0001)  cg2d: iter=    90 ; resid.=  2.19574765005682E-08
(PID.TID 0000.0001)  cg2d: iter=    91 ; resid.=  1.64358181474530E-08
(PID.TID 0000.0001)  cg2d: iter=    92 ; resid.=  1.23661406512404E-08
(PID.TID 0000.0001)  cg2d: iter=    93 ; resid.=  1.01004300583272E-08
(PID.TID 0000.0001)  cg2d: iter=    94 ; resid.=  8.01827605793619E-09
(PID.TID 0000.0001)  cg2d: iter=    95 ; resid.=  6.82344028913513E-09
(PID.TID 0000.0001)  cg2d: iter=    96 ; resid.=  5.17556118026105E-09
(PID.TID 0000.0001)  cg2d: iter=    97 ; resid.=  4.12051050946885E-09
(PID.TID 0000.0001)  cg2d: iter=    98 ; resid.=  3.44609077515596E-09
(PID.TID 0000.0001)  cg2d: iter=    99 ; resid.=  2.96298102704525E-09
(PID.TID 0000.0001)  cg2d: iter=   100 ; resid.=  2.53196599386604E-09
(PID.TID 0000.0001)  cg2d: iter=   101 ; resid.=  2.18840134904886E-09
(PID.TID 0000.0001)  cg2d: iter=   102 ; resid.=  1.73239858919916E-09
(PID.TID 0000.0001)  cg2d: iter=   103 ; resid.=  1.31309610352512E-09
(PID.TID 0000.0001)  cg2d: iter=   104 ; resid.=  1.04510797561567E-09
(PID.TID 0000.0001)  cg2d: iter=   105 ; resid.=  8.03906620753271E-10
(PID.TID 0000.0001)  cg2d: iter=   106 ; resid.=  6.61227185441413E-10
(PID.TID 0000.0001)  cg2d: iter=   107 ; resid.=  4.84682379858593E-10
(PID.TID 0000.0001)  cg2d: iter=   108 ; resid.=  3.45794917200076E-10
(PID.TID 0000.0001)  cg2d: iter=   109 ; resid.=  2.49023495903539E-10
(PID.TID 0000.0001)  cg2d: iter=   110 ; resid.=  1.83746840482551E-10
(PID.TID 0000.0001)  cg2d: iter=   111 ; resid.=  1.43493650092162E-10
(PID.TID 0000.0001)  cg2d: iter=   112 ; resid.=  1.06852236413702E-10
(PID.TID 0000.0001)  cg2d: iter=   113 ; resid.=  7.81567457729177E-11
(PID.TID 0000.0001)  cg2d: iter=   114 ; resid.=  6.16977506323494E-11
(PID.TID 0000.0001)  cg2d: iter=   115 ; resid.=  4.67043540880727E-11
(PID.TID 0000.0001)  cg2d: iter=   116 ; resid.=  3.51364098506445E-11
(PID.TID 0000.0001)  cg2d: iter=   117 ; resid.=  3.00957569230423E-11
(PID.TID 0000.0001)  cg2d: iter=   118 ; resid.=  2.50557365002691E-11
(PID.TID 0000.0001)  cg2d: iter=   119 ; resid.=  1.90849601522176E-11
(PID.TID 0000.0001)  cg2d: iter=   120 ; resid.=  1.45831641660971E-11
(PID.TID 0000.0001)  cg2d: iter=   121 ; resid.=  1.16547709246619E-11
(PID.TID 0000.0001)  cg2d: iter=   122 ; resid.=  8.25241310264245E-12
(PID.TID 0000.0001)  cg2d: iter=   123 ; resid.=  5.86064713857620E-12
(PID.TID 0000.0001)  cg2d: iter=   124 ; resid.=  4.13253385178785E-12
(PID.TID 0000.0001)  cg2d: iter=   125 ; resid.=  3.02936336361200E-12
(PID.TID 0000.0001)  cg2d: iter=   126 ; resid.=  2.10080763479691E-12
(PID.TID 0000.0001)  cg2d: iter=   127 ; resid.=  1.36547604863756E-12
(PID.TID 0000.0001)  cg2d: iter=   128 ; resid.=  9.64592668175395E-13
(PID.TID 0000.0001)  cg2d: iter=   129 ; resid.=  6.80899575329989E-13
(PID.TID 0000.0001)  cg2d: iter=   130 ; resid.=  5.13844232807911E-13
(PID.TID 0000.0001)  cg2d: iter=   131 ; resid.=  3.75002154365061E-13
(PID.TID 0000.0001)  cg2d: iter=   132 ; resid.=  2.78986554383384E-13
(PID.TID 0000.0001)  cg2d: iter=   133 ; resid.=  2.14419786025322E-13
(PID.TID 0000.0001)  cg2d: iter=   134 ; resid.=  1.74206803288720E-13
(PID.TID 0000.0001)  cg2d: iter=   135 ; resid.=  1.38563536525707E-13
(PID.TID 0000.0001)  cg2d: iter=   136 ; resid.=  9.47529219754659E-14
DEBUG_STATS_RL:    cg2d_x (SOLVE_FOR_PRESSURE)  min= -1.96775934830716E+01
DEBUG_STATS_RL:    cg2d_x (SOLVE_FOR_PRESSURE)  max=  1.19156090361810E+01
DEBUG_STATS_RL:    cg2d_x (SOLVE_FOR_PRESSURE) mean= -1.56538207246260E+00
DEBUG_STATS_RL:    cg2d_x (SOLVE_FOR_PRESSURE) S.D.=  7.08992528062915E+00
(PID.TID 0000.0001)      cg2d_init_res =   6.39890419995953E-01
(PID.TID 0000.0001)      cg2d_iters(min,last) =      -1     136
(PID.TID 0000.0001)      cg2d_last_res =   9.47529219754659E-14
(PID.TID 0000.0001) // =======================================================
(PID.TID 0000.0001) // Begin MONITOR dynamic field statistics
(PID.TID 0000.0001) // =======================================================
(PID.TID 0000.0001) %MON time_tsnumber                =                    35
(PID.TID 0000.0001) %MON time_secondsf                =   3.0240000000000E+06
(PID.TID 0000.0001) %MON dynstat_eta_max              =   1.2146390454821E+00
(PID.TID 0000.0001) %MON dynstat_eta_min              =  -2.0058708953182E+00
(PID.TID 0000.0001) %MON dynstat_eta_mean             =  -2.6095372569434E-03
(PID.TID 0000.0001) %MON dynstat_eta_sd               =   6.5370372558011E-01
(PID.TID 0000.0001) %MON dynstat_eta_del2             =   2.2956011740348E-03
(PID.TID 0000.0001) %MON dynstat_uvel_max             =   1.8412352165434E-01
(PID.TID 0000.0001) %MON dynstat_uvel_min             =  -1.8810818017914E-01
(PID.TID 0000.0001) %MON dynstat_uvel_mean            =   3.4580605571485E-03
(PID.TID 0000.0001) %MON dynstat_uvel_sd              =   2.3655351620351E-02
(PID.TID 0000.0001) %MON dynstat_uvel_del2            =   1.1129754217558E-04
(PID.TID 0000.0001) %MON dynstat_vvel_max             =   1.8891633028503E-01
(PID.TID 0000.0001) %MON dynstat_vvel_min             =  -1.1273009410115E-01
(PID.TID 0000.0001) %MON dynstat_vvel_mean            =  -3.0034322923874E-04
(PID.TID 0000.0001) %MON dynstat_vvel_sd              =   1.2662972617159E-02
(PID.TID 0000.0001) %MON dynstat_vvel_del2            =   1.0442600641872E-04
(PID.TID 0000.0001) %MON dynstat_wvel_max             =   1.9107907496586E-04
(PID.TID 0000.0001) %MON dynstat_wvel_min             =  -1.9150968236957E-04
(PID.TID 0000.0001) %MON dynstat_wvel_mean            =   2.1876090199923E-22
(PID.TID 0000.0001) %MON dynstat_wvel_sd              =   2.1396507396995E-05
(PID.TID 0000.0001) %MON dynstat_wvel_del2            =   2.2753403891319E-07
(PID.TID 0000.0001) %MON dynstat_theta_max            =   3.0272261158883E+01
(PID.TID 0000.0001) %MON dynstat_theta_min            =  -2.0045597904972E+00
(PID.TID 0000.0001) %MON dynstat_theta_mean           =   3.6513164647585E+00
(PID.TID 0000.0001) %MON dynstat_theta_sd             =   4.4180868601070E+00
(PID.TID 0000.0001) %MON dynstat_theta_del2           =   4.8427854269495E-03
(PID.TID 0000.0001) %MON dynstat_salt_max             =   3.7484469210896E+01
(PID.TID 0000.0001) %MON dynstat_salt_min             =   2.9851340804679E+01
(PID.TID 0000.0001) %MON dynstat_salt_mean            =   3.4747993175440E+01
(PID.TID 0000.0001) %MON dynstat_salt_sd              =   2.9629552580555E-01
(PID.TID 0000.0001) %MON dynstat_salt_del2            =   9.9296499702091E-04
(PID.TID 0000.0001) %MON dynstat_sst_max              =   3.0272261158883E+01
(PID.TID 0000.0001) %MON dynstat_sst_min              =  -2.0045597904972E+00
(PID.TID 0000.0001) %MON dynstat_sst_mean             =   1.8808237950744E+01
(PID.TID 0000.0001) %MON dynstat_sst_sd               =   9.0311137795271E+00
(PID.TID 0000.0001) %MON dynstat_sst_del2             =   2.6939252772813E-02
(PID.TID 0000.0001) %MON dynstat_sss_max              =   3.7460805415642E+01
(PID.TID 0000.0001) %MON dynstat_sss_min              =   2.9851340804679E+01
(PID.TID 0000.0001) %MON dynstat_sss_mean             =   3.4874926733584E+01
(PID.TID 0000.0001) %MON dynstat_sss_sd               =   9.7615830409540E-01
(PID.TID 0000.0001) %MON dynstat_sss_del2             =   7.8875578110669E-03
(PID.TID 0000.0001) %MON forcing_qnet_max             =   3.7855096944173E+02
(PID.TID 0000.0001) %MON forcing_qnet_min             =  -1.7546868082682E+02
(PID.TID 0000.0001) %MON forcing_qnet_mean            =  -1.4899251820380E+01
(PID.TID 0000.0001) %MON forcing_qnet_sd              =   9.0096938655160E+01
(PID.TID 0000.0001) %MON forcing_qnet_del2            =   9.6402608526261E-01
(PID.TID 0000.0001) %MON forcing_qsw_max              =   0.0000000000000E+00
(PID.TID 0000.0001) %MON forcing_qsw_min              =   0.0000000000000E+00
(PID.TID 0000.0001) %MON forcing_qsw_mean             =   0.0000000000000E+00
(PID.TID 0000.0001) %MON forcing_qsw_sd               =   0.0000000000000E+00
(PID.TID 0000.0001) %MON forcing_qsw_del2             =   0.0000000000000E+00
(PID.TID 0000.0001) %MON forcing_empmr_max            =   7.6206534060930E-05
(PID.TID 0000.0001) %MON forcing_empmr_min            =  -7.7669197177480E-05
(PID.TID 0000.0001) %MON forcing_empmr_mean           =   9.3590261004984E-07
(PID.TID 0000.0001) %MON forcing_empmr_sd             =   2.8090956758980E-05
(PID.TID 0000.0001) %MON forcing_empmr_del2           =   3.5396239938418E-07
(PID.TID 0000.0001) %MON forcing_fu_max               =   2.8937678635120E-01
(PID.TID 0000.0001) %MON forcing_fu_min               =  -1.9747318923473E-01
(PID.TID 0000.0001) %MON forcing_fu_mean              =   1.7033439246477E-02
(PID.TID 0000.0001) %MON forcing_fu_sd                =   9.0494937497899E-02
(PID.TID 0000.0001) %MON forcing_fu_del2              =   6.7697458152225E-04
(PID.TID 0000.0001) %MON forcing_fv_max               =   1.8480933904648E-01
(PID.TID 0000.0001) %MON forcing_fv_min               =  -1.6478836735090E-01
(PID.TID 0000.0001) %MON forcing_fv_mean              =  -6.4988549670934E-03
(PID.TID 0000.0001) %MON forcing_fv_sd                =   4.4598978531363E-02
(PID.TID 0000.0001) %MON forcing_fv_del2              =   4.7620990539496E-04
(PID.TID 0000.0001) %MON trAdv_CFL_u_max              =   6.5497015509255E-02
(PID.TID 0000.0001) %MON trAdv_CFL_v_max              =   3.5570297974102E-02
(PID.TID 0000.0001) %MON trAdv_CFL_w_max              =   1.0545153748644E-01
(PID.TID 0000.0001) %MON advcfl_uvel_max              =   5.8591567819053E-02
(PID.TID 0000.0001) %MON advcfl_vvel_max              =   3.6703413120709E-02
(PID.TID 0000.0001) %MON advcfl_wvel_max              =   8.5429925245733E-02
(PID.TID 0000.0001) %MON advcfl_W_hf_max              =   1.0068526903961E-01
(PID.TID 0000.0001) %MON pe_b_mean                    =   5.4682711452482E-04
(PID.TID 0000.0001) %MON ke_max                       =   2.9829982070259E-02
(PID.TID 0000.0001) %MON ke_mean                      =   3.3168550850368E-04
(PID.TID 0000.0001) %MON ke_vol                       =   1.3226782436723E+18
(PID.TID 0000.0001) %MON vort_r_min                   =  -3.8526581390986E-07
(PID.TID 0000.0001) %MON vort_r_max                   =   6.9463344089996E-07
(PID.TID 0000.0001) %MON vort_a_mean                  =  -2.5274807741664E-05
(PID.TID 0000.0001) %MON vort_a_sd                    =   7.3604784383317E-05
(PID.TID 0000.0001) %MON vort_p_mean                  =  -3.1845656233173E-05
(PID.TID 0000.0001) %MON vort_p_sd                    =   1.3162727146095E-04
(PID.TID 0000.0001) %MON surfExpan_theta_mean         =   9.3339633646598E-07
(PID.TID 0000.0001) %MON surfExpan_salt_mean          =  -3.9798586650446E-07
(PID.TID 0000.0001) // =======================================================
(PID.TID 0000.0001) // End MONITOR dynamic field statistics
(PID.TID 0000.0001) // =======================================================
 EXTERNAL_FIELDS_LOAD,        35 : iP,iLd,i0,i1=    1    2    1    2 ; Wght=  0.3333333333  0.6666666667
 EXTERNAL_FIELDS_LOAD: (fu0,1),fu,fv= -3.5633E-02 -1.4435E-02 -2.1501E-02 -3.0843E-02
 EXTERNAL_FIELDS_LOAD: SST,SSS,Q,E-P= -3.5096E-02  3.4519E+01  2.4891E+02  9.4637E-06
DEBUG_STATS_RL:          Uvel (THERMODYNAMICS)  min= -1.88108180179142E-01
DEBUG_STATS_RL:          Uvel (THERMODYNAMICS)  max=  1.84123521654337E-01
DEBUG_STATS_RL:          Uvel (THERMODYNAMICS) mean=  5.27510023060928E-03
DEBUG_STATS_RL:          Uvel (THERMODYNAMICS) S.D.=  3.03926917155336E-02
DEBUG_STATS_RL:          Vvel (THERMODYNAMICS)  min= -1.12730094101149E-01
DEBUG_STATS_RL:          Vvel (THERMODYNAMICS)  max=  1.88916330285025E-01
DEBUG_STATS_RL:          Vvel (THERMODYNAMICS) mean= -3.38877911766234E-04
DEBUG_STATS_RL:          Vvel (THERMODYNAMICS) S.D.=  1.69928728790767E-02
DEBUG_STATS_RL:          Wvel (THERMODYNAMICS)  min= -1.91509682369573E-04
DEBUG_STATS_RL:          Wvel (THERMODYNAMICS)  max=  1.91079074965856E-04
DEBUG_STATS_RL:          Wvel (THERMODYNAMICS) mean= -3.30715823986679E-07
DEBUG_STATS_RL:          Wvel (THERMODYNAMICS) S.D.=  1.91182377327087E-05
DEBUG_STATS_RL:         Theta (THERMODYNAMICS)  min= -2.00429809069153E+00
DEBUG_STATS_RL:         Theta (THERMODYNAMICS)  max=  3.02699725903598E+01
DEBUG_STATS_RL:         Theta (THERMODYNAMICS) mean=  3.24108206353264E+00
DEBUG_STATS_RL:         Theta (THERMODYNAMICS) S.D.=  5.86019801480316E+00
DEBUG_STATS_RL:          Salt (THERMODYNAMICS)  min=  3.00000000000000E-02
DEBUG_STATS_RL:          Salt (THERMODYNAMICS)  max=  3.74852554318398E+01
DEBUG_STATS_RL:          Salt (THERMODYNAMICS) mean=  1.88748445658694E+01
DEBUG_STATS_RL:          Salt (THERMODYNAMICS) S.D.=  1.73003622244478E+01
DEBUG_STATS_RL:         GtNm1 (THERMODYNAMICS)  min= -3.40840477332969E-06
DEBUG_STATS_RL:         GtNm1 (THERMODYNAMICS)  max=  3.79016573763194E-06
DEBUG_STATS_RL:         GtNm1 (THERMODYNAMICS) mean=  1.05380118695853E-08
DEBUG_STATS_RL:         GtNm1 (THERMODYNAMICS) S.D.=  2.21199133967816E-07
DEBUG_STATS_RL:         GsNm1 (THERMODYNAMICS)  min= -5.94908421150309E-07
DEBUG_STATS_RL:         GsNm1 (THERMODYNAMICS)  max=  3.37464465652202E-07
DEBUG_STATS_RL:         GsNm1 (THERMODYNAMICS) mean= -1.39441606630596E-10
DEBUG_STATS_RL:         GsNm1 (THERMODYNAMICS) S.D.=  2.02177098379173E-08
DEBUG_STATS_RL:                EtaN (DYNAMICS)  min= -2.00587089531823E+00
DEBUG_STATS_RL:                EtaN (DYNAMICS)  max=  1.21463904548212E+00
DEBUG_STATS_RL:                EtaN (DYNAMICS) mean= -1.59570037967647E-01
DEBUG_STATS_RL:                EtaN (DYNAMICS) S.D.=  7.22724289564645E-01
DEBUG_STATS_RL:                Uvel (DYNAMICS)  min= -1.88108180179142E-01
DEBUG_STATS_RL:                Uvel (DYNAMICS)  max=  1.84123521654337E-01
DEBUG_STATS_RL:                Uvel (DYNAMICS) mean=  5.27510023060928E-03
DEBUG_STATS_RL:                Uvel (DYNAMICS) S.D.=  3.03926917155336E-02
DEBUG_STATS_RL:                Vvel (DYNAMICS)  min= -1.12730094101149E-01
DEBUG_STATS_RL:                Vvel (DYNAMICS)  max=  1.88916330285025E-01
DEBUG_STATS_RL:                Vvel (DYNAMICS) mean= -3.38877911766234E-04
DEBUG_STATS_RL:                Vvel (DYNAMICS) S.D.=  1.69928728790767E-02
DEBUG_STATS_RL:                Wvel (DYNAMICS)  min= -1.91509682369573E-04
DEBUG_STATS_RL:                Wvel (DYNAMICS)  max=  1.91079074965856E-04
DEBUG_STATS_RL:                Wvel (DYNAMICS) mean= -3.30715823986679E-07
DEBUG_STATS_RL:                Wvel (DYNAMICS) S.D.=  1.91182377327087E-05
DEBUG_STATS_RL:               Theta (DYNAMICS)  min= -2.00429809069153E+00
DEBUG_STATS_RL:               Theta (DYNAMICS)  max=  3.02699725903598E+01
DEBUG_STATS_RL:               Theta (DYNAMICS) mean=  3.24108206353264E+00
DEBUG_STATS_RL:               Theta (DYNAMICS) S.D.=  5.86019801480316E+00
DEBUG_STATS_RL:                Salt (DYNAMICS)  min=  3.00000000000000E-02
DEBUG_STATS_RL:                Salt (DYNAMICS)  max=  3.74852554318398E+01
DEBUG_STATS_RL:                Salt (DYNAMICS) mean=  1.88748445658694E+01
DEBUG_STATS_RL:                Salt (DYNAMICS) S.D.=  1.73003622244478E+01
DEBUG_STATS_RL:                  Gu (DYNAMICS)  min= -1.87336007335385E-01
DEBUG_STATS_RL:                  Gu (DYNAMICS)  max=  1.52006416122689E-01
DEBUG_STATS_RL:                  Gu (DYNAMICS) mean=  4.95257151722028E-03
DEBUG_STATS_RL:                  Gu (DYNAMICS) S.D.=  3.09609026191515E-02
DEBUG_STATS_RL:                  Gv (DYNAMICS)  min= -1.09732903430013E-01
DEBUG_STATS_RL:                  Gv (DYNAMICS)  max=  2.04328836513410E-01
DEBUG_STATS_RL:                  Gv (DYNAMICS) mean=  2.13475521521300E-03
DEBUG_STATS_RL:                  Gv (DYNAMICS) S.D.=  1.70244525380038E-02
DEBUG_STATS_RL:               GuNm1 (DYNAMICS)  min= -9.22439536484695E-06
DEBUG_STATS_RL:               GuNm1 (DYNAMICS)  max=  8.10493889787675E-06
DEBUG_STATS_RL:               GuNm1 (DYNAMICS) mean= -2.27505755781327E-08
DEBUG_STATS_RL:               GuNm1 (DYNAMICS) S.D.=  1.20158508336179E-06
DEBUG_STATS_RL:               GvNm1 (DYNAMICS)  min= -1.10127599446874E-05
DEBUG_STATS_RL:               GvNm1 (DYNAMICS)  max=  1.64823193043130E-05
DEBUG_STATS_RL:               GvNm1 (DYNAMICS) mean=  7.54117029688669E-07
DEBUG_STATS_RL:               GvNm1 (DYNAMICS) S.D.=  2.64703157078370E-06
DEBUG_STATS_RL:               GtNm1 (DYNAMICS)  min= -3.40840477332969E-06
DEBUG_STATS_RL:               GtNm1 (DYNAMICS)  max=  3.79016573763194E-06
DEBUG_STATS_RL:               GtNm1 (DYNAMICS) mean=  1.05380118695853E-08
DEBUG_STATS_RL:               GtNm1 (DYNAMICS) S.D.=  2.21199133967816E-07
DEBUG_STATS_RL:               GsNm1 (DYNAMICS)  min= -5.94908421150309E-07
DEBUG_STATS_RL:               GsNm1 (DYNAMICS)  max=  3.37464465652202E-07
DEBUG_STATS_RL:               GsNm1 (DYNAMICS) mean= -1.39441606630596E-10
DEBUG_STATS_RL:               GsNm1 (DYNAMICS) S.D.=  2.02177098379173E-08
DEBUG_STATS_RL:    cg2d_b (SOLVE_FOR_PRESSURE)  min= -2.05483818518487E+04
DEBUG_STATS_RL:    cg2d_b (SOLVE_FOR_PRESSURE)  max=  2.06331755758016E+04
DEBUG_STATS_RL:    cg2d_b (SOLVE_FOR_PRESSURE) mean=  2.57598577498960E+00
DEBUG_STATS_RL:    cg2d_b (SOLVE_FOR_PRESSURE) S.D.=  3.98753135979252E+03
 cg2d: Sum(rhs),rhsMax =   2.89020322983744E-01  1.35524221561345E+00
(PID.TID 0000.0001)  cg2d: iter=     1 ; resid.=  4.70040258377282E-01
(PID.TID 0000.0001)  cg2d: iter=     2 ; resid.=  4.16247291891374E-01
(PID.TID 0000.0001)  cg2d: iter=     3 ; resid.=  4.02350021677330E-01
(PID.TID 0000.0001)  cg2d: iter=     4 ; resid.=  3.88374139052461E-01
(PID.TID 0000.0001)  cg2d: iter=     5 ; resid.=  3.68828935069419E-01
(PID.TID 0000.0001)  cg2d: iter=     6 ; resid.=  3.11195353259697E-01
(PID.TID 0000.0001)  cg2d: iter=     7 ; resid.=  2.49158376510195E-01
(PID.TID 0000.0001)  cg2d: iter=     8 ; resid.=  1.86551879728854E-01
(PID.TID 0000.0001)  cg2d: iter=     9 ; resid.=  1.41554600281630E-01
(PID.TID 0000.0001)  cg2d: iter=    10 ; resid.=  1.20043309674863E-01
(PID.TID 0000.0001)  cg2d: iter=    11 ; resid.=  1.05553368867786E-01
(PID.TID 0000.0001)  cg2d: iter=    12 ; resid.=  9.05094260151242E-02
(PID.TID 0000.0001)  cg2d: iter=    13 ; resid.=  7.17064345962315E-02
(PID.TID 0000.0001)  cg2d: iter=    14 ; resid.=  6.12113521681132E-02
(PID.TID 0000.0001)  cg2d: iter=    15 ; resid.=  4.77191934153346E-02
(PID.TID 0000.0001)  cg2d: iter=    16 ; resid.=  4.35018646906185E-02
(PID.TID 0000.0001)  cg2d: iter=    17 ; resid.=  3.81113351703927E-02
(PID.TID 0000.0001)  cg2d: iter=    18 ; resid.=  3.35740852527474E-02
(PID.TID 0000.0001)  cg2d: iter=    19 ; resid.=  2.48910605273324E-02
(PID.TID 0000.0001)  cg2d: iter=    20 ; resid.=  2.01961884457336E-02
(PID.TID 0000.0001)  cg2d: iter=    21 ; resid.=  1.65615820307117E-02
(PID.TID 0000.0001)  cg2d: iter=    22 ; resid.=  1.42177927778135E-02
(PID.TID 0000.0001)  cg2d: iter=    23 ; resid.=  1.25828161293941E-02
(PID.TID 0000.0001)  cg2d: iter=    24 ; resid.=  1.15496388654188E-02
(PID.TID 0000.0001)  cg2d: iter=    25 ; resid.=  8.60874203093242E-03
(PID.TID 0000.0001)  cg2d: iter=    26 ; resid.=  7.01994030186371E-03
(PID.TID 0000.0001)  cg2d: iter=    27 ; resid.=  5.39610144540702E-03
(PID.TID 0000.0001)  cg2d: iter=    28 ; resid.=  4.22774227921136E-03
(PID.TID 0000.0001)  cg2d: iter=    29 ; resid.=  3.23153540344867E-03
(PID.TID 0000.0001)  cg2d: iter=    30 ; resid.=  2.77793855603909E-03
(PID.TID 0000.0001)  cg2d: iter=    31 ; resid.=  2.35540654904949E-03
(PID.TID 0000.0001)  cg2d: iter=    32 ; resid.=  2.00178958563004E-03
(PID.TID 0000.0001)  cg2d: iter=    33 ; resid.=  1.78741703300630E-03
(PID.TID 0000.0001)  cg2d: iter=    34 ; resid.=  1.52346158190400E-03
(PID.TID 0000.0001)  cg2d: iter=    35 ; resid.=  1.28569243280102E-03
(PID.TID 0000.0001)  cg2d: iter=    36 ; resid.=  1.09560880109745E-03
(PID.TID 0000.0001)  cg2d: iter=    37 ; resid.=  9.43081267077703E-04
(PID.TID 0000.0001)  cg2d: iter=    38 ; resid.=  8.45901659298164E-04
(PID.TID 0000.0001)  cg2d: iter=    39 ; resid.=  7.16057751785359E-04
(PID.TID 0000.0001)  cg2d: iter=    40 ; resid.=  5.92121391524049E-04
(PID.TID 0000.0001)  cg2d: iter=    41 ; resid.=  4.96759756434042E-04
(PID.TID 0000.0001)  cg2d: iter=    42 ; resid.=  4.34184860715913E-04
(PID.TID 0000.0001)  cg2d: iter=    43 ; resid.=  3.56755215318396E-04
(PID.TID 0000.0001)  cg2d: iter=    44 ; resid.=  2.85237140351241E-04
(PID.TID 0000.0001)  cg2d: iter=    45 ; resid.=  2.13914216393149E-04
(PID.TID 0000.0001)  cg2d: iter=    46 ; resid.=  1.78241022625764E-04
(PID.TID 0000.0001)  cg2d: iter=    47 ; resid.=  1.52225675228375E-04
(PID.TID 0000.0001)  cg2d: iter=    48 ; resid.=  1.18117405417605E-04
(PID.TID 0000.0001)  cg2d: iter=    49 ; resid.=  1.00287255847708E-04
(PID.TID 0000.0001)  cg2d: iter=    50 ; resid.=  9.42583775179135E-05
(PID.TID 0000.0001)  cg2d: iter=    51 ; resid.=  8.30440657199209E-05
(PID.TID 0000.0001)  cg2d: iter=    52 ; resid.=  6.87522861403174E-05
(PID.TID 0000.0001)  cg2d: iter=    53 ; resid.=  5.88468750847966E-05
(PID.TID 0000.0001)  cg2d: iter=    54 ; resid.=  4.49807432634637E-05
(PID.TID 0000.0001)  cg2d: iter=    55 ; resid.=  3.69444793241778E-05
(PID.TID 0000.0001)  cg2d: iter=    56 ; resid.=  3.10034934455144E-05
(PID.TID 0000.0001)  cg2d: iter=    57 ; resid.=  2.53617570773943E-05
(PID.TID 0000.0001)  cg2d: iter=    58 ; resid.=  2.06274447358879E-05
(PID.TID 0000.0001)  cg2d: iter=    59 ; resid.=  1.70085745921873E-05
(PID.TID 0000.0001)  cg2d: iter=    60 ; resid.=  1.34003988060282E-05
(PID.TID 0000.0001)  cg2d: iter=    61 ; resid.=  1.15626270918842E-05
(PID.TID 0000.0001)  cg2d: iter=    62 ; resid.=  9.90843022658631E-06
(PID.TID 0000.0001)  cg2d: iter=    63 ; resid.=  8.10936251599766E-06
(PID.TID 0000.0001)  cg2d: iter=    64 ; resid.=  6.54186809494898E-06
(PID.TID 0000.0001)  cg2d: iter=    65 ; resid.=  5.05940146506399E-06
(PID.TID 0000.0001)  cg2d: iter=    66 ; resid.=  4.44069418849297E-06
(PID.TID 0000.0001)  cg2d: iter=    67 ; resid.=  3.77314560449472E-06
(PID.TID 0000.0001)  cg2d: iter=    68 ; resid.=  3.25083836121623E-06
(PID.TID 0000.0001)  cg2d: iter=    69 ; resid.=  2.60531749855373E-06
(PID.TID 0000.0001)  cg2d: iter=    70 ; resid.=  2.06358587787088E-06
(PID.TID 0000.0001)  cg2d: iter=    71 ; resid.=  1.73651624153235E-06
(PID.TID 0000.0001)  cg2d: iter=    72 ; resid.=  1.57429905972467E-06
(PID.TID 0000.0001)  cg2d: iter=    73 ; resid.=  1.39222844506947E-06
(PID.TID 0000.0001)  cg2d: iter=    74 ; resid.=  1.17136364599293E-06
(PID.TID 0000.0001)  cg2d: iter=    75 ; resid.=  9.38269003021711E-07
(PID.TID 0000.0001)  cg2d: iter=    76 ; resid.=  7.71564740425876E-07
(PID.TID 0000.0001)  cg2d: iter=    77 ; resid.=  5.87252660347353E-07
(PID.TID 0000.0001)  cg2d: iter=    78 ; resid.=  4.51990430541695E-07
(PID.TID 0000.0001)  cg2d: iter=    79 ; resid.=  3.47398082027151E-07
(PID.TID 0000.0001)  cg2d: iter=    80 ; resid.=  2.46281922123861E-07
(PID.TID 0000.0001)  cg2d: iter=    81 ; resid.=  1.86058979759646E-07
(PID.TID 0000.0001)  cg2d: iter=    82 ; resid.=  1.45862845935449E-07
(PID.TID 0000.0001)  cg2d: iter=    83 ; resid.=  1.05581671525467E-07
(PID.TID 0000.0001)  cg2d: iter=    84 ; resid.=  7.78379121133229E-08
(PID.TID 0000.0001)  cg2d: iter=    85 ; resid.=  5.78602007237115E-08
(PID.TID 0000.0001)  cg2d: iter=    86 ; resid.=  4.60200330298643E-08
(PID.TID 0000.0001)  cg2d: iter=    87 ; resid.=  3.90855056481230E-08
(PID.TID 0000.0001)  cg2d: iter=    88 ; resid.=  3.23858070707433E-08
(PID.TID 0000.0001)  cg2d: iter=    89 ; resid.=  2.71384300200168E-08
(PID.TID 0000.0001)  cg2d: iter=    90 ; resid.=  2.20623888374658E-08
(PID.TID 0000.0001)  cg2d: iter=    91 ; resid.=  1.60150181931865E-08
(PID.TID 0000.0001)  cg2d: iter=    92 ; resid.=  1.19534198271703E-08
(PID.TID 0000.0001)  cg2d: iter=    93 ; resid.=  9.67253732267273E-09
(PID.TID 0000.0001)  cg2d: iter=    94 ; resid.=  7.75326390163654E-09
(PID.TID 0000.0001)  cg2d: iter=    95 ; resid.=  6.71538957628803E-09
(PID.TID 0000.0001)  cg2d: iter=    96 ; resid.=  5.13351496500831E-09
(PID.TID 0000.0001)  cg2d: iter=    97 ; resid.=  4.04020739463848E-09
(PID.TID 0000.0001)  cg2d: iter=    98 ; resid.=  3.36034361425685E-09
(PID.TID 0000.0001)  cg2d: iter=    99 ; resid.=  2.91004950517142E-09
(PID.TID 0000.0001)  cg2d: iter=   100 ; resid.=  2.47857417266384E-09
(PID.TID 0000.0001)  cg2d: iter=   101 ; resid.=  2.10147062069088E-09
(PID.TID 0000.0001)  cg2d: iter=   102 ; resid.=  1.65811171640548E-09
(PID.TID 0000.0001)  cg2d: iter=   103 ; resid.=  1.29840653359347E-09
(PID.TID 0000.0001)  cg2d: iter=   104 ; resid.=  1.05108067495993E-09
(PID.TID 0000.0001)  cg2d: iter=   105 ; resid.=  8.47813531548737E-10
(PID.TID 0000.0001)  cg2d: iter=   106 ; resid.=  7.34196429652751E-10
(PID.TID 0000.0001)  cg2d: iter=   107 ; resid.=  5.46628211359988E-10
(PID.TID 0000.0001)  cg2d: iter=   108 ; resid.=  4.03608195091382E-10
(PID.TID 0000.0001)  cg2d: iter=   109 ; resid.=  2.91589155016412E-10
(PID.TID 0000.0001)  cg2d: iter=   110 ; resid.=  2.18345672035215E-10
(PID.TID 0000.0001)  cg2d: iter=   111 ; resid.=  1.69676839774289E-10
(PID.TID 0000.0001)  cg2d: iter=   112 ; resid.=  1.19556198682055E-10
(PID.TID 0000.0001)  cg2d: iter=   113 ; resid.=  8.66919166732643E-11
(PID.TID 0000.0001)  cg2d: iter=   114 ; resid.=  6.79203527424682E-11
(PID.TID 0000.0001)  cg2d: iter=   115 ; resid.=  5.04791109641380E-11
(PID.TID 0000.0001)  cg2d: iter=   116 ; resid.=  3.88694709480328E-11
(PID.TID 0000.0001)  cg2d: iter=   117 ; resid.=  3.40127486265361E-11
(PID.TID 0000.0001)  cg2d: iter=   118 ; resid.=  2.83132730049164E-11
(PID.TID 0000.0001)  cg2d: iter=   119 ; resid.=  2.13031004786146E-11
(PID.TID 0000.0001)  cg2d: iter=   120 ; resid.=  1.60369571550561E-11
(PID.TID 0000.0001)  cg2d: iter=   121 ; resid.=  1.29094840733439E-11
(PID.TID 0000.0001)  cg2d: iter=   122 ; resid.=  9.12635323178705E-12
(PID.TID 0000.0001)  cg2d: iter=   123 ; resid.=  6.37185628652479E-12
(PID.TID 0000.0001)  cg2d: iter=   124 ; resid.=  4.36587115433125E-12
(PID.TID 0000.0001)  cg2d: iter=   125 ; resid.=  3.14215005319122E-12
(PID.TID 0000.0001)  cg2d: iter=   126 ; resid.=  2.17001702385467E-12
(PID.TID 0000.0001)  cg2d: iter=   127 ; resid.=  1.40844974935657E-12
(PID.TID 0000.0001)  cg2d: iter=   128 ; resid.=  1.00124552337219E-12
(PID.TID 0000.0001)  cg2d: iter=   129 ; resid.=  7.23201846802195E-13
(PID.TID 0000.0001)  cg2d: iter=   130 ; resid.=  5.62629780578003E-13
(PID.TID 0000.0001)  cg2d: iter=   131 ; resid.=  4.25792620111144E-13
(PID.TID 0000.0001)  cg2d: iter=   132 ; resid.=  3.25810227656891E-13
(PID.TID 0000.0001)  cg2d: iter=   133 ; resid.=  2.55604861671574E-13
(PID.TID 0000.0001)  cg2d: iter=   134 ; resid.=  2.01728776618369E-13
(PID.TID 0000.0001)  cg2d: iter=   135 ; resid.=  1.53239482942287E-13
(PID.TID 0000.0001)  cg2d: iter=   136 ; resid.=  9.94780109680778E-14
DEBUG_STATS_RL:    cg2d_x (SOLVE_FOR_PRESSURE)  min= -1.94329796030546E+01
DEBUG_STATS_RL:    cg2d_x (SOLVE_FOR_PRESSURE)  max=  1.17318666904106E+01
DEBUG_STATS_RL:    cg2d_x (SOLVE_FOR_PRESSURE) mean= -1.61866429578653E+00
DEBUG_STATS_RL:    cg2d_x (SOLVE_FOR_PRESSURE) S.D.=  7.38035997263079E+00
(PID.TID 0000.0001)      cg2d_init_res =   6.41596759243389E-01
(PID.TID 0000.0001)      cg2d_iters(min,last) =      -1     136
(PID.TID 0000.0001)      cg2d_last_res =   9.94780109680778E-14
(PID.TID 0000.0001) // =======================================================
(PID.TID 0000.0001) // Begin MONITOR dynamic field statistics
(PID.TID 0000.0001) // =======================================================
(PID.TID 0000.0001) %MON time_tsnumber                =                    36
(PID.TID 0000.0001) %MON time_secondsf                =   3.1104000000000E+06
(PID.TID 0000.0001) %MON dynstat_eta_max              =   1.1959089388798E+00
(PID.TID 0000.0001) %MON dynstat_eta_min              =  -1.9809357393531E+00
(PID.TID 0000.0001) %MON dynstat_eta_mean             =  -2.6877217445104E-03
(PID.TID 0000.0001) %MON dynstat_eta_sd               =   6.8954480643863E-01
(PID.TID 0000.0001) %MON dynstat_eta_del2             =   2.3065197731383E-03
(PID.TID 0000.0001) %MON dynstat_uvel_max             =   1.6727355264799E-01
(PID.TID 0000.0001) %MON dynstat_uvel_min             =  -1.8575720483418E-01
(PID.TID 0000.0001) %MON dynstat_uvel_mean            =   3.1956124909467E-03
(PID.TID 0000.0001) %MON dynstat_uvel_sd              =   2.3576940084360E-02
(PID.TID 0000.0001) %MON dynstat_uvel_del2            =   1.1191123928592E-04
(PID.TID 0000.0001) %MON dynstat_vvel_max             =   1.9952757132424E-01
(PID.TID 0000.0001) %MON dynstat_vvel_min             =  -1.1394940557390E-01
(PID.TID 0000.0001) %MON dynstat_vvel_mean            =  -2.8480341725678E-04
(PID.TID 0000.0001) %MON dynstat_vvel_sd              =   1.2711986009904E-02
(PID.TID 0000.0001) %MON dynstat_vvel_del2            =   1.0481576772899E-04
(PID.TID 0000.0001) %MON dynstat_wvel_max             =   1.6737026026292E-04
(PID.TID 0000.0001) %MON dynstat_wvel_min             =  -1.5997269047610E-04
(PID.TID 0000.0001) %MON dynstat_wvel_mean            =   6.0989277946626E-22
(PID.TID 0000.0001) %MON dynstat_wvel_sd              =   2.1205631327482E-05
(PID.TID 0000.0001) %MON dynstat_wvel_del2            =   2.2275007536485E-07
(PID.TID 0000.0001) %MON dynstat_theta_max            =   3.0269972590360E+01
(PID.TID 0000.0001) %MON dynstat_theta_min            =  -2.0042980906915E+00
(PID.TID 0000.0001) %MON dynstat_theta_mean           =   3.6513772750828E+00
(PID.TID 0000.0001) %MON dynstat_theta_sd             =   4.4182232206242E+00
(PID.TID 0000.0001) %MON dynstat_theta_del2           =   4.8310447036877E-03
(PID.TID 0000.0001) %MON dynstat_salt_max             =   3.7485255431840E+01
(PID.TID 0000.0001) %MON dynstat_salt_min             =   2.9848113293154E+01
(PID.TID 0000.0001) %MON dynstat_salt_mean            =   3.4748002911120E+01
(PID.TID 0000.0001) %MON dynstat_salt_sd              =   2.9632248604698E-01
(PID.TID 0000.0001) %MON dynstat_salt_del2            =   9.9194221957588E-04
(PID.TID 0000.0001) %MON dynstat_sst_max              =   3.0269972590360E+01
(PID.TID 0000.0001) %MON dynstat_sst_min              =  -2.0042980906915E+00
(PID.TID 0000.0001) %MON dynstat_sst_mean             =   1.8818512814552E+01
(PID.TID 0000.0001) %MON dynstat_sst_sd               =   9.0271085085420E+00
(PID.TID 0000.0001) %MON dynstat_sst_del2             =   2.6984336075321E-02
(PID.TID 0000.0001) %MON dynstat_sss_max              =   3.7460834044155E+01
(PID.TID 0000.0001) %MON dynstat_sss_min              =   2.9848113293154E+01
(PID.TID 0000.0001) %MON dynstat_sss_mean             =   3.4874780272754E+01
(PID.TID 0000.0001) %MON dynstat_sss_sd               =   9.7630951026777E-01
(PID.TID 0000.0001) %MON dynstat_sss_del2             =   7.8875689729906E-03
(PID.TID 0000.0001) %MON forcing_qnet_max             =   3.7523188273112E+02
(PID.TID 0000.0001) %MON forcing_qnet_min             =  -1.7522916158040E+02
(PID.TID 0000.0001) %MON forcing_qnet_mean            =  -1.4814342652977E+01
(PID.TID 0000.0001) %MON forcing_qnet_sd              =   8.9107408305075E+01
(PID.TID 0000.0001) %MON forcing_qnet_del2            =   9.6203928083516E-01
(PID.TID 0000.0001) %MON forcing_qsw_max              =   0.0000000000000E+00
(PID.TID 0000.0001) %MON forcing_qsw_min              =   0.0000000000000E+00
(PID.TID 0000.0001) %MON forcing_qsw_mean             =   0.0000000000000E+00
(PID.TID 0000.0001) %MON forcing_qsw_sd               =   0.0000000000000E+00
(PID.TID 0000.0001) %MON forcing_qsw_del2             =   0.0000000000000E+00
(PID.TID 0000.0001) %MON forcing_empmr_max            =   7.5892444328929E-05
(PID.TID 0000.0001) %MON forcing_empmr_min            =  -7.7748841439037E-05
(PID.TID 0000.0001) %MON forcing_empmr_mean           =   9.3658500730980E-07
(PID.TID 0000.0001) %MON forcing_empmr_sd             =   2.8071739080641E-05
(PID.TID 0000.0001) %MON forcing_empmr_del2           =   3.5384713842938E-07
(PID.TID 0000.0001) %MON forcing_fu_max               =   2.9076394438744E-01
(PID.TID 0000.0001) %MON forcing_fu_min               =  -1.9913311302662E-01
(PID.TID 0000.0001) %MON forcing_fu_mean              =   1.7087739461946E-02
(PID.TID 0000.0001) %MON forcing_fu_sd                =   9.0639654675392E-02
(PID.TID 0000.0001) %MON forcing_fu_del2              =   6.8057641695719E-04
(PID.TID 0000.0001) %MON forcing_fv_max               =   1.8370781838894E-01
(PID.TID 0000.0001) %MON forcing_fv_min               =  -1.6796026627223E-01
(PID.TID 0000.0001) %MON forcing_fv_mean              =  -6.5641158738086E-03
(PID.TID 0000.0001) %MON forcing_fv_sd                =   4.4559893516707E-02
(PID.TID 0000.0001) %MON forcing_fv_del2              =   4.8000739041033E-04
(PID.TID 0000.0001) %MON trAdv_CFL_u_max              =   5.8603468185531E-02
(PID.TID 0000.0001) %MON trAdv_CFL_v_max              =   3.8451912447043E-02
(PID.TID 0000.0001) %MON trAdv_CFL_w_max              =   1.0068526903961E-01
(PID.TID 0000.0001) %MON advcfl_uvel_max              =   5.0558797407598E-02
(PID.TID 0000.0001) %MON advcfl_vvel_max              =   3.8765007070783E-02
(PID.TID 0000.0001) %MON advcfl_wvel_max              =   7.9912572575468E-02
(PID.TID 0000.0001) %MON advcfl_W_hf_max              =   9.4182674821087E-02
(PID.TID 0000.0001) %MON pe_b_mean                    =   6.0843302906607E-04
(PID.TID 0000.0001) %MON ke_max                       =   2.8179325721709E-02
(PID.TID 0000.0001) %MON ke_mean                      =   3.2976385675786E-04
(PID.TID 0000.0001) %MON ke_vol                       =   1.3226782436723E+18
(PID.TID 0000.0001) %MON vort_r_min                   =  -4.0220097397273E-07
(PID.TID 0000.0001) %MON vort_r_max                   =   6.7572803283946E-07
(PID.TID 0000.0001) %MON vort_a_mean                  =  -2.5274807452385E-05
(PID.TID 0000.0001) %MON vort_a_sd                    =   7.3604760630751E-05
(PID.TID 0000.0001) %MON vort_p_mean                  =  -3.1845655868688E-05
(PID.TID 0000.0001) %MON vort_p_sd                    =   1.3162672541050E-04
(PID.TID 0000.0001) %MON surfExpan_theta_mean         =   9.5412131099072E-07
(PID.TID 0000.0001) %MON surfExpan_salt_mean          =  -3.6969550935530E-07
(PID.TID 0000.0001) // =======================================================
(PID.TID 0000.0001) // End MONITOR dynamic field statistics
(PID.TID 0000.0001) // =======================================================
 EXTERNAL_FIELDS_LOAD,        36 : iP,iLd,i0,i1=    1    2    1    2 ; Wght=  0.3000000000  0.7000000000
 EXTERNAL_FIELDS_LOAD: (fu0,1),fu,fv= -3.5633E-02 -1.4435E-02 -2.0794E-02 -2.9522E-02
 EXTERNAL_FIELDS_LOAD: SST,SSS,Q,E-P= -8.4772E-02  3.4509E+01  2.4807E+02  9.3550E-06
DEBUG_STATS_RL:          Uvel (THERMODYNAMICS)  min= -1.85757204834181E-01
DEBUG_STATS_RL:          Uvel (THERMODYNAMICS)  max=  1.67273552647992E-01
DEBUG_STATS_RL:          Uvel (THERMODYNAMICS) mean=  4.91377134487551E-03
DEBUG_STATS_RL:          Uvel (THERMODYNAMICS) S.D.=  3.04874067046464E-02
DEBUG_STATS_RL:          Vvel (THERMODYNAMICS)  min= -1.13949405573898E-01
DEBUG_STATS_RL:          Vvel (THERMODYNAMICS)  max=  1.99527571324240E-01
DEBUG_STATS_RL:          Vvel (THERMODYNAMICS) mean= -3.14817837057658E-04
DEBUG_STATS_RL:          Vvel (THERMODYNAMICS) S.D.=  1.72068305274237E-02
DEBUG_STATS_RL:          Wvel (THERMODYNAMICS)  min= -1.59972690476101E-04
DEBUG_STATS_RL:          Wvel (THERMODYNAMICS)  max=  1.67370260262921E-04
DEBUG_STATS_RL:          Wvel (THERMODYNAMICS) mean= -3.49294314241825E-07
DEBUG_STATS_RL:          Wvel (THERMODYNAMICS) S.D.=  1.88017776763638E-05
DEBUG_STATS_RL:         Theta (THERMODYNAMICS)  min= -2.00390434747548E+00
DEBUG_STATS_RL:         Theta (THERMODYNAMICS)  max=  3.02646946016373E+01
DEBUG_STATS_RL:         Theta (THERMODYNAMICS) mean=  3.24161201391035E+00
DEBUG_STATS_RL:         Theta (THERMODYNAMICS) S.D.=  5.86075350385271E+00
DEBUG_STATS_RL:          Salt (THERMODYNAMICS)  min=  3.00000000000000E-02
DEBUG_STATS_RL:          Salt (THERMODYNAMICS)  max=  3.74859638410937E+01
DEBUG_STATS_RL:          Salt (THERMODYNAMICS) mean=  1.88748462148089E+01
DEBUG_STATS_RL:          Salt (THERMODYNAMICS) S.D.=  1.73003648759497E+01
DEBUG_STATS_RL:         GtNm1 (THERMODYNAMICS)  min= -3.17994419808024E-06
DEBUG_STATS_RL:         GtNm1 (THERMODYNAMICS)  max=  3.69377021166622E-06
DEBUG_STATS_RL:         GtNm1 (THERMODYNAMICS) mean=  1.12647735365595E-08
DEBUG_STATS_RL:         GtNm1 (THERMODYNAMICS) S.D.=  2.20993092044489E-07
DEBUG_STATS_RL:         GsNm1 (THERMODYNAMICS)  min= -5.62375128978790E-07
DEBUG_STATS_RL:         GsNm1 (THERMODYNAMICS)  max=  3.56326854558625E-07
DEBUG_STATS_RL:         GsNm1 (THERMODYNAMICS) mean= -6.01890803379519E-11
DEBUG_STATS_RL:         GsNm1 (THERMODYNAMICS) S.D.=  2.01917021298883E-08
DEBUG_STATS_RL:                EtaN (DYNAMICS)  min= -1.98093573935314E+00
DEBUG_STATS_RL:                EtaN (DYNAMICS)  max=  1.19590893887980E+00
DEBUG_STATS_RL:                EtaN (DYNAMICS) mean= -1.65001457266721E-01
DEBUG_STATS_RL:                EtaN (DYNAMICS) S.D.=  7.52330272439430E-01
DEBUG_STATS_RL:                Uvel (DYNAMICS)  min= -1.85757204834181E-01
DEBUG_STATS_RL:                Uvel (DYNAMICS)  max=  1.67273552647992E-01
DEBUG_STATS_RL:                Uvel (DYNAMICS) mean=  4.91377134487551E-03
DEBUG_STATS_RL:                Uvel (DYNAMICS) S.D.=  3.04874067046464E-02
DEBUG_STATS_RL:                Vvel (DYNAMICS)  min= -1.13949405573898E-01
DEBUG_STATS_RL:                Vvel (DYNAMICS)  max=  1.99527571324240E-01
DEBUG_STATS_RL:                Vvel (DYNAMICS) mean= -3.14817837057658E-04
DEBUG_STATS_RL:                Vvel (DYNAMICS) S.D.=  1.72068305274237E-02
DEBUG_STATS_RL:                Wvel (DYNAMICS)  min= -1.59972690476101E-04
DEBUG_STATS_RL:                Wvel (DYNAMICS)  max=  1.67370260262921E-04
DEBUG_STATS_RL:                Wvel (DYNAMICS) mean= -3.49294314241825E-07
DEBUG_STATS_RL:                Wvel (DYNAMICS) S.D.=  1.88017776763638E-05
DEBUG_STATS_RL:               Theta (DYNAMICS)  min= -2.00390434747548E+00
DEBUG_STATS_RL:               Theta (DYNAMICS)  max=  3.02646946016373E+01
DEBUG_STATS_RL:               Theta (DYNAMICS) mean=  3.24161201391035E+00
DEBUG_STATS_RL:               Theta (DYNAMICS) S.D.=  5.86075350385271E+00
DEBUG_STATS_RL:                Salt (DYNAMICS)  min=  3.00000000000000E-02
DEBUG_STATS_RL:                Salt (DYNAMICS)  max=  3.74859638410937E+01
DEBUG_STATS_RL:                Salt (DYNAMICS) mean=  1.88748462148089E+01
DEBUG_STATS_RL:                Salt (DYNAMICS) S.D.=  1.73003648759497E+01
DEBUG_STATS_RL:                  Gu (DYNAMICS)  min= -1.84304267087473E-01
DEBUG_STATS_RL:                  Gu (DYNAMICS)  max=  1.42614614473935E-01
DEBUG_STATS_RL:                  Gu (DYNAMICS) mean=  4.46614623535279E-03
DEBUG_STATS_RL:                  Gu (DYNAMICS) S.D.=  3.10312997483365E-02
DEBUG_STATS_RL:                  Gv (DYNAMICS)  min= -1.10768420694446E-01
DEBUG_STATS_RL:                  Gv (DYNAMICS)  max=  2.10046530936581E-01
DEBUG_STATS_RL:                  Gv (DYNAMICS) mean=  2.14248375573746E-03
DEBUG_STATS_RL:                  Gv (DYNAMICS) S.D.=  1.71819050011057E-02
DEBUG_STATS_RL:               GuNm1 (DYNAMICS)  min= -9.36283878355296E-06
DEBUG_STATS_RL:               GuNm1 (DYNAMICS)  max=  8.20104083210623E-06
DEBUG_STATS_RL:               GuNm1 (DYNAMICS) mean= -2.24564902741184E-08
DEBUG_STATS_RL:               GuNm1 (DYNAMICS) S.D.=  1.19777109519063E-06
DEBUG_STATS_RL:               GvNm1 (DYNAMICS)  min= -1.09523639176552E-05
DEBUG_STATS_RL:               GvNm1 (DYNAMICS)  max=  1.64474906071359E-05
DEBUG_STATS_RL:               GvNm1 (DYNAMICS) mean=  7.51597405669814E-07
DEBUG_STATS_RL:               GvNm1 (DYNAMICS) S.D.=  2.63986149154890E-06
DEBUG_STATS_RL:               GtNm1 (DYNAMICS)  min= -3.17994419808024E-06
DEBUG_STATS_RL:               GtNm1 (DYNAMICS)  max=  3.69377021166622E-06
DEBUG_STATS_RL:               GtNm1 (DYNAMICS) mean=  1.12647735365595E-08
DEBUG_STATS_RL:               GtNm1 (DYNAMICS) S.D.=  2.20993092044489E-07
DEBUG_STATS_RL:               GsNm1 (DYNAMICS)  min= -5.62375128978790E-07
DEBUG_STATS_RL:               GsNm1 (DYNAMICS)  max=  3.56326854558625E-07
DEBUG_STATS_RL:               GsNm1 (DYNAMICS) mean= -6.01890803379519E-11
DEBUG_STATS_RL:               GsNm1 (DYNAMICS) S.D.=  2.01917021298883E-08
DEBUG_STATS_RL:    cg2d_b (SOLVE_FOR_PRESSURE)  min= -2.23130550206862E+04
DEBUG_STATS_RL:    cg2d_b (SOLVE_FOR_PRESSURE)  max=  2.02363754170598E+04
DEBUG_STATS_RL:    cg2d_b (SOLVE_FOR_PRESSURE) mean=  2.65097451595728E+00
DEBUG_STATS_RL:    cg2d_b (SOLVE_FOR_PRESSURE) S.D.=  3.97058558646404E+03
 cg2d: Sum(rhs),rhsMax =   2.75041046542120E-01  1.46558119530589E+00
(PID.TID 0000.0001)  cg2d: iter=     1 ; resid.=  4.25108173580147E-01
(PID.TID 0000.0001)  cg2d: iter=     2 ; resid.=  3.70508901009908E-01
(PID.TID 0000.0001)  cg2d: iter=     3 ; resid.=  3.61452117443359E-01
(PID.TID 0000.0001)  cg2d: iter=     4 ; resid.=  3.43615024243255E-01
(PID.TID 0000.0001)  cg2d: iter=     5 ; resid.=  3.20715923456185E-01
(PID.TID 0000.0001)  cg2d: iter=     6 ; resid.=  2.70175455604967E-01
(PID.TID 0000.0001)  cg2d: iter=     7 ; resid.=  2.18868201167355E-01
(PID.TID 0000.0001)  cg2d: iter=     8 ; resid.=  1.69221439923890E-01
(PID.TID 0000.0001)  cg2d: iter=     9 ; resid.=  1.32665016960688E-01
(PID.TID 0000.0001)  cg2d: iter=    10 ; resid.=  1.12165827069202E-01
(PID.TID 0000.0001)  cg2d: iter=    11 ; resid.=  9.93520870283877E-02
(PID.TID 0000.0001)  cg2d: iter=    12 ; resid.=  8.38126765774425E-02
(PID.TID 0000.0001)  cg2d: iter=    13 ; resid.=  6.55639330306588E-02
(PID.TID 0000.0001)  cg2d: iter=    14 ; resid.=  5.54391321961508E-02
(PID.TID 0000.0001)  cg2d: iter=    15 ; resid.=  4.35348267914341E-02
(PID.TID 0000.0001)  cg2d: iter=    16 ; resid.=  3.94997181055907E-02
(PID.TID 0000.0001)  cg2d: iter=    17 ; resid.=  3.43828854981643E-02
(PID.TID 0000.0001)  cg2d: iter=    18 ; resid.=  3.01241025626825E-02
(PID.TID 0000.0001)  cg2d: iter=    19 ; resid.=  2.25721677213846E-02
(PID.TID 0000.0001)  cg2d: iter=    20 ; resid.=  1.81272392209790E-02
(PID.TID 0000.0001)  cg2d: iter=    21 ; resid.=  1.48511475549994E-02
(PID.TID 0000.0001)  cg2d: iter=    22 ; resid.=  1.27854575228771E-02
(PID.TID 0000.0001)  cg2d: iter=    23 ; resid.=  1.12422957999080E-02
(PID.TID 0000.0001)  cg2d: iter=    24 ; resid.=  1.02422307625358E-02
(PID.TID 0000.0001)  cg2d: iter=    25 ; resid.=  7.71911885024105E-03
(PID.TID 0000.0001)  cg2d: iter=    26 ; resid.=  6.30177968245260E-03
(PID.TID 0000.0001)  cg2d: iter=    27 ; resid.=  4.90729605518555E-03
(PID.TID 0000.0001)  cg2d: iter=    28 ; resid.=  3.94563166659441E-03
(PID.TID 0000.0001)  cg2d: iter=    29 ; resid.=  3.06713415642581E-03
(PID.TID 0000.0001)  cg2d: iter=    30 ; resid.=  2.66159127014475E-03
(PID.TID 0000.0001)  cg2d: iter=    31 ; resid.=  2.19595388775404E-03
(PID.TID 0000.0001)  cg2d: iter=    32 ; resid.=  1.80485453257234E-03
(PID.TID 0000.0001)  cg2d: iter=    33 ; resid.=  1.59016732896843E-03
(PID.TID 0000.0001)  cg2d: iter=    34 ; resid.=  1.35271846418908E-03
(PID.TID 0000.0001)  cg2d: iter=    35 ; resid.=  1.13481193677549E-03
(PID.TID 0000.0001)  cg2d: iter=    36 ; resid.=  9.72273095420667E-04
(PID.TID 0000.0001)  cg2d: iter=    37 ; resid.=  8.34837703169598E-04
(PID.TID 0000.0001)  cg2d: iter=    38 ; resid.=  7.59351030450145E-04
(PID.TID 0000.0001)  cg2d: iter=    39 ; resid.=  6.56355593840103E-04
(PID.TID 0000.0001)  cg2d: iter=    40 ; resid.=  5.50922336050987E-04
(PID.TID 0000.0001)  cg2d: iter=    41 ; resid.=  4.65252714486854E-04
(PID.TID 0000.0001)  cg2d: iter=    42 ; resid.=  4.01920047096610E-04
(PID.TID 0000.0001)  cg2d: iter=    43 ; resid.=  3.29822059941231E-04
(PID.TID 0000.0001)  cg2d: iter=    44 ; resid.=  2.59149583848216E-04
(PID.TID 0000.0001)  cg2d: iter=    45 ; resid.=  1.94486318795163E-04
(PID.TID 0000.0001)  cg2d: iter=    46 ; resid.=  1.60376471859606E-04
(PID.TID 0000.0001)  cg2d: iter=    47 ; resid.=  1.39673185785682E-04
(PID.TID 0000.0001)  cg2d: iter=    48 ; resid.=  1.11457957214118E-04
(PID.TID 0000.0001)  cg2d: iter=    49 ; resid.=  9.51040844545258E-05
(PID.TID 0000.0001)  cg2d: iter=    50 ; resid.=  8.73425554178802E-05
(PID.TID 0000.0001)  cg2d: iter=    51 ; resid.=  7.43384728475207E-05
(PID.TID 0000.0001)  cg2d: iter=    52 ; resid.=  5.98263730619141E-05
(PID.TID 0000.0001)  cg2d: iter=    53 ; resid.=  5.09228103566739E-05
(PID.TID 0000.0001)  cg2d: iter=    54 ; resid.=  4.02929063387592E-05
(PID.TID 0000.0001)  cg2d: iter=    55 ; resid.=  3.43044973776215E-05
(PID.TID 0000.0001)  cg2d: iter=    56 ; resid.=  2.86626846558455E-05
(PID.TID 0000.0001)  cg2d: iter=    57 ; resid.=  2.38010443101957E-05
(PID.TID 0000.0001)  cg2d: iter=    58 ; resid.=  1.91450903910720E-05
(PID.TID 0000.0001)  cg2d: iter=    59 ; resid.=  1.58683867838521E-05
(PID.TID 0000.0001)  cg2d: iter=    60 ; resid.=  1.24983805877500E-05
(PID.TID 0000.0001)  cg2d: iter=    61 ; resid.=  1.08266849259128E-05
(PID.TID 0000.0001)  cg2d: iter=    62 ; resid.=  9.24883106517522E-06
(PID.TID 0000.0001)  cg2d: iter=    63 ; resid.=  7.61034587499472E-06
(PID.TID 0000.0001)  cg2d: iter=    64 ; resid.=  6.06125214755559E-06
(PID.TID 0000.0001)  cg2d: iter=    65 ; resid.=  4.83468784461967E-06
(PID.TID 0000.0001)  cg2d: iter=    66 ; resid.=  4.26002881586947E-06
(PID.TID 0000.0001)  cg2d: iter=    67 ; resid.=  3.61267110759717E-06
(PID.TID 0000.0001)  cg2d: iter=    68 ; resid.=  3.02537313138674E-06
(PID.TID 0000.0001)  cg2d: iter=    69 ; resid.=  2.36030037662961E-06
(PID.TID 0000.0001)  cg2d: iter=    70 ; resid.=  1.85665469016685E-06
(PID.TID 0000.0001)  cg2d: iter=    71 ; resid.=  1.57393798358485E-06
(PID.TID 0000.0001)  cg2d: iter=    72 ; resid.=  1.42426709855411E-06
(PID.TID 0000.0001)  cg2d: iter=    73 ; resid.=  1.26387825689545E-06
(PID.TID 0000.0001)  cg2d: iter=    74 ; resid.=  1.06694089698883E-06
(PID.TID 0000.0001)  cg2d: iter=    75 ; resid.=  8.56619919647135E-07
(PID.TID 0000.0001)  cg2d: iter=    76 ; resid.=  7.23561260699942E-07
(PID.TID 0000.0001)  cg2d: iter=    77 ; resid.=  5.62362262579960E-07
(PID.TID 0000.0001)  cg2d: iter=    78 ; resid.=  4.42715653135594E-07
(PID.TID 0000.0001)  cg2d: iter=    79 ; resid.=  3.36219464683435E-07
(PID.TID 0000.0001)  cg2d: iter=    80 ; resid.=  2.43330512850797E-07
(PID.TID 0000.0001)  cg2d: iter=    81 ; resid.=  1.85184480217680E-07
(PID.TID 0000.0001)  cg2d: iter=    82 ; resid.=  1.43031317874289E-07
(PID.TID 0000.0001)  cg2d: iter=    83 ; resid.=  1.02086319683263E-07
(PID.TID 0000.0001)  cg2d: iter=    84 ; resid.=  7.61107549442627E-08
(PID.TID 0000.0001)  cg2d: iter=    85 ; resid.=  5.59882135233768E-08
(PID.TID 0000.0001)  cg2d: iter=    86 ; resid.=  4.50066605697711E-08
(PID.TID 0000.0001)  cg2d: iter=    87 ; resid.=  3.79090580589210E-08
(PID.TID 0000.0001)  cg2d: iter=    88 ; resid.=  3.06553689570447E-08
(PID.TID 0000.0001)  cg2d: iter=    89 ; resid.=  2.49238840912981E-08
(PID.TID 0000.0001)  cg2d: iter=    90 ; resid.=  1.94221563808226E-08
(PID.TID 0000.0001)  cg2d: iter=    91 ; resid.=  1.39908057094566E-08
(PID.TID 0000.0001)  cg2d: iter=    92 ; resid.=  1.05244428850044E-08
(PID.TID 0000.0001)  cg2d: iter=    93 ; resid.=  8.45918018431995E-09
(PID.TID 0000.0001)  cg2d: iter=    94 ; resid.=  6.74717678967164E-09
(PID.TID 0000.0001)  cg2d: iter=    95 ; resid.=  5.74246289903145E-09
(PID.TID 0000.0001)  cg2d: iter=    96 ; resid.=  4.31709290933927E-09
(PID.TID 0000.0001)  cg2d: iter=    97 ; resid.=  3.28484932824954E-09
(PID.TID 0000.0001)  cg2d: iter=    98 ; resid.=  2.65746327224942E-09
(PID.TID 0000.0001)  cg2d: iter=    99 ; resid.=  2.28550747886961E-09
(PID.TID 0000.0001)  cg2d: iter=   100 ; resid.=  1.94723372558367E-09
(PID.TID 0000.0001)  cg2d: iter=   101 ; resid.=  1.61842151117175E-09
(PID.TID 0000.0001)  cg2d: iter=   102 ; resid.=  1.28649805892198E-09
(PID.TID 0000.0001)  cg2d: iter=   103 ; resid.=  1.04577857894048E-09
(PID.TID 0000.0001)  cg2d: iter=   104 ; resid.=  8.64635291316214E-10
(PID.TID 0000.0001)  cg2d: iter=   105 ; resid.=  7.24761518035916E-10
(PID.TID 0000.0001)  cg2d: iter=   106 ; resid.=  6.53798643107063E-10
(PID.TID 0000.0001)  cg2d: iter=   107 ; resid.=  4.97712589239538E-10
(PID.TID 0000.0001)  cg2d: iter=   108 ; resid.=  3.84031133257699E-10
(PID.TID 0000.0001)  cg2d: iter=   109 ; resid.=  2.84294051561677E-10
(PID.TID 0000.0001)  cg2d: iter=   110 ; resid.=  2.22635063112932E-10
(PID.TID 0000.0001)  cg2d: iter=   111 ; resid.=  1.77024851356902E-10
(PID.TID 0000.0001)  cg2d: iter=   112 ; resid.=  1.23167538433331E-10
(PID.TID 0000.0001)  cg2d: iter=   113 ; resid.=  9.13712535076794E-11
(PID.TID 0000.0001)  cg2d: iter=   114 ; resid.=  7.22530398282932E-11
(PID.TID 0000.0001)  cg2d: iter=   115 ; resid.=  5.32494443905633E-11
(PID.TID 0000.0001)  cg2d: iter=   116 ; resid.=  4.15730713386372E-11
(PID.TID 0000.0001)  cg2d: iter=   117 ; resid.=  3.59367298430200E-11
(PID.TID 0000.0001)  cg2d: iter=   118 ; resid.=  2.92313600681672E-11
(PID.TID 0000.0001)  cg2d: iter=   119 ; resid.=  2.14664702612199E-11
(PID.TID 0000.0001)  cg2d: iter=   120 ; resid.=  1.59440635941594E-11
(PID.TID 0000.0001)  cg2d: iter=   121 ; resid.=  1.28804670028101E-11
(PID.TID 0000.0001)  cg2d: iter=   122 ; resid.=  9.16953889396900E-12
(PID.TID 0000.0001)  cg2d: iter=   123 ; resid.=  6.37548091533266E-12
(PID.TID 0000.0001)  cg2d: iter=   124 ; resid.=  4.31654104697747E-12
(PID.TID 0000.0001)  cg2d: iter=   125 ; resid.=  3.11224799600902E-12
(PID.TID 0000.0001)  cg2d: iter=   126 ; resid.=  2.18755392671400E-12
(PID.TID 0000.0001)  cg2d: iter=   127 ; resid.=  1.44797709835611E-12
(PID.TID 0000.0001)  cg2d: iter=   128 ; resid.=  1.04870883670246E-12
(PID.TID 0000.0001)  cg2d: iter=   129 ; resid.=  7.74844334093358E-13
(PID.TID 0000.0001)  cg2d: iter=   130 ; resid.=  6.05469663081709E-13
(PID.TID 0000.0001)  cg2d: iter=   131 ; resid.=  4.54205201019425E-13
(PID.TID 0000.0001)  cg2d: iter=   132 ; resid.=  3.43611642196823E-13
(PID.TID 0000.0001)  cg2d: iter=   133 ; resid.=  2.70935034724082E-13
(PID.TID 0000.0001)  cg2d: iter=   134 ; resid.=  2.10940795375104E-13
(PID.TID 0000.0001)  cg2d: iter=   135 ; resid.=  1.60488238510315E-13
(PID.TID 0000.0001)  cg2d: iter=   136 ; resid.=  1.07537705203088E-13
(PID.TID 0000.0001)  cg2d: iter=   137 ; resid.=  8.88634477791785E-14
DEBUG_STATS_RL:    cg2d_x (SOLVE_FOR_PRESSURE)  min= -1.93332263266625E+01
DEBUG_STATS_RL:    cg2d_x (SOLVE_FOR_PRESSURE)  max=  1.13489559903250E+01
DEBUG_STATS_RL:    cg2d_x (SOLVE_FOR_PRESSURE) mean= -1.67435958040806E+00
DEBUG_STATS_RL:    cg2d_x (SOLVE_FOR_PRESSURE) S.D.=  7.72468946179391E+00
(PID.TID 0000.0001)      cg2d_init_res =   5.84791480481677E-01
(PID.TID 0000.0001)      cg2d_iters(min,last) =      -1     137
(PID.TID 0000.0001)      cg2d_last_res =   8.88634477791785E-14
(PID.TID 0000.0001) // =======================================================
(PID.TID 0000.0001) // Begin MONITOR dynamic field statistics
(PID.TID 0000.0001) // =======================================================
(PID.TID 0000.0001) %MON time_tsnumber                =                    37
(PID.TID 0000.0001) %MON time_secondsf                =   3.1968000000000E+06
(PID.TID 0000.0001) %MON dynstat_eta_max              =   1.1568762477394E+00
(PID.TID 0000.0001) %MON dynstat_eta_min              =  -1.9707672096496E+00
(PID.TID 0000.0001) %MON dynstat_eta_mean             =  -2.7659631974135E-03
(PID.TID 0000.0001) %MON dynstat_eta_sd               =   7.2805784569598E-01
(PID.TID 0000.0001) %MON dynstat_eta_del2             =   2.3168723745398E-03
(PID.TID 0000.0001) %MON dynstat_uvel_max             =   1.4701907697750E-01
(PID.TID 0000.0001) %MON dynstat_uvel_min             =  -1.8266027657501E-01
(PID.TID 0000.0001) %MON dynstat_uvel_mean            =   2.8358160849832E-03
(PID.TID 0000.0001) %MON dynstat_uvel_sd              =   2.3483784522504E-02
(PID.TID 0000.0001) %MON dynstat_uvel_del2            =   1.1302757223717E-04
(PID.TID 0000.0001) %MON dynstat_vvel_max             =   2.0637816820741E-01
(PID.TID 0000.0001) %MON dynstat_vvel_min             =  -1.1505684611104E-01
(PID.TID 0000.0001) %MON dynstat_vvel_mean            =  -2.5814372171521E-04
(PID.TID 0000.0001) %MON dynstat_vvel_sd              =   1.2754175554308E-02
(PID.TID 0000.0001) %MON dynstat_vvel_del2            =   1.0490301517889E-04
(PID.TID 0000.0001) %MON dynstat_wvel_max             =   1.4965040794530E-04
(PID.TID 0000.0001) %MON dynstat_wvel_min             =  -1.5058751089378E-04
(PID.TID 0000.0001) %MON dynstat_wvel_mean            =  -5.6585388753037E-22
(PID.TID 0000.0001) %MON dynstat_wvel_sd              =   2.1023009422859E-05
(PID.TID 0000.0001) %MON dynstat_wvel_del2            =   2.1810847226383E-07
(PID.TID 0000.0001) %MON dynstat_theta_max            =   3.0264694601637E+01
(PID.TID 0000.0001) %MON dynstat_theta_min            =  -2.0039043474755E+00
(PID.TID 0000.0001) %MON dynstat_theta_mean           =   3.6514378523337E+00
(PID.TID 0000.0001) %MON dynstat_theta_sd             =   4.4183695876500E+00
(PID.TID 0000.0001) %MON dynstat_theta_del2           =   4.8191828911051E-03
(PID.TID 0000.0001) %MON dynstat_salt_max             =   3.7485963841094E+01
(PID.TID 0000.0001) %MON dynstat_salt_min             =   2.9845727151906E+01
(PID.TID 0000.0001) %MON dynstat_salt_mean            =   3.4748011848584E+01
(PID.TID 0000.0001) %MON dynstat_salt_sd              =   2.9634732190944E-01
(PID.TID 0000.0001) %MON dynstat_salt_del2            =   9.9102799041422E-04
(PID.TID 0000.0001) %MON dynstat_sst_max              =   3.0264694601637E+01
(PID.TID 0000.0001) %MON dynstat_sst_min              =  -2.0039043474755E+00
(PID.TID 0000.0001) %MON dynstat_sst_mean             =   1.8829173512617E+01
(PID.TID 0000.0001) %MON dynstat_sst_sd               =   9.0233559044920E+00
(PID.TID 0000.0001) %MON dynstat_sst_del2             =   2.7021865154627E-02
(PID.TID 0000.0001) %MON dynstat_sss_max              =   3.7460807647784E+01
(PID.TID 0000.0001) %MON dynstat_sss_min              =   2.9845727151906E+01
(PID.TID 0000.0001) %MON dynstat_sss_mean             =   3.4874692506208E+01
(PID.TID 0000.0001) %MON dynstat_sss_sd               =   9.7646404505680E-01
(PID.TID 0000.0001) %MON dynstat_sss_del2             =   7.8876990189648E-03
(PID.TID 0000.0001) %MON forcing_qnet_max             =   3.7191279602051E+02
(PID.TID 0000.0001) %MON forcing_qnet_min             =  -1.7498964233398E+02
(PID.TID 0000.0001) %MON forcing_qnet_mean            =  -1.4729433485573E+01
(PID.TID 0000.0001) %MON forcing_qnet_sd              =   8.8124246964212E+01
(PID.TID 0000.0001) %MON forcing_qnet_del2            =   9.6017907876668E-01
(PID.TID 0000.0001) %MON forcing_qsw_max              =   0.0000000000000E+00
(PID.TID 0000.0001) %MON forcing_qsw_min              =   0.0000000000000E+00
(PID.TID 0000.0001) %MON forcing_qsw_mean             =   0.0000000000000E+00
(PID.TID 0000.0001) %MON forcing_qsw_sd               =   0.0000000000000E+00
(PID.TID 0000.0001) %MON forcing_qsw_del2             =   0.0000000000000E+00
(PID.TID 0000.0001) %MON forcing_empmr_max            =   7.5578354596928E-05
(PID.TID 0000.0001) %MON forcing_empmr_min            =  -7.7828485700593E-05
(PID.TID 0000.0001) %MON forcing_empmr_mean           =   9.3726740456976E-07
(PID.TID 0000.0001) %MON forcing_empmr_sd             =   2.8054368786233E-05
(PID.TID 0000.0001) %MON forcing_empmr_del2           =   3.5379338060375E-07
(PID.TID 0000.0001) %MON forcing_fu_max               =   2.9215110242367E-01
(PID.TID 0000.0001) %MON forcing_fu_min               =  -2.0079303681850E-01
(PID.TID 0000.0001) %MON forcing_fu_mean              =   1.7142039677415E-02
(PID.TID 0000.0001) %MON forcing_fu_sd                =   9.0801562846002E-02
(PID.TID 0000.0001) %MON forcing_fu_del2              =   6.8477442505628E-04
(PID.TID 0000.0001) %MON forcing_fv_max               =   1.8260629773140E-01
(PID.TID 0000.0001) %MON forcing_fv_min               =  -1.7113216519356E-01
(PID.TID 0000.0001) %MON forcing_fv_mean              =  -6.6293767805238E-03
(PID.TID 0000.0001) %MON forcing_fv_sd                =   4.4536887248365E-02
(PID.TID 0000.0001) %MON forcing_fv_del2              =   4.8427363307602E-04
(PID.TID 0000.0001) %MON trAdv_CFL_u_max              =   5.0569066260954E-02
(PID.TID 0000.0001) %MON trAdv_CFL_v_max              =   4.0611717852847E-02
(PID.TID 0000.0001) %MON trAdv_CFL_w_max              =   9.4182674821087E-02
(PID.TID 0000.0001) %MON advcfl_uvel_max              =   4.6440703211329E-02
(PID.TID 0000.0001) %MON advcfl_vvel_max              =   4.0095968174819E-02
(PID.TID 0000.0001) %MON advcfl_wvel_max              =   7.2379189103151E-02
(PID.TID 0000.0001) %MON advcfl_W_hf_max              =   8.5304044300142E-02
(PID.TID 0000.0001) %MON pe_b_mean                    =   6.7829597646420E-04
(PID.TID 0000.0001) %MON ke_max                       =   2.6191596035570E-02
(PID.TID 0000.0001) %MON ke_mean                      =   3.2726210006994E-04
(PID.TID 0000.0001) %MON ke_vol                       =   1.3226782436723E+18
(PID.TID 0000.0001) %MON vort_r_min                   =  -4.3023533432125E-07
(PID.TID 0000.0001) %MON vort_r_max                   =   6.4681310575637E-07
(PID.TID 0000.0001) %MON vort_a_mean                  =  -2.5274807156037E-05
(PID.TID 0000.0001) %MON vort_a_sd                    =   7.3604720512938E-05
(PID.TID 0000.0001) %MON vort_p_mean                  =  -3.1845655495296E-05
(PID.TID 0000.0001) %MON vort_p_sd                    =   1.3162616541512E-04
(PID.TID 0000.0001) %MON surfExpan_theta_mean         =   9.4009991231053E-07
(PID.TID 0000.0001) %MON surfExpan_salt_mean          =  -3.3086966966722E-07
(PID.TID 0000.0001) // =======================================================
(PID.TID 0000.0001) // End MONITOR dynamic field statistics
(PID.TID 0000.0001) // =======================================================
 EXTERNAL_FIELDS_LOAD,        37 : iP,iLd,i0,i1=    1    2    1    2 ; Wght=  0.2666666667  0.7333333333
 EXTERNAL_FIELDS_LOAD: (fu0,1),fu,fv= -3.5633E-02 -1.4435E-02 -2.0088E-02 -2.8201E-02
 EXTERNAL_FIELDS_LOAD: SST,SSS,Q,E-P= -1.3445E-01  3.4499E+01  2.4722E+02  9.2464E-06
DEBUG_STATS_RL:          Uvel (THERMODYNAMICS)  min= -1.82660276575008E-01
DEBUG_STATS_RL:          Uvel (THERMODYNAMICS)  max=  1.47019076977502E-01
DEBUG_STATS_RL:          Uvel (THERMODYNAMICS) mean=  4.46850639877766E-03
DEBUG_STATS_RL:          Uvel (THERMODYNAMICS) S.D.=  3.05356373136552E-02
DEBUG_STATS_RL:          Vvel (THERMODYNAMICS)  min= -1.15056846111039E-01
DEBUG_STATS_RL:          Vvel (THERMODYNAMICS)  max=  2.06378168207414E-01
DEBUG_STATS_RL:          Vvel (THERMODYNAMICS) mean= -2.41980633579359E-04
DEBUG_STATS_RL:          Vvel (THERMODYNAMICS) S.D.=  1.74110226169054E-02
DEBUG_STATS_RL:          Wvel (THERMODYNAMICS)  min= -1.50587510893778E-04
DEBUG_STATS_RL:          Wvel (THERMODYNAMICS)  max=  1.49650407945300E-04
DEBUG_STATS_RL:          Wvel (THERMODYNAMICS) mean= -3.55994409227826E-07
DEBUG_STATS_RL:          Wvel (THERMODYNAMICS) S.D.=  1.85083169992122E-05
DEBUG_STATS_RL:         Theta (THERMODYNAMICS)  min= -2.00327641795629E+00
DEBUG_STATS_RL:         Theta (THERMODYNAMICS)  max=  3.02576310517252E+01
DEBUG_STATS_RL:         Theta (THERMODYNAMICS) mean=  3.24215865292196E+00
DEBUG_STATS_RL:         Theta (THERMODYNAMICS) S.D.=  5.86136907107392E+00
DEBUG_STATS_RL:          Salt (THERMODYNAMICS)  min=  3.00000000000000E-02
DEBUG_STATS_RL:          Salt (THERMODYNAMICS)  max=  3.74866045149115E+01
DEBUG_STATS_RL:          Salt (THERMODYNAMICS) mean=  1.88748509340801E+01
DEBUG_STATS_RL:          Salt (THERMODYNAMICS) S.D.=  1.73003702392342E+01
DEBUG_STATS_RL:         GtNm1 (THERMODYNAMICS)  min= -3.84439068847966E-06
DEBUG_STATS_RL:         GtNm1 (THERMODYNAMICS)  max=  3.62857730446509E-06
DEBUG_STATS_RL:         GtNm1 (THERMODYNAMICS) mean=  1.17147836449001E-08
DEBUG_STATS_RL:         GtNm1 (THERMODYNAMICS) S.D.=  2.20186932641723E-07
DEBUG_STATS_RL:         GsNm1 (THERMODYNAMICS)  min= -5.36290210426619E-07
DEBUG_STATS_RL:         GsNm1 (THERMODYNAMICS)  max=  3.83499243352271E-07
DEBUG_STATS_RL:         GsNm1 (THERMODYNAMICS) mean=  1.09108704085577E-11
DEBUG_STATS_RL:         GsNm1 (THERMODYNAMICS) S.D.=  2.02028048412907E-08
DEBUG_STATS_RL:                EtaN (DYNAMICS)  min= -1.97076720964958E+00
DEBUG_STATS_RL:                EtaN (DYNAMICS)  max=  1.15687624773944E+00
DEBUG_STATS_RL:                EtaN (DYNAMICS) mean= -1.70678856310710E-01
DEBUG_STATS_RL:                EtaN (DYNAMICS) S.D.=  7.87430118429554E-01
DEBUG_STATS_RL:                Uvel (DYNAMICS)  min= -1.82660276575008E-01
DEBUG_STATS_RL:                Uvel (DYNAMICS)  max=  1.47019076977502E-01
DEBUG_STATS_RL:                Uvel (DYNAMICS) mean=  4.46850639877766E-03
DEBUG_STATS_RL:                Uvel (DYNAMICS) S.D.=  3.05356373136552E-02
DEBUG_STATS_RL:                Vvel (DYNAMICS)  min= -1.15056846111039E-01
DEBUG_STATS_RL:                Vvel (DYNAMICS)  max=  2.06378168207414E-01
DEBUG_STATS_RL:                Vvel (DYNAMICS) mean= -2.41980633579359E-04
DEBUG_STATS_RL:                Vvel (DYNAMICS) S.D.=  1.74110226169054E-02
DEBUG_STATS_RL:                Wvel (DYNAMICS)  min= -1.50587510893778E-04
DEBUG_STATS_RL:                Wvel (DYNAMICS)  max=  1.49650407945300E-04
DEBUG_STATS_RL:                Wvel (DYNAMICS) mean= -3.55994409227826E-07
DEBUG_STATS_RL:                Wvel (DYNAMICS) S.D.=  1.85083169992122E-05
DEBUG_STATS_RL:               Theta (DYNAMICS)  min= -2.00327641795629E+00
DEBUG_STATS_RL:               Theta (DYNAMICS)  max=  3.02576310517252E+01
DEBUG_STATS_RL:               Theta (DYNAMICS) mean=  3.24215865292196E+00
DEBUG_STATS_RL:               Theta (DYNAMICS) S.D.=  5.86136907107392E+00
DEBUG_STATS_RL:                Salt (DYNAMICS)  min=  3.00000000000000E-02
DEBUG_STATS_RL:                Salt (DYNAMICS)  max=  3.74866045149115E+01
DEBUG_STATS_RL:                Salt (DYNAMICS) mean=  1.88748509340801E+01
DEBUG_STATS_RL:                Salt (DYNAMICS) S.D.=  1.73003702392342E+01
DEBUG_STATS_RL:                  Gu (DYNAMICS)  min= -1.80555759080045E-01
DEBUG_STATS_RL:                  Gu (DYNAMICS)  max=  1.46193396859163E-01
DEBUG_STATS_RL:                  Gu (DYNAMICS) mean=  3.92773356885621E-03
DEBUG_STATS_RL:                  Gu (DYNAMICS) S.D.=  3.10571821890346E-02
DEBUG_STATS_RL:                  Gv (DYNAMICS)  min= -1.11688994561619E-01
DEBUG_STATS_RL:                  Gv (DYNAMICS)  max=  2.11894869855374E-01
DEBUG_STATS_RL:                  Gv (DYNAMICS) mean=  2.18944268714305E-03
DEBUG_STATS_RL:                  Gv (DYNAMICS) S.D.=  1.73499487421516E-02
DEBUG_STATS_RL:               GuNm1 (DYNAMICS)  min= -9.47736689213147E-06
DEBUG_STATS_RL:               GuNm1 (DYNAMICS)  max=  8.28836534127937E-06
DEBUG_STATS_RL:               GuNm1 (DYNAMICS) mean= -2.16996497900475E-08
DEBUG_STATS_RL:               GuNm1 (DYNAMICS) S.D.=  1.19428436540301E-06
DEBUG_STATS_RL:               GvNm1 (DYNAMICS)  min= -1.08779900169924E-05
DEBUG_STATS_RL:               GvNm1 (DYNAMICS)  max=  1.64187467974823E-05
DEBUG_STATS_RL:               GvNm1 (DYNAMICS) mean=  7.49303274146541E-07
DEBUG_STATS_RL:               GvNm1 (DYNAMICS) S.D.=  2.63267320757679E-06
DEBUG_STATS_RL:               GtNm1 (DYNAMICS)  min= -3.84439068847966E-06
DEBUG_STATS_RL:               GtNm1 (DYNAMICS)  max=  3.62857730446509E-06
DEBUG_STATS_RL:               GtNm1 (DYNAMICS) mean=  1.17147836449001E-08
DEBUG_STATS_RL:               GtNm1 (DYNAMICS) S.D.=  2.20186932641723E-07
DEBUG_STATS_RL:               GsNm1 (DYNAMICS)  min= -5.36290210426619E-07
DEBUG_STATS_RL:               GsNm1 (DYNAMICS)  max=  3.83499243352271E-07
DEBUG_STATS_RL:               GsNm1 (DYNAMICS) mean=  1.09108704085577E-11
DEBUG_STATS_RL:               GsNm1 (DYNAMICS) S.D.=  2.02028048412907E-08
DEBUG_STATS_RL:    cg2d_b (SOLVE_FOR_PRESSURE)  min= -2.39773420827008E+04
DEBUG_STATS_RL:    cg2d_b (SOLVE_FOR_PRESSURE)  max=  1.97960194923179E+04
DEBUG_STATS_RL:    cg2d_b (SOLVE_FOR_PRESSURE) mean=  2.72601785405604E+00
DEBUG_STATS_RL:    cg2d_b (SOLVE_FOR_PRESSURE) S.D.=  3.95523453961710E+03
 cg2d: Sum(rhs),rhsMax =   2.63195616527263E-01  1.57489602554398E+00
(PID.TID 0000.0001)  cg2d: iter=     1 ; resid.=  3.85455394458927E-01
(PID.TID 0000.0001)  cg2d: iter=     2 ; resid.=  3.30250890359871E-01
(PID.TID 0000.0001)  cg2d: iter=     3 ; resid.=  3.24289386172008E-01
(PID.TID 0000.0001)  cg2d: iter=     4 ; resid.=  3.01909011553829E-01
(PID.TID 0000.0001)  cg2d: iter=     5 ; resid.=  2.74530967793910E-01
(PID.TID 0000.0001)  cg2d: iter=     6 ; resid.=  2.30389664564333E-01
(PID.TID 0000.0001)  cg2d: iter=     7 ; resid.=  1.88662443795703E-01
(PID.TID 0000.0001)  cg2d: iter=     8 ; resid.=  1.51056940659649E-01
(PID.TID 0000.0001)  cg2d: iter=     9 ; resid.=  1.22387008778043E-01
(PID.TID 0000.0001)  cg2d: iter=    10 ; resid.=  1.03170855890514E-01
(PID.TID 0000.0001)  cg2d: iter=    11 ; resid.=  9.22498745204027E-02
(PID.TID 0000.0001)  cg2d: iter=    12 ; resid.=  7.68616968883924E-02
(PID.TID 0000.0001)  cg2d: iter=    13 ; resid.=  5.96783139260758E-02
(PID.TID 0000.0001)  cg2d: iter=    14 ; resid.=  4.98970536179226E-02
(PID.TID 0000.0001)  cg2d: iter=    15 ; resid.=  3.96708106858057E-02
(PID.TID 0000.0001)  cg2d: iter=    16 ; resid.=  3.55246019957511E-02
(PID.TID 0000.0001)  cg2d: iter=    17 ; resid.=  3.06233157921758E-02
(PID.TID 0000.0001)  cg2d: iter=    18 ; resid.=  2.65109447622431E-02
(PID.TID 0000.0001)  cg2d: iter=    19 ; resid.=  2.01751150166226E-02
(PID.TID 0000.0001)  cg2d: iter=    20 ; resid.=  1.60487982106476E-02
(PID.TID 0000.0001)  cg2d: iter=    21 ; resid.=  1.31926308880066E-02
(PID.TID 0000.0001)  cg2d: iter=    22 ; resid.=  1.13669621902208E-02
(PID.TID 0000.0001)  cg2d: iter=    23 ; resid.=  9.89307284023155E-03
(PID.TID 0000.0001)  cg2d: iter=    24 ; resid.=  8.90540490342362E-03
(PID.TID 0000.0001)  cg2d: iter=    25 ; resid.=  6.79394240982337E-03
(PID.TID 0000.0001)  cg2d: iter=    26 ; resid.=  5.58124778554578E-03
(PID.TID 0000.0001)  cg2d: iter=    27 ; resid.=  4.44285600712800E-03
(PID.TID 0000.0001)  cg2d: iter=    28 ; resid.=  3.68979404192292E-03
(PID.TID 0000.0001)  cg2d: iter=    29 ; resid.=  2.92442313613003E-03
(PID.TID 0000.0001)  cg2d: iter=    30 ; resid.=  2.54097797451010E-03
(PID.TID 0000.0001)  cg2d: iter=    31 ; resid.=  2.03051854262018E-03
(PID.TID 0000.0001)  cg2d: iter=    32 ; resid.=  1.61906151893528E-03
(PID.TID 0000.0001)  cg2d: iter=    33 ; resid.=  1.40829160865102E-03
(PID.TID 0000.0001)  cg2d: iter=    34 ; resid.=  1.20207555106930E-03
(PID.TID 0000.0001)  cg2d: iter=    35 ; resid.=  9.94921985273957E-04
(PID.TID 0000.0001)  cg2d: iter=    36 ; resid.=  8.44004368019542E-04
(PID.TID 0000.0001)  cg2d: iter=    37 ; resid.=  7.16093624990221E-04
(PID.TID 0000.0001)  cg2d: iter=    38 ; resid.=  6.56681831837276E-04
(PID.TID 0000.0001)  cg2d: iter=    39 ; resid.=  5.80536747510588E-04
(PID.TID 0000.0001)  cg2d: iter=    40 ; resid.=  4.98037799001275E-04
(PID.TID 0000.0001)  cg2d: iter=    41 ; resid.=  4.26660740355249E-04
(PID.TID 0000.0001)  cg2d: iter=    42 ; resid.=  3.66995143798801E-04
(PID.TID 0000.0001)  cg2d: iter=    43 ; resid.=  3.02006152640973E-04
(PID.TID 0000.0001)  cg2d: iter=    44 ; resid.=  2.33815195398195E-04
(PID.TID 0000.0001)  cg2d: iter=    45 ; resid.=  1.76340052640145E-04
(PID.TID 0000.0001)  cg2d: iter=    46 ; resid.=  1.43570275911550E-04
(PID.TID 0000.0001)  cg2d: iter=    47 ; resid.=  1.27074557546864E-04
(PID.TID 0000.0001)  cg2d: iter=    48 ; resid.=  1.03759736752555E-04
(PID.TID 0000.0001)  cg2d: iter=    49 ; resid.=  8.82934353354486E-05
(PID.TID 0000.0001)  cg2d: iter=    50 ; resid.=  7.92369575560904E-05
(PID.TID 0000.0001)  cg2d: iter=    51 ; resid.=  6.57623898069267E-05
(PID.TID 0000.0001)  cg2d: iter=    52 ; resid.=  5.22555391920519E-05
(PID.TID 0000.0001)  cg2d: iter=    53 ; resid.=  4.45469631994518E-05
(PID.TID 0000.0001)  cg2d: iter=    54 ; resid.=  3.64028619746859E-05
(PID.TID 0000.0001)  cg2d: iter=    55 ; resid.=  3.15863256934517E-05
(PID.TID 0000.0001)  cg2d: iter=    56 ; resid.=  2.57602406863241E-05
(PID.TID 0000.0001)  cg2d: iter=    57 ; resid.=  2.12924330497181E-05
(PID.TID 0000.0001)  cg2d: iter=    58 ; resid.=  1.69322668646601E-05
(PID.TID 0000.0001)  cg2d: iter=    59 ; resid.=  1.40893568874078E-05
(PID.TID 0000.0001)  cg2d: iter=    60 ; resid.=  1.12413145720902E-05
(PID.TID 0000.0001)  cg2d: iter=    61 ; resid.=  9.81991141313422E-06
(PID.TID 0000.0001)  cg2d: iter=    62 ; resid.=  8.38933034207171E-06
(PID.TID 0000.0001)  cg2d: iter=    63 ; resid.=  6.95632379246902E-06
(PID.TID 0000.0001)  cg2d: iter=    64 ; resid.=  5.49982172250245E-06
(PID.TID 0000.0001)  cg2d: iter=    65 ; resid.=  4.51309151357301E-06
(PID.TID 0000.0001)  cg2d: iter=    66 ; resid.=  3.96624869275312E-06
(PID.TID 0000.0001)  cg2d: iter=    67 ; resid.=  3.36114202146718E-06
(PID.TID 0000.0001)  cg2d: iter=    68 ; resid.=  2.73863028428799E-06
(PID.TID 0000.0001)  cg2d: iter=    69 ; resid.=  2.09078964264866E-06
(PID.TID 0000.0001)  cg2d: iter=    70 ; resid.=  1.65380856041671E-06
(PID.TID 0000.0001)  cg2d: iter=    71 ; resid.=  1.41972495104191E-06
(PID.TID 0000.0001)  cg2d: iter=    72 ; resid.=  1.27448178592600E-06
(PID.TID 0000.0001)  cg2d: iter=    73 ; resid.=  1.11667031348621E-06
(PID.TID 0000.0001)  cg2d: iter=    74 ; resid.=  9.39856138052592E-07
(PID.TID 0000.0001)  cg2d: iter=    75 ; resid.=  7.52243335031918E-07
(PID.TID 0000.0001)  cg2d: iter=    76 ; resid.=  6.54771689072828E-07
(PID.TID 0000.0001)  cg2d: iter=    77 ; resid.=  5.17335999146413E-07
(PID.TID 0000.0001)  cg2d: iter=    78 ; resid.=  4.17871836667400E-07
(PID.TID 0000.0001)  cg2d: iter=    79 ; resid.=  3.14777067013657E-07
(PID.TID 0000.0001)  cg2d: iter=    80 ; resid.=  2.33394261354619E-07
(PID.TID 0000.0001)  cg2d: iter=    81 ; resid.=  1.79708515172225E-07
(PID.TID 0000.0001)  cg2d: iter=    82 ; resid.=  1.37339813071298E-07
(PID.TID 0000.0001)  cg2d: iter=    83 ; resid.=  9.76847158580602E-08
(PID.TID 0000.0001)  cg2d: iter=    84 ; resid.=  7.40898988131935E-08
(PID.TID 0000.0001)  cg2d: iter=    85 ; resid.=  5.44266775748579E-08
(PID.TID 0000.0001)  cg2d: iter=    86 ; resid.=  4.43525465770703E-08
(PID.TID 0000.0001)  cg2d: iter=    87 ; resid.=  3.66152209646797E-08
(PID.TID 0000.0001)  cg2d: iter=    88 ; resid.=  2.91245155959264E-08
(PID.TID 0000.0001)  cg2d: iter=    89 ; resid.=  2.31778948523675E-08
(PID.TID 0000.0001)  cg2d: iter=    90 ; resid.=  1.75733403503719E-08
(PID.TID 0000.0001)  cg2d: iter=    91 ; resid.=  1.26803150449855E-08
(PID.TID 0000.0001)  cg2d: iter=    92 ; resid.=  9.52526262075538E-09
(PID.TID 0000.0001)  cg2d: iter=    93 ; resid.=  7.48943834552746E-09
(PID.TID 0000.0001)  cg2d: iter=    94 ; resid.=  5.81259592376001E-09
(PID.TID 0000.0001)  cg2d: iter=    95 ; resid.=  4.74430852394713E-09
(PID.TID 0000.0001)  cg2d: iter=    96 ; resid.=  3.46975545850479E-09
(PID.TID 0000.0001)  cg2d: iter=    97 ; resid.=  2.52338470550827E-09
(PID.TID 0000.0001)  cg2d: iter=    98 ; resid.=  1.92685613166555E-09
(PID.TID 0000.0001)  cg2d: iter=    99 ; resid.=  1.58052373433202E-09
(PID.TID 0000.0001)  cg2d: iter=   100 ; resid.=  1.30682047213974E-09
(PID.TID 0000.0001)  cg2d: iter=   101 ; resid.=  1.02592288282623E-09
(PID.TID 0000.0001)  cg2d: iter=   102 ; resid.=  7.80822215838557E-10
(PID.TID 0000.0001)  cg2d: iter=   103 ; resid.=  6.21086542005234E-10
(PID.TID 0000.0001)  cg2d: iter=   104 ; resid.=  4.93292628668938E-10
(PID.TID 0000.0001)  cg2d: iter=   105 ; resid.=  4.03801768374038E-10
(PID.TID 0000.0001)  cg2d: iter=   106 ; resid.=  3.71830350943165E-10
(PID.TID 0000.0001)  cg2d: iter=   107 ; resid.=  2.98150684085025E-10
(PID.TID 0000.0001)  cg2d: iter=   108 ; resid.=  2.51007409249930E-10
(PID.TID 0000.0001)  cg2d: iter=   109 ; resid.=  2.00849257652838E-10
(PID.TID 0000.0001)  cg2d: iter=   110 ; resid.=  1.72264521044125E-10
(PID.TID 0000.0001)  cg2d: iter=   111 ; resid.=  1.47683718161302E-10
(PID.TID 0000.0001)  cg2d: iter=   112 ; resid.=  1.07218236799652E-10
(PID.TID 0000.0001)  cg2d: iter=   113 ; resid.=  8.28772656937020E-11
(PID.TID 0000.0001)  cg2d: iter=   114 ; resid.=  6.72563713651730E-11
(PID.TID 0000.0001)  cg2d: iter=   115 ; resid.=  5.01980480302255E-11
(PID.TID 0000.0001)  cg2d: iter=   116 ; resid.=  3.99344580862863E-11
(PID.TID 0000.0001)  cg2d: iter=   117 ; resid.=  3.45198088901512E-11
(PID.TID 0000.0001)  cg2d: iter=   118 ; resid.=  2.82274351843567E-11
(PID.TID 0000.0001)  cg2d: iter=   119 ; resid.=  2.08456777230907E-11
(PID.TID 0000.0001)  cg2d: iter=   120 ; resid.=  1.54827903272217E-11
(PID.TID 0000.0001)  cg2d: iter=   121 ; resid.=  1.25112479427915E-11
(PID.TID 0000.0001)  cg2d: iter=   122 ; resid.=  9.03497875188989E-12
(PID.TID 0000.0001)  cg2d: iter=   123 ; resid.=  6.26325646350882E-12
(PID.TID 0000.0001)  cg2d: iter=   124 ; resid.=  4.18664999345768E-12
(PID.TID 0000.0001)  cg2d: iter=   125 ; resid.=  3.00345314422941E-12
(PID.TID 0000.0001)  cg2d: iter=   126 ; resid.=  2.14193198857066E-12
(PID.TID 0000.0001)  cg2d: iter=   127 ; resid.=  1.42023441451174E-12
(PID.TID 0000.0001)  cg2d: iter=   128 ; resid.=  1.01738210067084E-12
(PID.TID 0000.0001)  cg2d: iter=   129 ; resid.=  7.43151371429886E-13
(PID.TID 0000.0001)  cg2d: iter=   130 ; resid.=  5.68446452139030E-13
(PID.TID 0000.0001)  cg2d: iter=   131 ; resid.=  4.15143997345564E-13
(PID.TID 0000.0001)  cg2d: iter=   132 ; resid.=  3.04463268257287E-13
(PID.TID 0000.0001)  cg2d: iter=   133 ; resid.=  2.37522967178457E-13
(PID.TID 0000.0001)  cg2d: iter=   134 ; resid.=  1.83750039533952E-13
(PID.TID 0000.0001)  cg2d: iter=   135 ; resid.=  1.42042482545099E-13
(PID.TID 0000.0001)  cg2d: iter=   136 ; resid.=  9.70807898083417E-14
DEBUG_STATS_RL:    cg2d_x (SOLVE_FOR_PRESSURE)  min= -1.90100042955946E+01
DEBUG_STATS_RL:    cg2d_x (SOLVE_FOR_PRESSURE)  max=  1.16743003304586E+01
DEBUG_STATS_RL:    cg2d_x (SOLVE_FOR_PRESSURE) mean= -1.73051278056488E+00
DEBUG_STATS_RL:    cg2d_x (SOLVE_FOR_PRESSURE) S.D.=  8.09108113817401E+00
(PID.TID 0000.0001)      cg2d_init_res =   5.36277119283836E-01
(PID.TID 0000.0001)      cg2d_iters(min,last) =      -1     136
(PID.TID 0000.0001)      cg2d_last_res =   9.70807898083417E-14
(PID.TID 0000.0001) // =======================================================
(PID.TID 0000.0001) // Begin MONITOR dynamic field statistics
(PID.TID 0000.0001) // =======================================================
(PID.TID 0000.0001) %MON time_tsnumber                =                    38
(PID.TID 0000.0001) %MON time_secondsf                =   3.2832000000000E+06
(PID.TID 0000.0001) %MON dynstat_eta_max              =   1.1900408084056E+00
(PID.TID 0000.0001) %MON dynstat_eta_min              =  -1.9378189903766E+00
(PID.TID 0000.0001) %MON dynstat_eta_mean             =  -2.8442616156531E-03
(PID.TID 0000.0001) %MON dynstat_eta_sd               =   7.6617036415442E-01
(PID.TID 0000.0001) %MON dynstat_eta_del2             =   2.3266551994144E-03
(PID.TID 0000.0001) %MON dynstat_uvel_max             =   1.4370162286502E-01
(PID.TID 0000.0001) %MON dynstat_uvel_min             =  -1.7884007218064E-01
(PID.TID 0000.0001) %MON dynstat_uvel_mean            =   2.4035860116264E-03
(PID.TID 0000.0001) %MON dynstat_uvel_sd              =   2.3387496152112E-02
(PID.TID 0000.0001) %MON dynstat_uvel_del2            =   1.1454342461373E-04
(PID.TID 0000.0001) %MON dynstat_vvel_max             =   2.0939146394855E-01
(PID.TID 0000.0001) %MON dynstat_vvel_min             =  -1.1603655154015E-01
(PID.TID 0000.0001) %MON dynstat_vvel_mean            =  -2.2369240037372E-04
(PID.TID 0000.0001) %MON dynstat_vvel_sd              =   1.2782669244871E-02
(PID.TID 0000.0001) %MON dynstat_vvel_del2            =   1.0472407490966E-04
(PID.TID 0000.0001) %MON dynstat_wvel_max             =   1.3772797424221E-04
(PID.TID 0000.0001) %MON dynstat_wvel_min             =  -1.3744382843367E-04
(PID.TID 0000.0001) %MON dynstat_wvel_mean            =   3.4098029558275E-22
(PID.TID 0000.0001) %MON dynstat_wvel_sd              =   2.0869118393562E-05
(PID.TID 0000.0001) %MON dynstat_wvel_del2            =   2.1394635495084E-07
(PID.TID 0000.0001) %MON dynstat_theta_max            =   3.0257631051725E+01
(PID.TID 0000.0001) %MON dynstat_theta_min            =  -2.0032764179563E+00
(PID.TID 0000.0001) %MON dynstat_theta_mean           =   3.6514989291979E+00
(PID.TID 0000.0001) %MON dynstat_theta_sd             =   4.4185276952055E+00
(PID.TID 0000.0001) %MON dynstat_theta_del2           =   4.8080758597344E-03
(PID.TID 0000.0001) %MON dynstat_salt_max             =   3.7486604514911E+01
(PID.TID 0000.0001) %MON dynstat_salt_min             =   2.9844356336616E+01
(PID.TID 0000.0001) %MON dynstat_salt_mean            =   3.4748019768874E+01
(PID.TID 0000.0001) %MON dynstat_salt_sd              =   2.9636935973656E-01
(PID.TID 0000.0001) %MON dynstat_salt_del2            =   9.9025024295428E-04
(PID.TID 0000.0001) %MON dynstat_sst_max              =   3.0257631051725E+01
(PID.TID 0000.0001) %MON dynstat_sst_min              =  -2.0032764179563E+00
(PID.TID 0000.0001) %MON dynstat_sst_mean             =   1.8839980487390E+01
(PID.TID 0000.0001) %MON dynstat_sst_sd               =   9.0199457996294E+00
(PID.TID 0000.0001) %MON dynstat_sst_del2             =   2.7059220509947E-02
(PID.TID 0000.0001) %MON dynstat_sss_max              =   3.7460730048908E+01
(PID.TID 0000.0001) %MON dynstat_sss_min              =   2.9844356336616E+01
(PID.TID 0000.0001) %MON dynstat_sss_mean             =   3.4874652179625E+01
(PID.TID 0000.0001) %MON dynstat_sss_sd               =   9.7660108529952E-01
(PID.TID 0000.0001) %MON dynstat_sss_del2             =   7.8878875757999E-03
(PID.TID 0000.0001) %MON forcing_qnet_max             =   3.6928591512044E+02
(PID.TID 0000.0001) %MON forcing_qnet_min             =  -1.7475012308757E+02
(PID.TID 0000.0001) %MON forcing_qnet_mean            =  -1.4644524318170E+01
(PID.TID 0000.0001) %MON forcing_qnet_sd              =   8.7147670189845E+01
(PID.TID 0000.0001) %MON forcing_qnet_del2            =   9.5844621620671E-01
(PID.TID 0000.0001) %MON forcing_qsw_max              =   0.0000000000000E+00
(PID.TID 0000.0001) %MON forcing_qsw_min              =   0.0000000000000E+00
(PID.TID 0000.0001) %MON forcing_qsw_mean             =   0.0000000000000E+00
(PID.TID 0000.0001) %MON forcing_qsw_sd               =   0.0000000000000E+00
(PID.TID 0000.0001) %MON forcing_qsw_del2             =   0.0000000000000E+00
(PID.TID 0000.0001) %MON forcing_empmr_max            =   7.5264264864927E-05
(PID.TID 0000.0001) %MON forcing_empmr_min            =  -7.7908129962149E-05
(PID.TID 0000.0001) %MON forcing_empmr_mean           =   9.3794980182971E-07
(PID.TID 0000.0001) %MON forcing_empmr_sd             =   2.8038849309164E-05
(PID.TID 0000.0001) %MON forcing_empmr_del2           =   3.5380115394232E-07
(PID.TID 0000.0001) %MON forcing_fu_max               =   2.9353826045990E-01
(PID.TID 0000.0001) %MON forcing_fu_min               =  -2.0245296061039E-01
(PID.TID 0000.0001) %MON forcing_fu_mean              =   1.7196339892884E-02
(PID.TID 0000.0001) %MON forcing_fu_sd                =   9.0980570230984E-02
(PID.TID 0000.0001) %MON forcing_fu_del2              =   6.8955771745794E-04
(PID.TID 0000.0001) %MON forcing_fv_max               =   1.8468924562136E-01
(PID.TID 0000.0001) %MON forcing_fv_min               =  -1.7430406411489E-01
(PID.TID 0000.0001) %MON forcing_fv_mean              =  -6.6946376872389E-03
(PID.TID 0000.0001) %MON forcing_fv_sd                =   4.4529984647436E-02
(PID.TID 0000.0001) %MON forcing_fv_del2              =   4.8899636453518E-04
(PID.TID 0000.0001) %MON trAdv_CFL_u_max              =   4.6450135650300E-02
(PID.TID 0000.0001) %MON trAdv_CFL_v_max              =   4.2006084084524E-02
(PID.TID 0000.0001) %MON trAdv_CFL_w_max              =   8.5304044300142E-02
(PID.TID 0000.0001) %MON advcfl_uvel_max              =   4.7498504797181E-02
(PID.TID 0000.0001) %MON advcfl_vvel_max              =   4.0681403209868E-02
(PID.TID 0000.0001) %MON advcfl_wvel_max              =   6.3191790911036E-02
(PID.TID 0000.0001) %MON advcfl_W_hf_max              =   7.4476039288007E-02
(PID.TID 0000.0001) %MON pe_b_mean                    =   7.5116939265850E-04
(PID.TID 0000.0001) %MON ke_max                       =   2.4080779407238E-02
(PID.TID 0000.0001) %MON ke_mean                      =   3.2450206576684E-04
(PID.TID 0000.0001) %MON ke_vol                       =   1.3226782436723E+18
(PID.TID 0000.0001) %MON vort_r_min                   =  -4.6603112598163E-07
(PID.TID 0000.0001) %MON vort_r_max                   =   6.2622636757349E-07
(PID.TID 0000.0001) %MON vort_a_mean                  =  -2.5274806871843E-05
(PID.TID 0000.0001) %MON vort_a_sd                    =   7.3604666971476E-05
(PID.TID 0000.0001) %MON vort_p_mean                  =  -3.1845655137218E-05
(PID.TID 0000.0001) %MON vort_p_sd                    =   1.3162561392373E-04
(PID.TID 0000.0001) %MON surfExpan_theta_mean         =   8.9450831523135E-07
(PID.TID 0000.0001) %MON surfExpan_salt_mean          =  -2.8286581189851E-07
(PID.TID 0000.0001) // =======================================================
(PID.TID 0000.0001) // End MONITOR dynamic field statistics
(PID.TID 0000.0001) // =======================================================
 EXTERNAL_FIELDS_LOAD,        38 : iP,iLd,i0,i1=    1    2    1    2 ; Wght=  0.2333333333  0.7666666667
 EXTERNAL_FIELDS_LOAD: (fu0,1),fu,fv= -3.5633E-02 -1.4435E-02 -1.9381E-02 -2.6880E-02
 EXTERNAL_FIELDS_LOAD: SST,SSS,Q,E-P= -1.8412E-01  3.4490E+01  2.4638E+02  9.1377E-06
DEBUG_STATS_RL:          Uvel (THERMODYNAMICS)  min= -1.78840072180641E-01
DEBUG_STATS_RL:          Uvel (THERMODYNAMICS)  max=  1.43701622865018E-01
DEBUG_STATS_RL:          Uvel (THERMODYNAMICS) mean=  3.97100935133052E-03
DEBUG_STATS_RL:          Uvel (THERMODYNAMICS) S.D.=  3.05413035776552E-02
DEBUG_STATS_RL:          Vvel (THERMODYNAMICS)  min= -1.16036551540151E-01
DEBUG_STATS_RL:          Vvel (THERMODYNAMICS)  max=  2.09391463948546E-01
DEBUG_STATS_RL:          Vvel (THERMODYNAMICS) mean= -1.26349936140649E-04
DEBUG_STATS_RL:          Vvel (THERMODYNAMICS) S.D.=  1.75846396424470E-02
DEBUG_STATS_RL:          Wvel (THERMODYNAMICS)  min= -1.37443828433669E-04
DEBUG_STATS_RL:          Wvel (THERMODYNAMICS)  max=  1.37727974242212E-04
DEBUG_STATS_RL:          Wvel (THERMODYNAMICS) mean= -3.51306568143256E-07
DEBUG_STATS_RL:          Wvel (THERMODYNAMICS) S.D.=  1.82650340573120E-05
DEBUG_STATS_RL:         Theta (THERMODYNAMICS)  min= -2.00250233796831E+00
DEBUG_STATS_RL:         Theta (THERMODYNAMICS)  max=  3.02500404690572E+01
DEBUG_STATS_RL:         Theta (THERMODYNAMICS) mean=  3.24271331810573E+00
DEBUG_STATS_RL:         Theta (THERMODYNAMICS) S.D.=  5.86204374764641E+00
DEBUG_STATS_RL:          Salt (THERMODYNAMICS)  min=  3.00000000000000E-02
DEBUG_STATS_RL:          Salt (THERMODYNAMICS)  max=  3.74871891488696E+01
DEBUG_STATS_RL:          Salt (THERMODYNAMICS) mean=  1.88748582679384E+01
DEBUG_STATS_RL:          Salt (THERMODYNAMICS) S.D.=  1.73003778960220E+01
DEBUG_STATS_RL:         GtNm1 (THERMODYNAMICS)  min= -3.37251005418255E-06
DEBUG_STATS_RL:         GtNm1 (THERMODYNAMICS)  max=  3.55260457252214E-06
DEBUG_STATS_RL:         GtNm1 (THERMODYNAMICS) mean=  1.20314658717221E-08
DEBUG_STATS_RL:         GtNm1 (THERMODYNAMICS) S.D.=  2.19554628479247E-07
DEBUG_STATS_RL:         GsNm1 (THERMODYNAMICS)  min= -5.03416763234385E-07
DEBUG_STATS_RL:         GsNm1 (THERMODYNAMICS)  max=  4.43070295567446E-07
DEBUG_STATS_RL:         GsNm1 (THERMODYNAMICS) mean=  7.68528240340451E-11
DEBUG_STATS_RL:         GsNm1 (THERMODYNAMICS) S.D.=  2.01503186876827E-08
DEBUG_STATS_RL:                EtaN (DYNAMICS)  min= -1.93781899037662E+00
DEBUG_STATS_RL:                EtaN (DYNAMICS)  max=  1.19004080840558E+00
DEBUG_STATS_RL:                EtaN (DYNAMICS) mean= -1.76402933798664E-01
DEBUG_STATS_RL:                EtaN (DYNAMICS) S.D.=  8.24778913167586E-01
DEBUG_STATS_RL:                Uvel (DYNAMICS)  min= -1.78840072180641E-01
DEBUG_STATS_RL:                Uvel (DYNAMICS)  max=  1.43701622865018E-01
DEBUG_STATS_RL:                Uvel (DYNAMICS) mean=  3.97100935133052E-03
DEBUG_STATS_RL:                Uvel (DYNAMICS) S.D.=  3.05413035776552E-02
DEBUG_STATS_RL:                Vvel (DYNAMICS)  min= -1.16036551540151E-01
DEBUG_STATS_RL:                Vvel (DYNAMICS)  max=  2.09391463948546E-01
DEBUG_STATS_RL:                Vvel (DYNAMICS) mean= -1.26349936140649E-04
DEBUG_STATS_RL:                Vvel (DYNAMICS) S.D.=  1.75846396424470E-02
DEBUG_STATS_RL:                Wvel (DYNAMICS)  min= -1.37443828433669E-04
DEBUG_STATS_RL:                Wvel (DYNAMICS)  max=  1.37727974242212E-04
DEBUG_STATS_RL:                Wvel (DYNAMICS) mean= -3.51306568143256E-07
DEBUG_STATS_RL:                Wvel (DYNAMICS) S.D.=  1.82650340573120E-05
DEBUG_STATS_RL:               Theta (DYNAMICS)  min= -2.00250233796831E+00
DEBUG_STATS_RL:               Theta (DYNAMICS)  max=  3.02500404690572E+01
DEBUG_STATS_RL:               Theta (DYNAMICS) mean=  3.24271331810573E+00
DEBUG_STATS_RL:               Theta (DYNAMICS) S.D.=  5.86204374764641E+00
DEBUG_STATS_RL:                Salt (DYNAMICS)  min=  3.00000000000000E-02
DEBUG_STATS_RL:                Salt (DYNAMICS)  max=  3.74871891488696E+01
DEBUG_STATS_RL:                Salt (DYNAMICS) mean=  1.88748582679384E+01
DEBUG_STATS_RL:                Salt (DYNAMICS) S.D.=  1.73003778960220E+01
DEBUG_STATS_RL:                  Gu (DYNAMICS)  min= -1.76117234796283E-01
DEBUG_STATS_RL:                  Gu (DYNAMICS)  max=  1.48862031468641E-01
DEBUG_STATS_RL:                  Gu (DYNAMICS) mean=  3.37124734544457E-03
DEBUG_STATS_RL:                  Gu (DYNAMICS) S.D.=  3.10337680714752E-02
DEBUG_STATS_RL:                  Gv (DYNAMICS)  min= -1.12479187090923E-01
DEBUG_STATS_RL:                  Gv (DYNAMICS)  max=  2.09949753403640E-01
DEBUG_STATS_RL:                  Gv (DYNAMICS) mean=  2.27054823684428E-03
DEBUG_STATS_RL:                  Gv (DYNAMICS) S.D.=  1.75147619263428E-02
DEBUG_STATS_RL:               GuNm1 (DYNAMICS)  min= -9.57005335811243E-06
DEBUG_STATS_RL:               GuNm1 (DYNAMICS)  max=  8.36575666626197E-06
DEBUG_STATS_RL:               GuNm1 (DYNAMICS) mean= -2.05153455986110E-08
DEBUG_STATS_RL:               GuNm1 (DYNAMICS) S.D.=  1.19128847284924E-06
DEBUG_STATS_RL:               GvNm1 (DYNAMICS)  min= -1.07803695430861E-05
DEBUG_STATS_RL:               GvNm1 (DYNAMICS)  max=  1.63966511582448E-05
DEBUG_STATS_RL:               GvNm1 (DYNAMICS) mean=  7.47265075617338E-07
DEBUG_STATS_RL:               GvNm1 (DYNAMICS) S.D.=  2.62576448730271E-06
DEBUG_STATS_RL:               GtNm1 (DYNAMICS)  min= -3.37251005418255E-06
DEBUG_STATS_RL:               GtNm1 (DYNAMICS)  max=  3.55260457252214E-06
DEBUG_STATS_RL:               GtNm1 (DYNAMICS) mean=  1.20314658717221E-08
DEBUG_STATS_RL:               GtNm1 (DYNAMICS) S.D.=  2.19554628479247E-07
DEBUG_STATS_RL:               GsNm1 (DYNAMICS)  min= -5.03416763234385E-07
DEBUG_STATS_RL:               GsNm1 (DYNAMICS)  max=  4.43070295567446E-07
DEBUG_STATS_RL:               GsNm1 (DYNAMICS) mean=  7.68528240340451E-11
DEBUG_STATS_RL:               GsNm1 (DYNAMICS) S.D.=  2.01503186876827E-08
DEBUG_STATS_RL:    cg2d_b (SOLVE_FOR_PRESSURE)  min= -2.55074789889545E+04
DEBUG_STATS_RL:    cg2d_b (SOLVE_FOR_PRESSURE)  max=  1.93242996306443E+04
DEBUG_STATS_RL:    cg2d_b (SOLVE_FOR_PRESSURE) mean=  2.80111578928671E+00
DEBUG_STATS_RL:    cg2d_b (SOLVE_FOR_PRESSURE) S.D.=  3.94184198880577E+03
 cg2d: Sum(rhs),rhsMax =   2.54222812650657E-01  1.67539951437462E+00
(PID.TID 0000.0001)  cg2d: iter=     1 ; resid.=  3.51454172864364E-01
(PID.TID 0000.0001)  cg2d: iter=     2 ; resid.=  2.95646774213549E-01
(PID.TID 0000.0001)  cg2d: iter=     3 ; resid.=  2.91087652342301E-01
(PID.TID 0000.0001)  cg2d: iter=     4 ; resid.=  2.64379375685962E-01
(PID.TID 0000.0001)  cg2d: iter=     5 ; resid.=  2.32352100620897E-01
(PID.TID 0000.0001)  cg2d: iter=     6 ; resid.=  1.93697462715318E-01
(PID.TID 0000.0001)  cg2d: iter=     7 ; resid.=  1.59581419085602E-01
(PID.TID 0000.0001)  cg2d: iter=     8 ; resid.=  1.32236077813534E-01
(PID.TID 0000.0001)  cg2d: iter=     9 ; resid.=  1.10006918562443E-01
(PID.TID 0000.0001)  cg2d: iter=    10 ; resid.=  9.25164851832355E-02
(PID.TID 0000.0001)  cg2d: iter=    11 ; resid.=  8.34776630399420E-02
(PID.TID 0000.0001)  cg2d: iter=    12 ; resid.=  6.93782685014478E-02
(PID.TID 0000.0001)  cg2d: iter=    13 ; resid.=  5.37392481336411E-02
(PID.TID 0000.0001)  cg2d: iter=    14 ; resid.=  4.45397441990820E-02
(PID.TID 0000.0001)  cg2d: iter=    15 ; resid.=  3.60062673867964E-02
(PID.TID 0000.0001)  cg2d: iter=    16 ; resid.=  3.17014774957805E-02
(PID.TID 0000.0001)  cg2d: iter=    17 ; resid.=  2.70226764100227E-02
(PID.TID 0000.0001)  cg2d: iter=    18 ; resid.=  2.30096566552140E-02
(PID.TID 0000.0001)  cg2d: iter=    19 ; resid.=  1.78362747159328E-02
(PID.TID 0000.0001)  cg2d: iter=    20 ; resid.=  1.40784416087077E-02
(PID.TID 0000.0001)  cg2d: iter=    21 ; resid.=  1.16039702352237E-02
(PID.TID 0000.0001)  cg2d: iter=    22 ; resid.=  9.94061104566993E-03
(PID.TID 0000.0001)  cg2d: iter=    23 ; resid.=  8.52681365771331E-03
(PID.TID 0000.0001)  cg2d: iter=    24 ; resid.=  7.56529873083280E-03
(PID.TID 0000.0001)  cg2d: iter=    25 ; resid.=  5.85429726200820E-03
(PID.TID 0000.0001)  cg2d: iter=    26 ; resid.=  4.85502023532938E-03
(PID.TID 0000.0001)  cg2d: iter=    27 ; resid.=  3.97523057309156E-03
(PID.TID 0000.0001)  cg2d: iter=    28 ; resid.=  3.40863478511355E-03
(PID.TID 0000.0001)  cg2d: iter=    29 ; resid.=  2.75768749465220E-03
(PID.TID 0000.0001)  cg2d: iter=    30 ; resid.=  2.38469473650942E-03
(PID.TID 0000.0001)  cg2d: iter=    31 ; resid.=  1.85777387254405E-03
(PID.TID 0000.0001)  cg2d: iter=    32 ; resid.=  1.44867999842963E-03
(PID.TID 0000.0001)  cg2d: iter=    33 ; resid.=  1.25053112553398E-03
(PID.TID 0000.0001)  cg2d: iter=    34 ; resid.=  1.07532600294589E-03
(PID.TID 0000.0001)  cg2d: iter=    35 ; resid.=  8.72786163635032E-04
(PID.TID 0000.0001)  cg2d: iter=    36 ; resid.=  7.21314830261159E-04
(PID.TID 0000.0001)  cg2d: iter=    37 ; resid.=  5.98766603778945E-04
(PID.TID 0000.0001)  cg2d: iter=    38 ; resid.=  5.47277485858415E-04
(PID.TID 0000.0001)  cg2d: iter=    39 ; resid.=  4.92611742027572E-04
(PID.TID 0000.0001)  cg2d: iter=    40 ; resid.=  4.31995346967569E-04
(PID.TID 0000.0001)  cg2d: iter=    41 ; resid.=  3.76364543294318E-04
(PID.TID 0000.0001)  cg2d: iter=    42 ; resid.=  3.25370589243106E-04
(PID.TID 0000.0001)  cg2d: iter=    43 ; resid.=  2.70323184902722E-04
(PID.TID 0000.0001)  cg2d: iter=    44 ; resid.=  2.08491483534513E-04
(PID.TID 0000.0001)  cg2d: iter=    45 ; resid.=  1.58503168650968E-04
(PID.TID 0000.0001)  cg2d: iter=    46 ; resid.=  1.27906415382802E-04
(PID.TID 0000.0001)  cg2d: iter=    47 ; resid.=  1.14574003551462E-04
(PID.TID 0000.0001)  cg2d: iter=    48 ; resid.=  9.50451244877442E-05
(PID.TID 0000.0001)  cg2d: iter=    49 ; resid.=  8.01112922324335E-05
(PID.TID 0000.0001)  cg2d: iter=    50 ; resid.=  7.05589600045637E-05
(PID.TID 0000.0001)  cg2d: iter=    51 ; resid.=  5.77223963726289E-05
(PID.TID 0000.0001)  cg2d: iter=    52 ; resid.=  4.58398605218541E-05
(PID.TID 0000.0001)  cg2d: iter=    53 ; resid.=  3.91679008467241E-05
(PID.TID 0000.0001)  cg2d: iter=    54 ; resid.=  3.30000002158117E-05
(PID.TID 0000.0001)  cg2d: iter=    55 ; resid.=  2.86653230664172E-05
(PID.TID 0000.0001)  cg2d: iter=    56 ; resid.=  2.28596007321281E-05
(PID.TID 0000.0001)  cg2d: iter=    57 ; resid.=  1.85098512124928E-05
(PID.TID 0000.0001)  cg2d: iter=    58 ; resid.=  1.47275452727024E-05
(PID.TID 0000.0001)  cg2d: iter=    59 ; resid.=  1.22794809218200E-05
(PID.TID 0000.0001)  cg2d: iter=    60 ; resid.=  9.92857937430868E-06
(PID.TID 0000.0001)  cg2d: iter=    61 ; resid.=  8.60704186998982E-06
(PID.TID 0000.0001)  cg2d: iter=    62 ; resid.=  7.43370461908194E-06
(PID.TID 0000.0001)  cg2d: iter=    63 ; resid.=  6.25633594831671E-06
(PID.TID 0000.0001)  cg2d: iter=    64 ; resid.=  4.99188310721995E-06
(PID.TID 0000.0001)  cg2d: iter=    65 ; resid.=  4.16911508943674E-06
(PID.TID 0000.0001)  cg2d: iter=    66 ; resid.=  3.62808785501514E-06
(PID.TID 0000.0001)  cg2d: iter=    67 ; resid.=  3.04705074724974E-06
(PID.TID 0000.0001)  cg2d: iter=    68 ; resid.=  2.42563031015742E-06
(PID.TID 0000.0001)  cg2d: iter=    69 ; resid.=  1.81828023860981E-06
(PID.TID 0000.0001)  cg2d: iter=    70 ; resid.=  1.45623289071515E-06
(PID.TID 0000.0001)  cg2d: iter=    71 ; resid.=  1.26659680087004E-06
(PID.TID 0000.0001)  cg2d: iter=    72 ; resid.=  1.13074017277735E-06
(PID.TID 0000.0001)  cg2d: iter=    73 ; resid.=  9.87809849699229E-07
(PID.TID 0000.0001)  cg2d: iter=    74 ; resid.=  8.28968805232993E-07
(PID.TID 0000.0001)  cg2d: iter=    75 ; resid.=  6.57614357488911E-07
(PID.TID 0000.0001)  cg2d: iter=    76 ; resid.=  5.79606951413376E-07
(PID.TID 0000.0001)  cg2d: iter=    77 ; resid.=  4.68961958472400E-07
(PID.TID 0000.0001)  cg2d: iter=    78 ; resid.=  3.88120922380258E-07
(PID.TID 0000.0001)  cg2d: iter=    79 ; resid.=  2.94463027650029E-07
(PID.TID 0000.0001)  cg2d: iter=    80 ; resid.=  2.22218709649855E-07
(PID.TID 0000.0001)  cg2d: iter=    81 ; resid.=  1.71141899224697E-07
(PID.TID 0000.0001)  cg2d: iter=    82 ; resid.=  1.28071225834698E-07
(PID.TID 0000.0001)  cg2d: iter=    83 ; resid.=  9.12439539849902E-08
(PID.TID 0000.0001)  cg2d: iter=    84 ; resid.=  7.08210346999840E-08
(PID.TID 0000.0001)  cg2d: iter=    85 ; resid.=  5.25873157817231E-08
(PID.TID 0000.0001)  cg2d: iter=    86 ; resid.=  4.33466861718462E-08
(PID.TID 0000.0001)  cg2d: iter=    87 ; resid.=  3.49876358968991E-08
(PID.TID 0000.0001)  cg2d: iter=    88 ; resid.=  2.78602588074152E-08
(PID.TID 0000.0001)  cg2d: iter=    89 ; resid.=  2.21272495715032E-08
(PID.TID 0000.0001)  cg2d: iter=    90 ; resid.=  1.66354025352889E-08
(PID.TID 0000.0001)  cg2d: iter=    91 ; resid.=  1.21259952221628E-08
(PID.TID 0000.0001)  cg2d: iter=    92 ; resid.=  9.06340198914451E-09
(PID.TID 0000.0001)  cg2d: iter=    93 ; resid.=  7.03040755417707E-09
(PID.TID 0000.0001)  cg2d: iter=    94 ; resid.=  5.35680128443399E-09
(PID.TID 0000.0001)  cg2d: iter=    95 ; resid.=  4.29245343422753E-09
(PID.TID 0000.0001)  cg2d: iter=    96 ; resid.=  3.12492865133361E-09
(PID.TID 0000.0001)  cg2d: iter=    97 ; resid.=  2.26126746016820E-09
(PID.TID 0000.0001)  cg2d: iter=    98 ; resid.=  1.69325881342089E-09
(PID.TID 0000.0001)  cg2d: iter=    99 ; resid.=  1.37201454790743E-09
(PID.TID 0000.0001)  cg2d: iter=   100 ; resid.=  1.13424043255884E-09
(PID.TID 0000.0001)  cg2d: iter=   101 ; resid.=  8.66180781832118E-10
(PID.TID 0000.0001)  cg2d: iter=   102 ; resid.=  6.41725337868807E-10
(PID.TID 0000.0001)  cg2d: iter=   103 ; resid.=  5.04610268221737E-10
(PID.TID 0000.0001)  cg2d: iter=   104 ; resid.=  3.80348833489466E-10
(PID.TID 0000.0001)  cg2d: iter=   105 ; resid.=  2.88644458813996E-10
(PID.TID 0000.0001)  cg2d: iter=   106 ; resid.=  2.46239907659803E-10
(PID.TID 0000.0001)  cg2d: iter=   107 ; resid.=  1.86592877095596E-10
(PID.TID 0000.0001)  cg2d: iter=   108 ; resid.=  1.52573415196847E-10
(PID.TID 0000.0001)  cg2d: iter=   109 ; resid.=  1.21069747853564E-10
(PID.TID 0000.0001)  cg2d: iter=   110 ; resid.=  1.05912035978259E-10
(PID.TID 0000.0001)  cg2d: iter=   111 ; resid.=  9.59626822532471E-11
(PID.TID 0000.0001)  cg2d: iter=   112 ; resid.=  7.36328819549876E-11
(PID.TID 0000.0001)  cg2d: iter=   113 ; resid.=  5.90448034723488E-11
(PID.TID 0000.0001)  cg2d: iter=   114 ; resid.=  4.98023390564354E-11
(PID.TID 0000.0001)  cg2d: iter=   115 ; resid.=  3.85491198816150E-11
(PID.TID 0000.0001)  cg2d: iter=   116 ; resid.=  3.14983012771508E-11
(PID.TID 0000.0001)  cg2d: iter=   117 ; resid.=  2.78340403465158E-11
(PID.TID 0000.0001)  cg2d: iter=   118 ; resid.=  2.36766217126698E-11
(PID.TID 0000.0001)  cg2d: iter=   119 ; resid.=  1.83150218425277E-11
(PID.TID 0000.0001)  cg2d: iter=   120 ; resid.=  1.38483142157075E-11
(PID.TID 0000.0001)  cg2d: iter=   121 ; resid.=  1.13012637126034E-11
(PID.TID 0000.0001)  cg2d: iter=   122 ; resid.=  8.45152955547890E-12
(PID.TID 0000.0001)  cg2d: iter=   123 ; resid.=  5.93392182332554E-12
(PID.TID 0000.0001)  cg2d: iter=   124 ; resid.=  3.94551150770685E-12
(PID.TID 0000.0001)  cg2d: iter=   125 ; resid.=  2.81060842380834E-12
(PID.TID 0000.0001)  cg2d: iter=   126 ; resid.=  2.05094179240114E-12
(PID.TID 0000.0001)  cg2d: iter=   127 ; resid.=  1.37750934326603E-12
(PID.TID 0000.0001)  cg2d: iter=   128 ; resid.=  9.86740884820587E-13
(PID.TID 0000.0001)  cg2d: iter=   129 ; resid.=  7.21217763205664E-13
(PID.TID 0000.0001)  cg2d: iter=   130 ; resid.=  5.51593933954775E-13
(PID.TID 0000.0001)  cg2d: iter=   131 ; resid.=  4.01972103339082E-13
(PID.TID 0000.0001)  cg2d: iter=   132 ; resid.=  2.91315906501838E-13
(PID.TID 0000.0001)  cg2d: iter=   133 ; resid.=  2.26212467966674E-13
(PID.TID 0000.0001)  cg2d: iter=   134 ; resid.=  1.75091667393154E-13
(PID.TID 0000.0001)  cg2d: iter=   135 ; resid.=  1.37756317599422E-13
(PID.TID 0000.0001)  cg2d: iter=   136 ; resid.=  9.66832552490182E-14
DEBUG_STATS_RL:    cg2d_x (SOLVE_FOR_PRESSURE)  min= -1.89286520654507E+01
DEBUG_STATS_RL:    cg2d_x (SOLVE_FOR_PRESSURE)  max=  1.21068883620471E+01
DEBUG_STATS_RL:    cg2d_x (SOLVE_FOR_PRESSURE) mean= -1.78494232283292E+00
DEBUG_STATS_RL:    cg2d_x (SOLVE_FOR_PRESSURE) S.D.=  8.44838126888425E+00
(PID.TID 0000.0001)      cg2d_init_res =   4.96485239212915E-01
(PID.TID 0000.0001)      cg2d_iters(min,last) =      -1     136
(PID.TID 0000.0001)      cg2d_last_res =   9.66832552490182E-14
(PID.TID 0000.0001) // =======================================================
(PID.TID 0000.0001) // Begin MONITOR dynamic field statistics
(PID.TID 0000.0001) // =======================================================
(PID.TID 0000.0001) %MON time_tsnumber                =                    39
(PID.TID 0000.0001) %MON time_secondsf                =   3.3696000000000E+06
(PID.TID 0000.0001) %MON dynstat_eta_max              =   1.2341374477112E+00
(PID.TID 0000.0001) %MON dynstat_eta_min              =  -1.9295262044292E+00
(PID.TID 0000.0001) %MON dynstat_eta_mean             =  -2.9226169992294E-03
(PID.TID 0000.0001) %MON dynstat_eta_sd               =   8.0125381932252E-01
(PID.TID 0000.0001) %MON dynstat_eta_del2             =   2.3361074042541E-03
(PID.TID 0000.0001) %MON dynstat_uvel_max             =   1.4632477281548E-01
(PID.TID 0000.0001) %MON dynstat_uvel_min             =  -1.7517234928193E-01
(PID.TID 0000.0001) %MON dynstat_uvel_mean            =   1.9260027080494E-03
(PID.TID 0000.0001) %MON dynstat_uvel_sd              =   2.3292664393911E-02
(PID.TID 0000.0001) %MON dynstat_uvel_del2            =   1.1630606474712E-04
(PID.TID 0000.0001) %MON dynstat_vvel_max             =   2.0861917372002E-01
(PID.TID 0000.0001) %MON dynstat_vvel_min             =  -1.1686937309738E-01
(PID.TID 0000.0001) %MON dynstat_vvel_mean            =  -1.8481191234537E-04
(PID.TID 0000.0001) %MON dynstat_vvel_sd              =   1.2792559681668E-02
(PID.TID 0000.0001) %MON dynstat_vvel_del2            =   1.0433861348529E-04
(PID.TID 0000.0001) %MON dynstat_wvel_max             =   1.2809993734209E-04
(PID.TID 0000.0001) %MON dynstat_wvel_min             =  -1.4183618124735E-04
(PID.TID 0000.0001) %MON dynstat_wvel_mean            =   7.8077285494665E-23
(PID.TID 0000.0001) %MON dynstat_wvel_sd              =   2.0751930570469E-05
(PID.TID 0000.0001) %MON dynstat_wvel_del2            =   2.1041031515137E-07
(PID.TID 0000.0001) %MON dynstat_theta_max            =   3.0250040469057E+01
(PID.TID 0000.0001) %MON dynstat_theta_min            =  -2.0025023379683E+00
(PID.TID 0000.0001) %MON dynstat_theta_mean           =   3.6515611450881E+00
(PID.TID 0000.0001) %MON dynstat_theta_sd             =   4.4186987130183E+00
(PID.TID 0000.0001) %MON dynstat_theta_del2           =   4.7981727168397E-03
(PID.TID 0000.0001) %MON dynstat_salt_max             =   3.7487189148870E+01
(PID.TID 0000.0001) %MON dynstat_salt_min             =   2.9844044203055E+01
(PID.TID 0000.0001) %MON dynstat_salt_mean            =   3.4748026483467E+01
(PID.TID 0000.0001) %MON dynstat_salt_sd              =   2.9638819360551E-01
(PID.TID 0000.0001) %MON dynstat_salt_del2            =   9.8959918365115E-04
(PID.TID 0000.0001) %MON dynstat_sst_max              =   3.0250040469057E+01
(PID.TID 0000.0001) %MON dynstat_sst_min              =  -2.0025023379683E+00
(PID.TID 0000.0001) %MON dynstat_sst_mean             =   1.8850868874089E+01
(PID.TID 0000.0001) %MON dynstat_sst_sd               =   9.0171301726905E+00
(PID.TID 0000.0001) %MON dynstat_sst_del2             =   2.7101586222201E-02
(PID.TID 0000.0001) %MON dynstat_sss_max              =   3.7460607976074E+01
(PID.TID 0000.0001) %MON dynstat_sss_min              =   2.9844044203055E+01
(PID.TID 0000.0001) %MON dynstat_sss_mean             =   3.4874640556247E+01
(PID.TID 0000.0001) %MON dynstat_sss_sd               =   9.7673500401757E-01
(PID.TID 0000.0001) %MON dynstat_sss_del2             =   7.8884970896119E-03
(PID.TID 0000.0001) %MON forcing_qnet_max             =   3.6793170572917E+02
(PID.TID 0000.0001) %MON forcing_qnet_min             =  -1.7451060384115E+02
(PID.TID 0000.0001) %MON forcing_qnet_mean            =  -1.4559615150767E+01
(PID.TID 0000.0001) %MON forcing_qnet_sd              =   8.6177901833202E+01
(PID.TID 0000.0001) %MON forcing_qnet_del2            =   9.5684138500013E-01
(PID.TID 0000.0001) %MON forcing_qsw_max              =   0.0000000000000E+00
(PID.TID 0000.0001) %MON forcing_qsw_min              =   0.0000000000000E+00
(PID.TID 0000.0001) %MON forcing_qsw_mean             =   0.0000000000000E+00
(PID.TID 0000.0001) %MON forcing_qsw_sd               =   0.0000000000000E+00
(PID.TID 0000.0001) %MON forcing_qsw_del2             =   0.0000000000000E+00
(PID.TID 0000.0001) %MON forcing_empmr_max            =   7.4950175132926E-05
(PID.TID 0000.0001) %MON forcing_empmr_min            =  -7.7987774223705E-05
(PID.TID 0000.0001) %MON forcing_empmr_mean           =   9.3863219908967E-07
(PID.TID 0000.0001) %MON forcing_empmr_sd             =   2.8025183724210E-05
(PID.TID 0000.0001) %MON forcing_empmr_del2           =   3.5387045439018E-07
(PID.TID 0000.0001) %MON forcing_fu_max               =   2.9492541849613E-01
(PID.TID 0000.0001) %MON forcing_fu_min               =  -2.0411288440228E-01
(PID.TID 0000.0001) %MON forcing_fu_mean              =   1.7250640108353E-02
(PID.TID 0000.0001) %MON forcing_fu_sd                =   9.1176576117499E-02
(PID.TID 0000.0001) %MON forcing_fu_del2              =   6.9491420823166E-04
(PID.TID 0000.0001) %MON forcing_fv_max               =   1.8680121054252E-01
(PID.TID 0000.0001) %MON forcing_fv_min               =  -1.7747596303622E-01
(PID.TID 0000.0001) %MON forcing_fv_mean              =  -6.7598985939541E-03
(PID.TID 0000.0001) %MON forcing_fv_sd                =   4.4539193201071E-02
(PID.TID 0000.0001) %MON forcing_fv_del2              =   4.9416249691419E-04
(PID.TID 0000.0001) %MON trAdv_CFL_u_max              =   4.7508152083221E-02
(PID.TID 0000.0001) %MON trAdv_CFL_v_max              =   4.2619408426789E-02
(PID.TID 0000.0001) %MON trAdv_CFL_w_max              =   7.4476039288007E-02
(PID.TID 0000.0001) %MON advcfl_uvel_max              =   4.8350200618719E-02
(PID.TID 0000.0001) %MON advcfl_vvel_max              =   4.0531359604512E-02
(PID.TID 0000.0001) %MON advcfl_wvel_max              =   5.4911837583338E-02
(PID.TID 0000.0001) %MON advcfl_W_hf_max              =   6.4717522866076E-02
(PID.TID 0000.0001) %MON pe_b_mean                    =   8.2153714349702E-04
(PID.TID 0000.0001) %MON ke_max                       =   2.2021938711157E-02
(PID.TID 0000.0001) %MON ke_mean                      =   3.2165794562290E-04
(PID.TID 0000.0001) %MON ke_vol                       =   1.3226782436723E+18
(PID.TID 0000.0001) %MON vort_r_min                   =  -4.9195725221792E-07
(PID.TID 0000.0001) %MON vort_r_max                   =   5.9120706425024E-07
(PID.TID 0000.0001) %MON vort_a_mean                  =  -2.5274806613950E-05
(PID.TID 0000.0001) %MON vort_a_sd                    =   7.3604603540943E-05
(PID.TID 0000.0001) %MON vort_p_mean                  =  -3.1845654812280E-05
(PID.TID 0000.0001) %MON vort_p_sd                    =   1.3162509119462E-04
(PID.TID 0000.0001) %MON surfExpan_theta_mean         =   8.2172210352232E-07
(PID.TID 0000.0001) %MON surfExpan_salt_mean          =  -2.2712148956716E-07
(PID.TID 0000.0001) // =======================================================
(PID.TID 0000.0001) // End MONITOR dynamic field statistics
(PID.TID 0000.0001) // =======================================================
 EXTERNAL_FIELDS_LOAD,        39 : iP,iLd,i0,i1=    1    2    1    2 ; Wght=  0.2000000000  0.8000000000
 EXTERNAL_FIELDS_LOAD: (fu0,1),fu,fv= -3.5633E-02 -1.4435E-02 -1.8674E-02 -2.5560E-02
 EXTERNAL_FIELDS_LOAD: SST,SSS,Q,E-P= -2.3380E-01  3.4480E+01  2.4554E+02  9.0291E-06
DEBUG_STATS_RL:          Uvel (THERMODYNAMICS)  min= -1.75172349281932E-01
DEBUG_STATS_RL:          Uvel (THERMODYNAMICS)  max=  1.46324772815484E-01
DEBUG_STATS_RL:          Uvel (THERMODYNAMICS) mean=  3.45387305195680E-03
DEBUG_STATS_RL:          Uvel (THERMODYNAMICS) S.D.=  3.05028494342094E-02
DEBUG_STATS_RL:          Vvel (THERMODYNAMICS)  min= -1.16869373097375E-01
DEBUG_STATS_RL:          Vvel (THERMODYNAMICS)  max=  2.08619173720025E-01
DEBUG_STATS_RL:          Vvel (THERMODYNAMICS) mean=  2.44192688387786E-05
DEBUG_STATS_RL:          Vvel (THERMODYNAMICS) S.D.=  1.77139942363431E-02
DEBUG_STATS_RL:          Wvel (THERMODYNAMICS)  min= -1.41836181247346E-04
DEBUG_STATS_RL:          Wvel (THERMODYNAMICS)  max=  1.28099937342090E-04
DEBUG_STATS_RL:          Wvel (THERMODYNAMICS) mean= -3.36205379823781E-07
DEBUG_STATS_RL:          Wvel (THERMODYNAMICS) S.D.=  1.80824943363505E-05
DEBUG_STATS_RL:         Theta (THERMODYNAMICS)  min= -2.00158388906495E+00
DEBUG_STATS_RL:         Theta (THERMODYNAMICS)  max=  3.02432110130311E+01
DEBUG_STATS_RL:         Theta (THERMODYNAMICS) mean=  3.24326689434353E+00
DEBUG_STATS_RL:         Theta (THERMODYNAMICS) S.D.=  5.86276705936225E+00
DEBUG_STATS_RL:          Salt (THERMODYNAMICS)  min=  3.00000000000000E-02
DEBUG_STATS_RL:          Salt (THERMODYNAMICS)  max=  3.74877300643192E+01
DEBUG_STATS_RL:          Salt (THERMODYNAMICS) mean=  1.88748677844640E+01
DEBUG_STATS_RL:          Salt (THERMODYNAMICS) S.D.=  1.73003874267304E+01
DEBUG_STATS_RL:         GtNm1 (THERMODYNAMICS)  min= -3.50532301949329E-06
DEBUG_STATS_RL:         GtNm1 (THERMODYNAMICS)  max=  3.41992738373977E-06
DEBUG_STATS_RL:         GtNm1 (THERMODYNAMICS) mean=  1.20975010976820E-08
DEBUG_STATS_RL:         GtNm1 (THERMODYNAMICS) S.D.=  2.18955982082116E-07
DEBUG_STATS_RL:         GsNm1 (THERMODYNAMICS)  min= -4.76847838654626E-07
DEBUG_STATS_RL:         GsNm1 (THERMODYNAMICS)  max=  3.65588003589599E-07
DEBUG_STATS_RL:         GsNm1 (THERMODYNAMICS) mean=  1.29258336682702E-10
DEBUG_STATS_RL:         GsNm1 (THERMODYNAMICS) S.D.=  2.00676626727664E-08
DEBUG_STATS_RL:                EtaN (DYNAMICS)  min= -1.92952620442919E+00
DEBUG_STATS_RL:                EtaN (DYNAMICS)  max=  1.23413744771121E+00
DEBUG_STATS_RL:                EtaN (DYNAMICS) mean= -1.81951307118545E-01
DEBUG_STATS_RL:                EtaN (DYNAMICS) S.D.=  8.61200944840396E-01
DEBUG_STATS_RL:                Uvel (DYNAMICS)  min= -1.75172349281932E-01
DEBUG_STATS_RL:                Uvel (DYNAMICS)  max=  1.46324772815484E-01
DEBUG_STATS_RL:                Uvel (DYNAMICS) mean=  3.45387305195680E-03
DEBUG_STATS_RL:                Uvel (DYNAMICS) S.D.=  3.05028494342094E-02
DEBUG_STATS_RL:                Vvel (DYNAMICS)  min= -1.16869373097375E-01
DEBUG_STATS_RL:                Vvel (DYNAMICS)  max=  2.08619173720025E-01
DEBUG_STATS_RL:                Vvel (DYNAMICS) mean=  2.44192688387786E-05
DEBUG_STATS_RL:                Vvel (DYNAMICS) S.D.=  1.77139942363431E-02
DEBUG_STATS_RL:                Wvel (DYNAMICS)  min= -1.41836181247346E-04
DEBUG_STATS_RL:                Wvel (DYNAMICS)  max=  1.28099937342090E-04
DEBUG_STATS_RL:                Wvel (DYNAMICS) mean= -3.36205379823781E-07
DEBUG_STATS_RL:                Wvel (DYNAMICS) S.D.=  1.80824943363505E-05
DEBUG_STATS_RL:               Theta (DYNAMICS)  min= -2.00158388906495E+00
DEBUG_STATS_RL:               Theta (DYNAMICS)  max=  3.02432110130311E+01
DEBUG_STATS_RL:               Theta (DYNAMICS) mean=  3.24326689434353E+00
DEBUG_STATS_RL:               Theta (DYNAMICS) S.D.=  5.86276705936225E+00
DEBUG_STATS_RL:                Salt (DYNAMICS)  min=  3.00000000000000E-02
DEBUG_STATS_RL:                Salt (DYNAMICS)  max=  3.74877300643192E+01
DEBUG_STATS_RL:                Salt (DYNAMICS) mean=  1.88748677844640E+01
DEBUG_STATS_RL:                Salt (DYNAMICS) S.D.=  1.73003874267304E+01
DEBUG_STATS_RL:                  Gu (DYNAMICS)  min= -1.71779272660348E-01
DEBUG_STATS_RL:                  Gu (DYNAMICS)  max=  1.51650335741733E-01
DEBUG_STATS_RL:                  Gu (DYNAMICS) mean=  2.82952850751263E-03
DEBUG_STATS_RL:                  Gu (DYNAMICS) S.D.=  3.09538466134511E-02
DEBUG_STATS_RL:                  Gv (DYNAMICS)  min= -1.13120532384052E-01
DEBUG_STATS_RL:                  Gv (DYNAMICS)  max=  2.05516762778556E-01
DEBUG_STATS_RL:                  Gv (DYNAMICS) mean=  2.37937248804707E-03
DEBUG_STATS_RL:                  Gv (DYNAMICS) S.D.=  1.76672047211530E-02
DEBUG_STATS_RL:               GuNm1 (DYNAMICS)  min= -9.64334298925698E-06
DEBUG_STATS_RL:               GuNm1 (DYNAMICS)  max=  8.43314850161540E-06
DEBUG_STATS_RL:               GuNm1 (DYNAMICS) mean= -1.89504648664155E-08
DEBUG_STATS_RL:               GuNm1 (DYNAMICS) S.D.=  1.18891176490929E-06
DEBUG_STATS_RL:               GvNm1 (DYNAMICS)  min= -1.06629304664099E-05
DEBUG_STATS_RL:               GvNm1 (DYNAMICS)  max=  1.63814946383177E-05
DEBUG_STATS_RL:               GvNm1 (DYNAMICS) mean=  7.45501913172916E-07
DEBUG_STATS_RL:               GvNm1 (DYNAMICS) S.D.=  2.61941222724868E-06
DEBUG_STATS_RL:               GtNm1 (DYNAMICS)  min= -3.50532301949329E-06
DEBUG_STATS_RL:               GtNm1 (DYNAMICS)  max=  3.41992738373977E-06
DEBUG_STATS_RL:               GtNm1 (DYNAMICS) mean=  1.20975010976820E-08
DEBUG_STATS_RL:               GtNm1 (DYNAMICS) S.D.=  2.18955982082116E-07
DEBUG_STATS_RL:               GsNm1 (DYNAMICS)  min= -4.76847838654626E-07
DEBUG_STATS_RL:               GsNm1 (DYNAMICS)  max=  3.65588003589599E-07
DEBUG_STATS_RL:               GsNm1 (DYNAMICS) mean=  1.29258336682702E-10
DEBUG_STATS_RL:               GsNm1 (DYNAMICS) S.D.=  2.00676626727664E-08
DEBUG_STATS_RL:    cg2d_b (SOLVE_FOR_PRESSURE)  min= -2.68708782448222E+04
DEBUG_STATS_RL:    cg2d_b (SOLVE_FOR_PRESSURE)  max=  1.88348939694956E+04
DEBUG_STATS_RL:    cg2d_b (SOLVE_FOR_PRESSURE) mean=  2.87626832164776E+00
DEBUG_STATS_RL:    cg2d_b (SOLVE_FOR_PRESSURE) S.D.=  3.93056284965152E+03
 cg2d: Sum(rhs),rhsMax =   2.47798419685058E-01  1.76495122790023E+00
(PID.TID 0000.0001)  cg2d: iter=     1 ; resid.=  3.21790157997589E-01
(PID.TID 0000.0001)  cg2d: iter=     2 ; resid.=  2.65506313521195E-01
(PID.TID 0000.0001)  cg2d: iter=     3 ; resid.=  2.60620715942566E-01
(PID.TID 0000.0001)  cg2d: iter=     4 ; resid.=  2.30371994153819E-01
(PID.TID 0000.0001)  cg2d: iter=     5 ; resid.=  1.94516329685293E-01
(PID.TID 0000.0001)  cg2d: iter=     6 ; resid.=  1.60430755138370E-01
(PID.TID 0000.0001)  cg2d: iter=     7 ; resid.=  1.31950404544740E-01
(PID.TID 0000.0001)  cg2d: iter=     8 ; resid.=  1.12563715080886E-01
(PID.TID 0000.0001)  cg2d: iter=     9 ; resid.=  9.51594087362135E-02
(PID.TID 0000.0001)  cg2d: iter=    10 ; resid.=  7.98623765842119E-02
(PID.TID 0000.0001)  cg2d: iter=    11 ; resid.=  7.24761015746623E-02
(PID.TID 0000.0001)  cg2d: iter=    12 ; resid.=  6.09153851009050E-02
(PID.TID 0000.0001)  cg2d: iter=    13 ; resid.=  4.72179788831622E-02
(PID.TID 0000.0001)  cg2d: iter=    14 ; resid.=  3.89776578628883E-02
(PID.TID 0000.0001)  cg2d: iter=    15 ; resid.=  3.20692796417529E-02
(PID.TID 0000.0001)  cg2d: iter=    16 ; resid.=  2.78545148487541E-02
(PID.TID 0000.0001)  cg2d: iter=    17 ; resid.=  2.34953166645366E-02
(PID.TID 0000.0001)  cg2d: iter=    18 ; resid.=  1.96584976232502E-02
(PID.TID 0000.0001)  cg2d: iter=    19 ; resid.=  1.55320677201046E-02
(PID.TID 0000.0001)  cg2d: iter=    20 ; resid.=  1.22287072869447E-02
(PID.TID 0000.0001)  cg2d: iter=    21 ; resid.=  1.00659976593600E-02
(PID.TID 0000.0001)  cg2d: iter=    22 ; resid.=  8.50922381793574E-03
(PID.TID 0000.0001)  cg2d: iter=    23 ; resid.=  7.15143889201542E-03
(PID.TID 0000.0001)  cg2d: iter=    24 ; resid.=  6.23843963138771E-03
(PID.TID 0000.0001)  cg2d: iter=    25 ; resid.=  4.89248153413213E-03
(PID.TID 0000.0001)  cg2d: iter=    26 ; resid.=  4.09115050687444E-03
(PID.TID 0000.0001)  cg2d: iter=    27 ; resid.=  3.44998728026854E-03
(PID.TID 0000.0001)  cg2d: iter=    28 ; resid.=  3.04118435042646E-03
(PID.TID 0000.0001)  cg2d: iter=    29 ; resid.=  2.52121105216161E-03
(PID.TID 0000.0001)  cg2d: iter=    30 ; resid.=  2.17286407068061E-03
(PID.TID 0000.0001)  cg2d: iter=    31 ; resid.=  1.67814770897159E-03
(PID.TID 0000.0001)  cg2d: iter=    32 ; resid.=  1.29077510808960E-03
(PID.TID 0000.0001)  cg2d: iter=    33 ; resid.=  1.11277349246062E-03
(PID.TID 0000.0001)  cg2d: iter=    34 ; resid.=  9.65202891419885E-04
(PID.TID 0000.0001)  cg2d: iter=    35 ; resid.=  7.66678149326386E-04
(PID.TID 0000.0001)  cg2d: iter=    36 ; resid.=  6.10590002901707E-04
(PID.TID 0000.0001)  cg2d: iter=    37 ; resid.=  4.91973565579310E-04
(PID.TID 0000.0001)  cg2d: iter=    38 ; resid.=  4.40818242046234E-04
(PID.TID 0000.0001)  cg2d: iter=    39 ; resid.=  3.98433065034719E-04
(PID.TID 0000.0001)  cg2d: iter=    40 ; resid.=  3.54463758063115E-04
(PID.TID 0000.0001)  cg2d: iter=    41 ; resid.=  3.13601195241330E-04
(PID.TID 0000.0001)  cg2d: iter=    42 ; resid.=  2.75291616364318E-04
(PID.TID 0000.0001)  cg2d: iter=    43 ; resid.=  2.33543104419205E-04
(PID.TID 0000.0001)  cg2d: iter=    44 ; resid.=  1.81608575596935E-04
(PID.TID 0000.0001)  cg2d: iter=    45 ; resid.=  1.39395956890765E-04
(PID.TID 0000.0001)  cg2d: iter=    46 ; resid.=  1.12290209166376E-04
(PID.TID 0000.0001)  cg2d: iter=    47 ; resid.=  1.01693848460722E-04
(PID.TID 0000.0001)  cg2d: iter=    48 ; resid.=  8.51851200443013E-05
(PID.TID 0000.0001)  cg2d: iter=    49 ; resid.=  7.07939155359867E-05
(PID.TID 0000.0001)  cg2d: iter=    50 ; resid.=  6.13815158610148E-05
(PID.TID 0000.0001)  cg2d: iter=    51 ; resid.=  4.99604251438849E-05
(PID.TID 0000.0001)  cg2d: iter=    52 ; resid.=  3.99583991190478E-05
(PID.TID 0000.0001)  cg2d: iter=    53 ; resid.=  3.40898552773316E-05
(PID.TID 0000.0001)  cg2d: iter=    54 ; resid.=  2.94138628058864E-05
(PID.TID 0000.0001)  cg2d: iter=    55 ; resid.=  2.54438993716449E-05
(PID.TID 0000.0001)  cg2d: iter=    56 ; resid.=  1.99629300755032E-05
(PID.TID 0000.0001)  cg2d: iter=    57 ; resid.=  1.58041705984091E-05
(PID.TID 0000.0001)  cg2d: iter=    58 ; resid.=  1.25989575757948E-05
(PID.TID 0000.0001)  cg2d: iter=    59 ; resid.=  1.04675401827315E-05
(PID.TID 0000.0001)  cg2d: iter=    60 ; resid.=  8.47203474666356E-06
(PID.TID 0000.0001)  cg2d: iter=    61 ; resid.=  7.15777462910347E-06
(PID.TID 0000.0001)  cg2d: iter=    62 ; resid.=  6.23269136911071E-06
(PID.TID 0000.0001)  cg2d: iter=    63 ; resid.=  5.34094616905246E-06
(PID.TID 0000.0001)  cg2d: iter=    64 ; resid.=  4.37503133544817E-06
(PID.TID 0000.0001)  cg2d: iter=    65 ; resid.=  3.71081120577396E-06
(PID.TID 0000.0001)  cg2d: iter=    66 ; resid.=  3.20130996841554E-06
(PID.TID 0000.0001)  cg2d: iter=    67 ; resid.=  2.67580525067407E-06
(PID.TID 0000.0001)  cg2d: iter=    68 ; resid.=  2.11225127201098E-06
(PID.TID 0000.0001)  cg2d: iter=    69 ; resid.=  1.55869870355663E-06
(PID.TID 0000.0001)  cg2d: iter=    70 ; resid.=  1.25496700461039E-06
(PID.TID 0000.0001)  cg2d: iter=    71 ; resid.=  1.09906032697107E-06
(PID.TID 0000.0001)  cg2d: iter=    72 ; resid.=  9.72101710452381E-07
(PID.TID 0000.0001)  cg2d: iter=    73 ; resid.=  8.37152950767680E-07
(PID.TID 0000.0001)  cg2d: iter=    74 ; resid.=  7.00763019716783E-07
(PID.TID 0000.0001)  cg2d: iter=    75 ; resid.=  5.53926569968829E-07
(PID.TID 0000.0001)  cg2d: iter=    76 ; resid.=  4.94280201549351E-07
(PID.TID 0000.0001)  cg2d: iter=    77 ; resid.=  4.08367013064483E-07
(PID.TID 0000.0001)  cg2d: iter=    78 ; resid.=  3.47311709482641E-07
(PID.TID 0000.0001)  cg2d: iter=    79 ; resid.=  2.67936430521879E-07
(PID.TID 0000.0001)  cg2d: iter=    80 ; resid.=  2.05573382590219E-07
(PID.TID 0000.0001)  cg2d: iter=    81 ; resid.=  1.58651741703332E-07
(PID.TID 0000.0001)  cg2d: iter=    82 ; resid.=  1.16097721125973E-07
(PID.TID 0000.0001)  cg2d: iter=    83 ; resid.=  8.30969289787149E-08
(PID.TID 0000.0001)  cg2d: iter=    84 ; resid.=  6.57065985037209E-08
(PID.TID 0000.0001)  cg2d: iter=    85 ; resid.=  4.96624252660555E-08
(PID.TID 0000.0001)  cg2d: iter=    86 ; resid.=  4.10702652571878E-08
(PID.TID 0000.0001)  cg2d: iter=    87 ; resid.=  3.25321588243917E-08
(PID.TID 0000.0001)  cg2d: iter=    88 ; resid.=  2.64652448279934E-08
(PID.TID 0000.0001)  cg2d: iter=    89 ; resid.=  2.15268047408443E-08
(PID.TID 0000.0001)  cg2d: iter=    90 ; resid.=  1.62997452602395E-08
(PID.TID 0000.0001)  cg2d: iter=    91 ; resid.=  1.20393667695386E-08
(PID.TID 0000.0001)  cg2d: iter=    92 ; resid.=  8.89025134712271E-09
(PID.TID 0000.0001)  cg2d: iter=    93 ; resid.=  6.83509685489296E-09
(PID.TID 0000.0001)  cg2d: iter=    94 ; resid.=  5.18430522447661E-09
(PID.TID 0000.0001)  cg2d: iter=    95 ; resid.=  4.22669031944028E-09
(PID.TID 0000.0001)  cg2d: iter=    96 ; resid.=  3.16633535040888E-09
(PID.TID 0000.0001)  cg2d: iter=    97 ; resid.=  2.40226944520131E-09
(PID.TID 0000.0001)  cg2d: iter=    98 ; resid.=  1.87742198242932E-09
(PID.TID 0000.0001)  cg2d: iter=    99 ; resid.=  1.61461048297294E-09
(PID.TID 0000.0001)  cg2d: iter=   100 ; resid.=  1.42207782912973E-09
(PID.TID 0000.0001)  cg2d: iter=   101 ; resid.=  1.14282479754729E-09
(PID.TID 0000.0001)  cg2d: iter=   102 ; resid.=  9.01480352239464E-10
(PID.TID 0000.0001)  cg2d: iter=   103 ; resid.=  7.61697287259658E-10
(PID.TID 0000.0001)  cg2d: iter=   104 ; resid.=  6.08641355246650E-10
(PID.TID 0000.0001)  cg2d: iter=   105 ; resid.=  4.86314111379434E-10
(PID.TID 0000.0001)  cg2d: iter=   106 ; resid.=  4.22302150544755E-10
(PID.TID 0000.0001)  cg2d: iter=   107 ; resid.=  3.28389991527501E-10
(PID.TID 0000.0001)  cg2d: iter=   108 ; resid.=  2.76271578668890E-10
(PID.TID 0000.0001)  cg2d: iter=   109 ; resid.=  2.23778024002290E-10
(PID.TID 0000.0001)  cg2d: iter=   110 ; resid.=  1.92887575205113E-10
(PID.TID 0000.0001)  cg2d: iter=   111 ; resid.=  1.60599372142536E-10
(PID.TID 0000.0001)  cg2d: iter=   112 ; resid.=  1.12732230098502E-10
(PID.TID 0000.0001)  cg2d: iter=   113 ; resid.=  8.46402434776625E-11
(PID.TID 0000.0001)  cg2d: iter=   114 ; resid.=  6.72280713997208E-11
(PID.TID 0000.0001)  cg2d: iter=   115 ; resid.=  4.88948964406051E-11
(PID.TID 0000.0001)  cg2d: iter=   116 ; resid.=  3.80572941489506E-11
(PID.TID 0000.0001)  cg2d: iter=   117 ; resid.=  3.11713400064614E-11
(PID.TID 0000.0001)  cg2d: iter=   118 ; resid.=  2.46658602292457E-11
(PID.TID 0000.0001)  cg2d: iter=   119 ; resid.=  1.85263631871573E-11
(PID.TID 0000.0001)  cg2d: iter=   120 ; resid.=  1.34497446160251E-11
(PID.TID 0000.0001)  cg2d: iter=   121 ; resid.=  1.06480160987612E-11
(PID.TID 0000.0001)  cg2d: iter=   122 ; resid.=  7.99338506533107E-12
(PID.TID 0000.0001)  cg2d: iter=   123 ; resid.=  5.60290556091577E-12
(PID.TID 0000.0001)  cg2d: iter=   124 ; resid.=  3.66975714253990E-12
(PID.TID 0000.0001)  cg2d: iter=   125 ; resid.=  2.57411057668537E-12
(PID.TID 0000.0001)  cg2d: iter=   126 ; resid.=  1.93211991664740E-12
(PID.TID 0000.0001)  cg2d: iter=   127 ; resid.=  1.33579788784982E-12
(PID.TID 0000.0001)  cg2d: iter=   128 ; resid.=  9.69784582306328E-13
(PID.TID 0000.0001)  cg2d: iter=   129 ; resid.=  7.14410747951136E-13
(PID.TID 0000.0001)  cg2d: iter=   130 ; resid.=  5.53242148449509E-13
(PID.TID 0000.0001)  cg2d: iter=   131 ; resid.=  4.11275621273897E-13
(PID.TID 0000.0001)  cg2d: iter=   132 ; resid.=  3.00863895448787E-13
(PID.TID 0000.0001)  cg2d: iter=   133 ; resid.=  2.34501720935649E-13
(PID.TID 0000.0001)  cg2d: iter=   134 ; resid.=  1.83581276983225E-13
(PID.TID 0000.0001)  cg2d: iter=   135 ; resid.=  1.46697680934679E-13
(PID.TID 0000.0001)  cg2d: iter=   136 ; resid.=  1.05780640829012E-13
(PID.TID 0000.0001)  cg2d: iter=   137 ; resid.=  9.27234936353110E-14
DEBUG_STATS_RL:    cg2d_x (SOLVE_FOR_PRESSURE)  min= -2.03051215956855E+01
DEBUG_STATS_RL:    cg2d_x (SOLVE_FOR_PRESSURE)  max=  1.24297570560235E+01
DEBUG_STATS_RL:    cg2d_x (SOLVE_FOR_PRESSURE) mean= -1.83541455070529E+00
DEBUG_STATS_RL:    cg2d_x (SOLVE_FOR_PRESSURE) S.D.=  8.76803477088446E+00
(PID.TID 0000.0001)      cg2d_init_res =   4.63855151895317E-01
(PID.TID 0000.0001)      cg2d_iters(min,last) =      -1     137
(PID.TID 0000.0001)      cg2d_last_res =   9.27234936353110E-14
(PID.TID 0000.0001) // =======================================================
(PID.TID 0000.0001) // Begin MONITOR dynamic field statistics
(PID.TID 0000.0001) // =======================================================
(PID.TID 0000.0001) %MON time_tsnumber                =                    40
(PID.TID 0000.0001) %MON time_secondsf                =   3.4560000000000E+06
(PID.TID 0000.0001) %MON dynstat_eta_max              =   1.2670496489321E+00
(PID.TID 0000.0001) %MON dynstat_eta_min              =  -2.0698391025164E+00
(PID.TID 0000.0001) %MON dynstat_eta_mean             =  -3.0010293481421E-03
(PID.TID 0000.0001) %MON dynstat_eta_sd               =   8.3109503168747E-01
(PID.TID 0000.0001) %MON dynstat_eta_del2             =   2.3455262245344E-03
(PID.TID 0000.0001) %MON dynstat_uvel_max             =   1.5025365885605E-01
(PID.TID 0000.0001) %MON dynstat_uvel_min             =  -1.7166788878206E-01
(PID.TID 0000.0001) %MON dynstat_uvel_mean            =   1.4305666521963E-03
(PID.TID 0000.0001) %MON dynstat_uvel_sd              =   2.3197878206370E-02
(PID.TID 0000.0001) %MON dynstat_uvel_del2            =   1.1815657617869E-04
(PID.TID 0000.0001) %MON dynstat_vvel_max             =   2.0422822551520E-01
(PID.TID 0000.0001) %MON dynstat_vvel_min             =  -1.1753278628441E-01
(PID.TID 0000.0001) %MON dynstat_vvel_mean            =  -1.4465260189809E-04
(PID.TID 0000.0001) %MON dynstat_vvel_sd              =   1.2781437140904E-02
(PID.TID 0000.0001) %MON dynstat_vvel_del2            =   1.0381878397632E-04
(PID.TID 0000.0001) %MON dynstat_wvel_max             =   1.2870579149585E-04
(PID.TID 0000.0001) %MON dynstat_wvel_min             =  -1.5921753506965E-04
(PID.TID 0000.0001) %MON dynstat_wvel_mean            =   2.9556518827387E-22
(PID.TID 0000.0001) %MON dynstat_wvel_sd              =   2.0668193126494E-05
(PID.TID 0000.0001) %MON dynstat_wvel_del2            =   2.0749541982778E-07
(PID.TID 0000.0001) %MON dynstat_theta_max            =   3.0243211013031E+01
(PID.TID 0000.0001) %MON dynstat_theta_min            =  -2.0015838890650E+00
(PID.TID 0000.0001) %MON dynstat_theta_mean           =   3.6516248797947E+00
(PID.TID 0000.0001) %MON dynstat_theta_sd             =   4.4188831727163E+00
(PID.TID 0000.0001) %MON dynstat_theta_del2           =   4.7898561379508E-03
(PID.TID 0000.0001) %MON dynstat_salt_max             =   3.7487730064319E+01
(PID.TID 0000.0001) %MON dynstat_salt_min             =   2.9844716786888E+01
(PID.TID 0000.0001) %MON dynstat_salt_mean            =   3.4748031837332E+01
(PID.TID 0000.0001) %MON dynstat_salt_sd              =   2.9640364666714E-01
(PID.TID 0000.0001) %MON dynstat_salt_del2            =   9.8906824774507E-04
(PID.TID 0000.0001) %MON dynstat_sst_max              =   3.0243211013031E+01
(PID.TID 0000.0001) %MON dynstat_sst_min              =  -2.0015838890650E+00
(PID.TID 0000.0001) %MON dynstat_sst_mean             =   1.8861774212528E+01
(PID.TID 0000.0001) %MON dynstat_sst_sd               =   9.0147063940157E+00
(PID.TID 0000.0001) %MON dynstat_sst_del2             =   2.7140179758578E-02
(PID.TID 0000.0001) %MON dynstat_sss_max              =   3.7460450323515E+01
(PID.TID 0000.0001) %MON dynstat_sss_min              =   2.9844716786888E+01
(PID.TID 0000.0001) %MON dynstat_sss_mean             =   3.4874657583791E+01
(PID.TID 0000.0001) %MON dynstat_sss_sd               =   9.7684427465803E-01
(PID.TID 0000.0001) %MON dynstat_sss_del2             =   7.8891622282525E-03
(PID.TID 0000.0001) %MON forcing_qnet_max             =   3.6657749633789E+02
(PID.TID 0000.0001) %MON forcing_qnet_min             =  -1.7427108459473E+02
(PID.TID 0000.0001) %MON forcing_qnet_mean            =  -1.4474705983364E+01
(PID.TID 0000.0001) %MON forcing_qnet_sd              =   8.5215174338696E+01
(PID.TID 0000.0001) %MON forcing_qnet_del2            =   9.5536523035188E-01
(PID.TID 0000.0001) %MON forcing_qsw_max              =   0.0000000000000E+00
(PID.TID 0000.0001) %MON forcing_qsw_min              =   0.0000000000000E+00
(PID.TID 0000.0001) %MON forcing_qsw_mean             =   0.0000000000000E+00
(PID.TID 0000.0001) %MON forcing_qsw_sd               =   0.0000000000000E+00
(PID.TID 0000.0001) %MON forcing_qsw_del2             =   0.0000000000000E+00
(PID.TID 0000.0001) %MON forcing_empmr_max            =   7.4636085400925E-05
(PID.TID 0000.0001) %MON forcing_empmr_min            =  -7.8067418485261E-05
(PID.TID 0000.0001) %MON forcing_empmr_mean           =   9.3931459634963E-07
(PID.TID 0000.0001) %MON forcing_empmr_sd             =   2.8013374744488E-05
(PID.TID 0000.0001) %MON forcing_empmr_del2           =   3.5400124581310E-07
(PID.TID 0000.0001) %MON forcing_fu_max               =   2.9631257653236E-01
(PID.TID 0000.0001) %MON forcing_fu_min               =  -2.0577280819416E-01
(PID.TID 0000.0001) %MON forcing_fu_mean              =   1.7304940323822E-02
(PID.TID 0000.0001) %MON forcing_fu_sd                =   9.1389471133942E-02
(PID.TID 0000.0001) %MON forcing_fu_del2              =   7.0083075453383E-04
(PID.TID 0000.0001) %MON forcing_fv_max               =   1.8891317546368E-01
(PID.TID 0000.0001) %MON forcing_fv_min               =  -1.8064786195755E-01
(PID.TID 0000.0001) %MON forcing_fv_mean              =  -6.8251595006693E-03
(PID.TID 0000.0001) %MON forcing_fv_sd                =   4.4564502921920E-02
(PID.TID 0000.0001) %MON forcing_fv_del2              =   4.9975827974748E-04
(PID.TID 0000.0001) %MON trAdv_CFL_u_max              =   4.8360020890271E-02
(PID.TID 0000.0001) %MON trAdv_CFL_v_max              =   4.2462216953685E-02
(PID.TID 0000.0001) %MON trAdv_CFL_w_max              =   6.4717522866076E-02
(PID.TID 0000.0001) %MON advcfl_uvel_max              =   4.9200888645622E-02
(PID.TID 0000.0001) %MON advcfl_vvel_max              =   3.9678268790658E-02
(PID.TID 0000.0001) %MON advcfl_wvel_max              =   5.7403118943095E-02
(PID.TID 0000.0001) %MON advcfl_W_hf_max              =   6.7653675897219E-02
(PID.TID 0000.0001) %MON pe_b_mean                    =   8.8386967749425E-04
(PID.TID 0000.0001) %MON ke_max                       =   2.0132279661460E-02
(PID.TID 0000.0001) %MON ke_mean                      =   3.1876678123375E-04
(PID.TID 0000.0001) %MON ke_vol                       =   1.3226782436723E+18
(PID.TID 0000.0001) %MON vort_r_min                   =  -5.0759944089110E-07
(PID.TID 0000.0001) %MON vort_r_max                   =   6.1818410039331E-07
(PID.TID 0000.0001) %MON vort_a_mean                  =  -2.5274806392214E-05
(PID.TID 0000.0001) %MON vort_a_sd                    =   7.3604534064631E-05
(PID.TID 0000.0001) %MON vort_p_mean                  =  -3.1845654532898E-05
(PID.TID 0000.0001) %MON vort_p_sd                    =   1.3162461425670E-04
(PID.TID 0000.0001) %MON surfExpan_theta_mean         =   7.2743487278098E-07
(PID.TID 0000.0001) %MON surfExpan_salt_mean          =  -1.6511360198185E-07
(PID.TID 0000.0001) // =======================================================
(PID.TID 0000.0001) // End MONITOR dynamic field statistics
(PID.TID 0000.0001) // =======================================================
(PID.TID 0000.0001) // =======================================================
(PID.TID 0000.0001) // Field Current uVel   at iteration         40
(PID.TID 0000.0001) // CMIN =         -1.716678887820600E-01
(PID.TID 0000.0001) // CMAX =          1.502536588560526E-01
(PID.TID 0000.0001) // CINT =          1.192302028289306E-02
(PID.TID 0000.0001) // SYMBOLS (CMIN->CMAX): -abcdefghijklmnopqrstuvwxyz+
(PID.TID 0000.0001) //                  0.0: .
(PID.TID 0000.0001) // RANGE I (Lo:Hi:Step):(     1:    90:     1)
(PID.TID 0000.0001) // RANGE J (Lo:Hi:Step):(    40:     1:    -1)
(PID.TID 0000.0001) // RANGE K (Lo:Hi:Step):(   1:   1:   1)
(PID.TID 0000.0001) // =======================================================
(PID.TID 0000.0001) K =   1
(PID.TID 0000.0001)                I=10      I=20      I=30      I=40      I=50      I=60      I=70      I=80      I=90
(PID.TID 0000.0001) |--J--|123456789|123456789|123456789|123456789|123456789|123456789|123456789|123456789|123456789|
(PID.TID 0000.0001)     40 nnnmn..nnnnnnnmmnnn...................................................................nmmn
(PID.TID 0000.0001)     39 ooonllllllllmn....o......................................................noo.........nnooo
(PID.TID 0000.0001)     38 pqrqppooooooo............................................................nnmn.......mmmmno
(PID.TID 0000.0001)     37 pqp...................................................................n....lm....mnmm..noo
(PID.TID 0000.0001)     36 op..........................................nnn.....................nnooooomkl..nnnnnnnmmn
(PID.TID 0000.0001)     35 oo..................................nnn...nmkjjn....oooo............no.....nlmonnopppppppo
(PID.TID 0000.0001)     34 ....................................nkl..nmlkkjl..oooonnn...................onnoqrrrrrrq..
(PID.TID 0000.0001)     33 .....................................lopnmnmmmmnopoppppoonm..................kmptuutssrnn.
(PID.TID 0000.0001)     32 .....................................lmmnnoppppppppqqqqppoo.................nlnprstrqqpop.
(PID.TID 0000.0001)     31 .....................................kmnoppppqqqqppqqqppppp...............qrrpqrrsrppppp..
(PID.TID 0000.0001)     30 ....................................oopppqqqqqpqqqqqqpppppp.............ooqpqqrrrrqppppo..
(PID.TID 0000.0001)     29 ..................................norrqqqqqqqqqpqqqqqpqqppoo............rqqppppqqqqpppon..
(PID.TID 0000.0001)     28 ................................npqqpqqpoooppqpppqqqqqqqqppoo..........oqppoopppqqqqpoon..
(PID.TID 0000.0001)     27 ...............n...............qsrqppponopooppppqqqqqqqqqpooon....ooo..rsqqpoopqqqppon....
(PID.TID 0000.0001)     26 ...............oo............mpqqonmmmmmnonnnmnnooooooonnmllmnoo..norrqsrpponnnooonmml....
(PID.TID 0000.0001)     25 ...............nmn....nn....ljllmiffffgghihiihiijjjiiihhggghjklmn....mmmjkkijjiijjihhi....
(PID.TID 0000.0001)     24 .............kkjjkm..mlm....jk..jd----aabbbccccdeffedddbacceggijjkkl..ihgfdefeeeffeefh....
(PID.TID 0000.0001)     23 .............gefghj..hik....jm...fbaa-aaaaaccdeggghgghhhggfghhihgghij.....fcifeffffhij....
(PID.TID 0000.0001)     22 n............fdeeegigghk....m..mgkjhggggfffghijkkklllmoonlklklmmkkkjkl.......kjgghilnmooqn
(PID.TID 0000.0001)     21 mnl.........ijihhgjkkmmpn......snqppnlmmmklmnmnmllnnnnpoonmmnoppnnmlmn.........ljjloponoqn
(PID.TID 0000.0001)     20 nol........lmpppommopqpqp.........qqqqqnppqrrpppooonpoonoommopppnnnllm..........nkmnnnnopn
(PID.TID 0000.0001)     19 oom........nmqssqonooonnnnn....pq......lotustsrrrrqopoonnmllmmlkkllkjl............llmmnnmm
(PID.TID 0000.0001)     18 lmm........lfjkihgikjkijkmnpqqpoo....qsnqssrsrqqqqqppommlkjiihfghhjjijm...........lkllmljj
(PID.TID 0000.0001)     17 gik..........ifcbdghhiiijlmopqq......opoqponnmllmopponlkkjihgfefffhihhi..........pmjiigfff
(PID.TID 0000.0001)     16 efi.......q..ljggjkkkjkkkllnon........nnnnmkkljklnoonnlkljiihggfgghhhghl.........pljigddde
(PID.TID 0000.0001)     15 fggk.....ln..nlllmlonnnnmmlmn..........llmmllnmkmpqponmmmmlkjiiiiiiiihhim.......lpmlkihgfg
(PID.TID 0000.0001)     14 iiij.....oljknmnnnmonlnonnllm..........nmnnmnnomnqrqpoonnoollllkjkkkkkjjl......loonmlkjjii
(PID.TID 0000.0001)     13 lllj.....nnmmnmmnnnnmmnnonmll..........pononpppooqqqpppooponnonlmmnmmmlmm.....noooommmmmll
(PID.TID 0000.0001)     12 nonmnrpnnooonmmnnnooooooponmmmnnmm.....pooqtsrqoppppoppppppopponoopoonnn......rppppoopooon
(PID.TID 0000.0001)     11 qqponooqrssssrqqpqrqrrrrqqqppppqpoo...qpoop..ttqqqpppppoppppqppoqrqqppon.....pqqrrrrrrrrrq
(PID.TID 0000.0001)     10 uttsstvvvwxyyxxxwwxwvvuuuuttsssrrrqp..ppppr..surqppppqppppqrrrrrsttsrrqp...rqrrstttuuvvvvu
(PID.TID 0000.0001)      9 xxwwxxyyxyz+zyzzxyyyyyxxyxxwwvuuuuuuuusssq..xutrrrrrqrrrrrstttstuuutssrs..strttuuvvwwxyzyy
(PID.TID 0000.0001)      8 xxyzyyxxxxxyyxxwtsuvxzzyyyxxxwwxxxz+zxxxwvqursttuvvvvvuuvwvvvuuuuuutttts..nnptuvwwwvvwxyyx
(PID.TID 0000.0001)      7 uvvvutttuutuvvuutqqqsuvvvvuuuuvwxxyz+zzzzyywuuuuvwxyyyyxwwvuuuuvvuuuuuvxwqnoqtuuutttstttuu
(PID.TID 0000.0001)      6 qqqppppqrrrrrsssssrqpoqqrrrrrsstuuuuuuvwxyyxvvuvvvvvvvvvuutsttuuuuvvvvwwwuttttsssrqqqqqqqq
(PID.TID 0000.0001)      5 nmmnnnooooppopppqqqonnnnnnnoopppppqqpqrrtuvvuuttssrrqqqqqrssssssttttuuuutrqqooopppoooooonn
(PID.TID 0000.0001)      4 llkllmmmmmmmmmmnnnnmmmlkhhjlmnnnnnnnnnnnnopqqpppooonnnmnoopqqqqqqqqqqqqpon...nnnnmmmmmmmll
(PID.TID 0000.0001)      3 mmllmmnmnn.............................mmmlkklmmmllllllmmmnnnnnnooonnnonn...nkjklmmllkklmm
(PID.TID 0000.0001)      2 ...........................................nooppooooooooooooooon...nnn......noopoooonoo...
(PID.TID 0000.0001)      1 ..........................................................................................
(PID.TID 0000.0001) // =======================================================
(PID.TID 0000.0001) // END OF FIELD                                          =
(PID.TID 0000.0001) // =======================================================
(PID.TID 0000.0001) 
(PID.TID 0000.0001) // =======================================================
(PID.TID 0000.0001) // Field Current vVel   at iteration         40
(PID.TID 0000.0001) // CMIN =         -1.175327862844105E-01
(PID.TID 0000.0001) // CMAX =          2.042282255152017E-01
(PID.TID 0000.0001) // CINT =          1.191707451109675E-02
(PID.TID 0000.0001) // SYMBOLS (CMIN->CMAX): -abcdefghijklmnopqrstuvwxyz+
(PID.TID 0000.0001) //                  0.0: .
(PID.TID 0000.0001) // RANGE I (Lo:Hi:Step):(     1:    90:     1)
(PID.TID 0000.0001) // RANGE J (Lo:Hi:Step):(    40:     1:    -1)
(PID.TID 0000.0001) // RANGE K (Lo:Hi:Step):(   1:   1:   1)
(PID.TID 0000.0001) // =======================================================
(PID.TID 0000.0001) K =   1
(PID.TID 0000.0001)                I=10      I=20      I=30      I=40      I=50      I=60      I=70      I=80      I=90
(PID.TID 0000.0001) |--J--|123456789|123456789|123456789|123456789|123456789|123456789|123456789|123456789|123456789|
(PID.TID 0000.0001)     40 ijmnm.hjjjjiih...kk..................................................................ihhgh
(PID.TID 0000.0001)     39 iijkkkkkjjjkk...........................................................jihi........jjiiih
(PID.TID 0000.0001)     38 ijk.......................................................................ihi......ih.kjii
(PID.TID 0000.0001)     37 ik...................................................................ji...hgh...iijjk.hhhh
(PID.TID 0000.0001)     36 jj.........................................lmlj....................jij....hfgg.ifhijjiijji
(PID.TID 0000.0001)     35 ...................................ijkj..lkklljj...kjkll...................hffggghjjjkmn..
(PID.TID 0000.0001)     34 ....................................iji.kjiiklll.lkjkklml...................hdfhhjklkklm..
(PID.TID 0000.0001)     33 ....................................kkjjijjjkmlllllllmlllll.................kegjjjkkkjjkl.
(PID.TID 0000.0001)     32 ....................................hkiijjkkllkkllllmmmlkkk................ghgikjiiiiijk..
(PID.TID 0000.0001)     31 ....................................jkjjjkkjjjjjjjkklllkkjk..............knmkjjjihhijjkk..
(PID.TID 0000.0001)     30 ...................................jmljjjjihhhhhhhhiijiiiii............konmkihhgggghijkk..
(PID.TID 0000.0001)     29 .................................ikkjhggggfeeeffffffghhhhihi...........jljihhhhhhhhhijlj..
(PID.TID 0000.0001)     28 ...............................kkkjhgffffeeeeffeeffffgghhihhh.........jjjihhhhhhiihiii....
(PID.TID 0000.0001)     27 ..............jj..............ommmlkjjihhggghhhhhiihhiiijjjihh...kjkk.lkkkkkkjjkllkkji....
(PID.TID 0000.0001)     26 ..............lkm...........lorrqqqpoonnmlkkkkklmmllllmmmllljiii....mmmlnmmnmmnnnnnmki....
(PID.TID 0000.0001)     25 ..............mmon...lij...kkm.srrrrqrrrqppooooppppoopoopponmljij....opqopppooppponmlm....
(PID.TID 0000.0001)     24 ............jkmnomi.jkii...jkj..klopqqrrrrqppppooppooooooppoonlkllml.....nprnoqqpnmmnp....
(PID.TID 0000.0001)     23 ............hjmnnmi.efij...hl...-ehijikmnmlmllkllmmmmnmnooonmlkjklmml.......ilnoonnmmm....
(PID.TID 0000.0001)     22 l...........egjkkkigdeik......id-cedefghhhihhijklmnnnoopponmkiiijjklki........kkklmmmlkjjk
(PID.TID 0000.0001)     21 ihh........ghihgffggfhkml......l.ffhihhkkjjjjklmmmnoooqqqpoomllllkkkkl.........hilnnonmkji
(PID.TID 0000.0001)     20 ffg.......kknnmjggijklmnl......j......moomklmmmnnmmnonoppooooooonmlllj...........oonmmlllj
(PID.TID 0000.0001)     19 feg.......mlrrspmkjklllkihh...jhi.....vsomllllkllkjjllmmlkklmmnmkkjkkj...........ollkkjjjh
(PID.TID 0000.0001)     18 hgi.......l.tspmkhffgihhghhijkf.....jlolkjiiihhjkiiijjkjhghijjjjhggillk..........mkiijjiii
(PID.TID 0000.0001)     17 iii.......l.lnkigdcccfgffghijl.......kmkihiiheegiiiiiihgffgggghhgfghkkj.........ijjiijighi
(PID.TID 0000.0001)     16 hhj......lj.imkjihiihfggghiii.........lljiihgfehjjjjiiihggggghhihgghijji........ikjhhhgfgg
(PID.TID 0000.0001)     15 hiji....fji.fjkjjihjiihiiiiii.........jlkijihiijkkklkkkjijjjjjjjihhiiikki......ehkkiijihii
(PID.TID 0000.0001)     14 kkkh....gjjhgikkkjijjihijjiih.........ilkjkjiiijkklkkkkkjkkjjkjjjjjjjjklj.....efikkjjjjjkj
(PID.TID 0000.0001)     13 kllj....fhjihijjjkkkjijjkkjkj.........ijjkkiiiijkkkkkkkkjjjiijjjkjjkllmm.....heghjkjjjijkk
(PID.TID 0000.0001)     12 kklkjgeeddghhhjjjjjkiiijjjjkjijjkl....iijlo.ghiijjiijjjjjijjiiijkkjjklmm.....hhhhijiiiiijk
(PID.TID 0000.0001)     11 jjjiffedcbdeccfgggggghhiijjjiiiiijk..khhiln.ijjijjiiijjjkjiiihhikkkjjklm....efhhgghhghhhij
(PID.TID 0000.0001)     10 jjjjihgfeeegfdefhigffhiiiijjjiiihhkk.lihhm..tnkiijjjjiiikkkjiihikllkkklm..ogefijihhhgghhhj
(PID.TID 0000.0001)      9 jjjkkjihhggijjijoupjhijkkjjjiihhhgjljihhio.sqliiiiiiiiiijjkkjiijlmlllkkn.qqokiikljjihijjij
(PID.TID 0000.0001)      8 lllkkkjjjjjkkkllq++rlkkkllkkjiiihhjjhggghnrsolkkkkjiiiikkjkkjiiklllllkij.psrpnmmmmkjjkllll
(PID.TID 0000.0001)      7 llkkkkkkkkkkkkklnuzvpmlllkkkkjkkjklkiggffilnnmmmnmlkjhhijjkkkjjjklllkkllopooonmmmmlkjkmmmm
(PID.TID 0000.0001)      6 lkjjjjjkkkjjjjjjloqqnlkkjiiijjjjjjkkkjhgghkmmmnonmmmljhhhijkkkjjklllklmmnonnnnmmllkjjkllll
(PID.TID 0000.0001)      5 jjiiihiijiiiiiiijkkkjihghhhhhhiiiiijkkjiiijkklmnmlllkjihhijkkjjjkkkkkllkji..nomlkkjjjjjjjj
(PID.TID 0000.0001)      4 hhgggggggh............................kkjjiiijkkkkjjiihiijkkkjjijjjjkkjii...lkjijjjjjjiiii
(PID.TID 0000.0001)      3 ..........................................igggghhiiihhijkklkkjii..iiij.....jihgghijjkkk...
(PID.TID 0000.0001)      2 ..........................................................................................
(PID.TID 0000.0001)      1 ..........................................................................................
(PID.TID 0000.0001) // =======================================================
(PID.TID 0000.0001) // END OF FIELD                                          =
(PID.TID 0000.0001) // =======================================================
(PID.TID 0000.0001) 
(PID.TID 0000.0001) // =======================================================
(PID.TID 0000.0001) // Field Current theta  at iteration         40
(PID.TID 0000.0001) // CMIN =         -2.001583889064951E+00
(PID.TID 0000.0001) // CMAX =          3.024321101303108E+01
(PID.TID 0000.0001) // CINT =          1.194251663040593E+00
(PID.TID 0000.0001) // SYMBOLS (CMIN->CMAX): -abcdefghijklmnopqrstuvwxyz+
(PID.TID 0000.0001) //                  0.0: .
(PID.TID 0000.0001) // RANGE I (Lo:Hi:Step):(     1:    90:     1)
(PID.TID 0000.0001) // RANGE J (Lo:Hi:Step):(    40:     1:    -1)
(PID.TID 0000.0001) // RANGE K (Lo:Hi:Step):(   1:   1:   1)
(PID.TID 0000.0001) // =======================================================
(PID.TID 0000.0001) K =   1
(PID.TID 0000.0001)                I=10      I=20      I=30      I=40      I=50      I=60      I=70      I=80      I=90
(PID.TID 0000.0001) |--J--|123456789|123456789|123456789|123456789|123456789|123456789|123456789|123456789|123456789|
(PID.TID 0000.0001)     40 -bbccbaa-----aacdddbbbbbbbbbbbbbbbbbbbbbbbbbbbbbbbbbbbbbbbbbbbbbbbbbbbbbbbbbbbbbbbbbbaaaa-
(PID.TID 0000.0001)     39 bccddccbba----bbbddbbbbbbbbbbbbbbbbbbbbbbbbbbbbbbbbbbbbbbbbbbbbbbbbbbbbb----bbbbbbbbbaaaab
(PID.TID 0000.0001)     38 eeffeeccccbaabbbbbbbbbbbbbbbbbbbbbbbbbbbbbbbbbbbbbbbbbbbbbbbbbbbbbbbbbbb-----bbbbbbba--bcd
(PID.TID 0000.0001)     37 fggbbbbbbbbbbbbbbbbbbbbbbbbbbbbbbbbbbbbbbbbbbbbbbbbbbbbbbbbbbbbbbbbbbbbbbbaabbbbdbccebcdee
(PID.TID 0000.0001)     36 hgbbbbbbbbbbbbbbbbbbbbbbbbbbbbbbbbbbbbbbbbbcb--bbbbbbbbbbbbbbbbbbbbccccbbbacbdbdefgghhhhhg
(PID.TID 0000.0001)     35 ggbbbbbbbbbbbbbbbbbbbbbbbbbbbbbbbbba---bbbbcccbabbbeeeefbbbbbbbbbbbbbbbbbbbcdeeeefghiiiihg
(PID.TID 0000.0001)     34 bbbbbbbbbbbbbbbbbbbbbbbbbbbbbbbbbbb----bbcddddddbddeeefggbbbbbbbbbbbbbbbbbbcacdefghiijjjbb
(PID.TID 0000.0001)     33 bbbbbbbbbbbbbbbbbbbbbbbbbbbbbbbbbbbb--bbcccddddeeeeefffgggibbbbbbbbbbbbbbbbbaadhijjkkkkkjb
(PID.TID 0000.0001)     32 bbbbbbbbbbbbbbbbbbbbbbbbbbbbbbbbbbbb-acccdeeeeefggggghhhhiibbbbbbbbbbbbbbbbcbacjlllllllkkb
(PID.TID 0000.0001)     31 bbbbbbbbbbbbbbbbbbbbbbbbbbbbbbbbbbbbdefggghhiiiiiiiijjkkkkkbbbbbbbbbbbbbbfjkjikmnnnnmmlmbb
(PID.TID 0000.0001)     30 bbbbbbbbbbbbbbbbbbbbbbbbbbbbbbbbbbblkkkkkklllllllllllmmmmllbbbbbbbbbbbbmnoppppppppooonnnbb
(PID.TID 0000.0001)     29 bbbbbbbbbbbbbbbbbbbbbbbbbbbbbbbbboooooonnnnnnnnnnnnnooooonmmbbbbbbbbbbbqqqqqqqqqqqqpppoobb
(PID.TID 0000.0001)     28 bbbbbbbbbbbbbbbbbbbbbbbbbbbbbbbnpqqqqqppqqqqqqqqqqqqqqqqpponnbbbbbbbbbssrrrrsrrrrrqqqqppbb
(PID.TID 0000.0001)     27 bbbbbbbbbbbbbbuvbbbbbbbbbbbbbbrrrrrssssssssssssssssssssrrqqppqbbbssstbutttttttttsssrrrbbbb
(PID.TID 0000.0001)     26 bbbbbbbbbbbbbbvuubbbbbbbbbbbttuuttuuuuuuuuuuuuuuuuuuttsssrrrrssubttuvvvvvvvvuuuuttssrqbbbb
(PID.TID 0000.0001)     25 bbbbbbbbbbbbbbuuvwbbbwvwbbbuuvvwvvwwwwwwwwvvvvvvvvvuuuutttsstuuwwbbbwwwwvvvvvvuuutsrqpbbbb
(PID.TID 0000.0001)     24 bbbbbbbbbbbbvvvvxyybwwwxbbbwwwbxwwxxxxxwwwwwwwwwwvvvvvvvuuuvvvwwwvvvbwwwwvvvvvvuuuttsrbbbb
(PID.TID 0000.0001)     23 bbbbbbbbbbbbwwwxxyybxxxxbbbxwwbbxxxyxxxxxxxxxxxxxwwxxxxxxwwxxwwwwwwwvbbbbwwwwwwwvvvvvvbbbb
(PID.TID 0000.0001)     22 wbbbbbbbbbbbxwxxyyyyxxyybbbxxbyyyyyyzyyyyyyyyyyyxxxxxxxwwwwwxwwwwwwwwwbbbbbbxxxxwxxxxyxxww
(PID.TID 0000.0001)     21 wwwbbbbbbbbxxxxxyyyyyzz++bbbbbyyzzzzzzzzzzzzyyyyyyyyyyxxwwwwwwwwwwvvvvbbbbbbbbyxxyyyyyyxxx
(PID.TID 0000.0001)     20 xwwbbbbbbbyxyyyyyzzzzzzz+bbbbbbzbzzzzz++++zzzzzzzzyzyyxyxxxxxxwwwwwwvvbbbbbbbbbyyyyyyyyxxx
(PID.TID 0000.0001)     19 wvvbbbbbbbyzzzyzzzyzzzzzzzybbbzzzbbbbb++++++zzzzzzzzyyyyxxxxxxwwwwwwvvbbbbbbbbbbbyyxxxwwwx
(PID.TID 0000.0001)     18 vutbbbbbbbyzzyyyyyyyyyyyzzzyzz+zzbbb++zz+++zzz+z+zzzzzyyyyyxxwwwvvwvvvubbbbbbbbbbyyxxwwwww
(PID.TID 0000.0001)     17 uutbbbbbbbzbyyxxxxxyyyyxyyyyyzzbbbbbzzzzzzzzzzzzzzzzzyyyyyyxxwwvvuvuuuvbbbbbbbbbyyyyxwuvvv
(PID.TID 0000.0001)     16 utsbbbbbbzzbyyxxxxxxxxxwwxxxxybbbbbbbyyyyyyyzyyyyyyyzyyyyyyyxxwwvvvuutttbbbbbbbbyyyyxwvvvu
(PID.TID 0000.0001)     15 ttrrbbbbxxxbxxxxxwwwwwwwvvvwxbbbbbbbbbxxxxxxxxxxxxxxyyxyyyyyxwwwwvuuttssrbbbbbbxxyxxyxxwvu
(PID.TID 0000.0001)     14 utrqbbbbxyxwwxwwwxwwvuuuuuuuubbbbbbbbbwwwwwwwwwwwxxxxxxwxxxxxwwwvvvutssssbbbbbwwxxxxxxwwvu
(PID.TID 0000.0001)     13 uutrbbbbwxwvwvuuuvvvvuuttttttbbbbbbbbbvvvvvvvvvuvvuuvvvvvwwxxwvvvuuuusssqbbbbvwwwwwwwwwvvu
(PID.TID 0000.0001)     12 tstsssstuutttttssssstutrrssssqqrrqbbbbuuuuttttssssssssssstuuuttttsttssrqbbbbbuvvvutuuutttt
(PID.TID 0000.0001)     11 qppqrsssrrrrrrrqqpppprqppqqppqqqqqqbbttssssbrrrqqrrrrrrrqrsrqqqrrrrsrrqpbbbbprttsrrrrrqqqq
(PID.TID 0000.0001)     10 mmlmnoopooooooonnnnnnnnmmmmmmnnooooobqrrqqqbpqqqqqpppppppppooopppooppppobbonppppoooooooonm
(PID.TID 0000.0001)      9 jjiijjjjjjkkjjjjjijjjjjiijjjijkllnnmmnoooobnnoooooooonooonnmmmnnmmlmmmmmbmnnnnmmllkjklkkjj
(PID.TID 0000.0001)      8 ggggggggggghiihhggghhihgghhhhijjjjkkkklllmmllllllllmmmllllkkjjklkkkkkklkbkllkkjjiihhhhgfff
(PID.TID 0000.0001)      7 ddeeeefffffffgfffeffffeeffggggghhhhhiiijkkkjjkkkkjjiiiiiijiiiiiiiiiijjjjiijjiihggffffeeeee
(PID.TID 0000.0001)      6 ccddeeeeeeeeeeeeeeeeeeefeeeedeffffffggghhiihhhiiiggfffffgggggffghhhhhhihhhhhggffeddddddddc
(PID.TID 0000.0001)      5 ddddddddddeeeeeeeeeeeeeedddeeeeeeeeeeeeffffffffffeddddddeeeeeeeffffffffffffeeeddddcccccccc
(PID.TID 0000.0001)      4 ddddddccccccccccccdccccbbbbccccccccccccdddddddcccdccccccccccdddddddddddddcbbbbbbcccccccccd
(PID.TID 0000.0001)      3 ccccbbaaaabbbbbbbbbbbbbbbbbbbbbbbbbbbbbbbbbccccccccccccbbbbbbbbbbbbbbbbbbbbbbaaabbcccccbbb
(PID.TID 0000.0001)      2 bbbbbbbbbbbbbbbbbbbbbbbbbbbbbbbbbbbbbbbbbbbccccbbbbbbaaaaaaaaababbaaaabbbbbaaaaabbbbbbbbbb
(PID.TID 0000.0001)      1 bbbbbbbbbbbbbbbbbbbbbbbbbbbbbbbbbbbbbbbbbbbbbbbbbbbbbbbbbbbbbbbbbbbbbbbbbbbbbbbbbbbbbbbbbb
(PID.TID 0000.0001) // =======================================================
(PID.TID 0000.0001) // END OF FIELD                                          =
(PID.TID 0000.0001) // =======================================================
(PID.TID 0000.0001) 
(PID.TID 0000.0001) // =======================================================
(PID.TID 0000.0001) // Field Current etaN   at iteration         40
(PID.TID 0000.0001) // CMIN =         -2.069839102516390E+00
(PID.TID 0000.0001) // CMAX =          1.267049648932070E+00
(PID.TID 0000.0001) // CINT =          1.235884722758689E-01
(PID.TID 0000.0001) // SYMBOLS (CMIN->CMAX): -abcdefghijklmnopqrstuvwxyz+
(PID.TID 0000.0001) //                  0.0: .
(PID.TID 0000.0001) // RANGE I (Lo:Hi:Step):(    -1:    92:     1)
(PID.TID 0000.0001) // RANGE J (Lo:Hi:Step):(    42:    -1:    -1)
(PID.TID 0000.0001) // RANGE K (Lo:Hi:Step):(   1:   1:   1)
(PID.TID 0000.0001) // =======================================================
(PID.TID 0000.0001) K =   1
(PID.TID 0000.0001)                I=8       I=18      I=28      I=38      I=48      I=58      I=68      I=78      I=88
(PID.TID 0000.0001) |--J--|101234567|901234567|901234567|901234567|901234567|901234567|901234567|901234567|901234567|9012
(PID.TID 0000.0001)     42 ............................................hiiiijjjjjjjjjjiihhhhh..hggg.....ddddddddcccc.....
(PID.TID 0000.0001)     41 ..............................................................................................
(PID.TID 0000.0001)     40 aa---aa.fffffffgggggg..................................................................aaaaa--
(PID.TID 0000.0001)     39 bbaaaabbccccccdd...gg.....................................................nnmm........dccbbbaa
(PID.TID 0000.0001)     38 cccccccccccccbc...........................................................mmmll......feddccccc
(PID.TID 0000.0001)     37 dccdd..................................................................mm...lkj...edddc.dddccd
(PID.TID 0000.0001)     36 ddde.........................................uuuu....................llllkkkjjji.gedcdddccddde
(PID.TID 0000.0001)     35 ddde.................................wwww..tttttts...srqqq...........kjj....kihgffddccccccddde
(PID.TID 0000.0001)     34 .....................................wvvv.vuutssss.srqqpppq..................kjhgfeddddddf....
(PID.TID 0000.0001)     33 c.....................................vvvuuttssssssrrqqqqpppq.................kiggffeeeeedc...
(PID.TID 0000.0001)     32 d.....................................vvutttttsssssssrrrrqqqq................dhhgghgggffedd...
(PID.TID 0000.0001)     31 ......................................ttttttttttttttsssssssrr..............gghihhhhhggffee....
(PID.TID 0000.0001)     30 .....................................stuuuuuuuuuuuuutttttttss............cfghjjjjjiihggfff....
(PID.TID 0000.0001)     29 ...................................stvwwwwwwwwwvvvvvuuuuuuttsr...........fhijkkkjjjihhggff....
(PID.TID 0000.0001)     28 .................................tuuwxxyyxxxxxxxwwwwvvvuuuuttss.........ghiijjjjjjjihhgggg....
(PID.TID 0000.0001)     27 ................qq..............vvvwxxyyyyyyyyxxxwwwwvvvvuuuttts...fffg.hiiiijjjiiiihhgg......
(PID.TID 0000.0001)     26 ................rrr...........xwxxxxxxxxyyyyyyxxxxxwwwwvvuuutttttt.ggghiiijjjjjjjiiiihhg......
(PID.TID 0000.0001)     25 ................ssst...utt...yxwxyxxxxxxxyyyyyxxxxwwwwvvvuuuutuuuuu...ijjjjjjjkjjiiiihhg......
(PID.TID 0000.0001)     24 ..............tsssstu.uuuu...yxx.zyxxxxxxxxxxxxxwwwwwvvvvuuuuuuuuuuuuu.jjjjjjjkjjjiiiiih......
(PID.TID 0000.0001)     23 ..............ttstttt.vuuu...yyx..zxxxxxxxxxxxxxxxxwwwvvvvuuuuuuuuuuuuu....jjkkkkjjjjjjj......
(PID.TID 0000.0001)     22 kkk...........tssttttuuuuu...yy.xxyyyxxxyyyxxxxxxxxwwwwwvvvuuuuuuuuuuuuv......lkkkjjjjkkkkkkk.
(PID.TID 0000.0001)     21 kkkkk........ttsttttuuuuvvv.....xxxxxxxxyyyyyxxxxwwwwwwwvvvvvuuuuuuuuuvv........lkkkkkkkkkkkkk
(PID.TID 0000.0001)     20 kkkkk.......ttttttuuuuvvvvv......x.wwwxxxxyyyxxxwwwwwwwwwvvvvvvvuuuuuuuv.........kkllkkkkkkkkk
(PID.TID 0000.0001)     19 kkkkk.......uuuuuuuuvuvvvvvvv...www.....yyyyyxxxxxxxxxwwwwwwvvvvvvvuuuuu...........lllkkkkkkkk
(PID.TID 0000.0001)     18 kkkjj.......uuvuuuuuvvvvvvvvvvvvvww...++zyyyxxxxxxxxxxwwwwwvvvvvvvvuuuuuu..........mmllkkkkkkj
(PID.TID 0000.0001)     17 kkkjj.......u.xvuuuuuuuvvvvvvvuuu.....++yyyxxxxxxxxxwwwwwwwwwwvvvvvvvvuuv.........onmllkkkkkkj
(PID.TID 0000.0001)     16 llkkj......wu.xwvvvuvvuvvvuuvuuu.......+zyxxwxxwwwxxwwxwwwwwwwwvvvvvvvvuuu........onmmmlllllkk
(PID.TID 0000.0001)     15 llllkk....wvt.xwvvvvwvuuvvvuttu.........yxwwwwwwwwwwwwwwwwwxwwwwwwvvvvvuutt......nnnmmmmmmllll
(PID.TID 0000.0001)     14 mmmllk....uuttvvuuuuvvutuuuttss.........yxwwwwvvvvwwwwwwwwxxxxxxwwwwwwvvvut.....klmmmmnnnnmmml
(PID.TID 0000.0001)     13 nnnmlk....suutuuttttutttuuutsss.........wwwvvvuuuuuuuuuvvvwwwxxxwwwwwwvvvtt....ijklmmmnnoonnnm
(PID.TID 0000.0001)     12 nnnmllkjmorttttuuttttttuuuttsssttttu....uvuuuuttttttttttuuuuvvvvwwwwvvvvut.....ijklllmmnnnnnnm
(PID.TID 0000.0001)     11 mmmllllmnoprsstutttssssttttsssssttuuv..sttuuu.rssssssstttttuuuuuvwwvvvuuut....ghijkkklllmmmmml
(PID.TID 0000.0001)     10 llkkkkkkklmnoppqrrqppqqqqrrrrrrrssttut.rttuuu.pqrrsssstttutttttuuvvutttttt..bdfhiiiijjjkklllkk
(PID.TID 0000.0001)      9 iiiiiiihhhijklllmmmllmnnnoooppppqrrstsrsttuw.qpqqrssssssttuutsttuuutsssttt.fefghhhhgggghhhiiii
(PID.TID 0000.0001)      8 effffffeeffghiijjjljhijkkklllmmnooppqqqrrsuvvsqqqqqqrrsssssssrrsstsssrsstv.jhgffggfeeeeeeeefff
(PID.TID 0000.0001)      7 ccccccccddeeffgghijjhffgghiiijkklllmmlmmnpqrrqpppoonnooppqpppppqqqqqqqqqppoljhgfeeddccddcccccc
(PID.TID 0000.0001)      6 baaaabbccccddeeffghhgfeeffgghiiijjjjjiijklnooonnmmlllkkklmnnonnnoooonnnnmlkjhgeddcccccccbbbaaa
(PID.TID 0000.0001)      5 aaaaabbbccccccdddeeeedddeeeefggghhhhhiihiijkkkkkkjjjiiiijjkllllllllkkkjjiihgedcccbbbbbbbaaaaaa
(PID.TID 0000.0001)      4 aaaaaabbbbbccccdddddddddddefffgghhhhhhhhhhhhhiiiiiihhhiiijjjjjjiiiiiihhhggfg..abbbbbbbaaaaaaaa
(PID.TID 0000.0001)      3 aaabbbbbbccc............................hgghhhhiiiiiiiiiiiiiihhhggggggggggg..bbbbbbbbbbbaaaaab
(PID.TID 0000.0001)      2 ............................................hiiiijjjjjjjjjjiihhhhh..hggg.....ddddddddcccc.....
(PID.TID 0000.0001)      1 ..............................................................................................
(PID.TID 0000.0001)      0 aa---aa.fffffffgggggg..................................................................aaaaa--
(PID.TID 0000.0001)     -1 bbaaaabbccccccdd...gg.....................................................nnmm........dccbbbaa
(PID.TID 0000.0001) // =======================================================
(PID.TID 0000.0001) // END OF FIELD                                          =
(PID.TID 0000.0001) // =======================================================
(PID.TID 0000.0001) 
(PID.TID 0000.0001)  MDS_WRITE_FIELD: it,rec,kS,kL,kH=      40     1  15   1  15 file=U.0000000040
(PID.TID 0000.0001)  MDS_WRITE_FIELD: it,rec,kS,kL,kH=      40     1  15   1  15 file=V.0000000040
(PID.TID 0000.0001)  MDS_WRITE_FIELD: it,rec,kS,kL,kH=      40     1  15   1  15 file=T.0000000040
(PID.TID 0000.0001)  MDS_WRITE_FIELD: it,rec,kS,kL,kH=      40     1  15   1  15 file=S.0000000040
(PID.TID 0000.0001)  MDS_WRITE_FIELD: it,rec,kS,kL,kH=      40     1   1   1   1 file=Eta.0000000040
(PID.TID 0000.0001)  MDS_WRITE_FIELD: it,rec,kS,kL,kH=      40     1  15   1  15 file=W.0000000040
(PID.TID 0000.0001)  MDS_WRITE_FIELD: it,rec,kS,kL,kH=      40     1  15   1  15 file=PH.0000000040
(PID.TID 0000.0001)  MDS_WRITE_FIELD: it,rec,kS,kL,kH=      40     1   1   1   1 file=PHL.0000000040
(PID.TID 0000.0001)  MDS_WRITE_FIELD: it,rec,kS,kL,kH=      40     1   1   1   1 file=ETAtave.0000000040
(PID.TID 0000.0001)  MDS_WRITE_FIELD: it,rec,kS,kL,kH=      40     1  15   1  15 file=Ttave.0000000040
(PID.TID 0000.0001)  MDS_WRITE_FIELD: it,rec,kS,kL,kH=      40     1  15   1  15 file=Stave.0000000040
(PID.TID 0000.0001)  MDS_WRITE_FIELD: it,rec,kS,kL,kH=      40     1  15   1  15 file=uVeltave.0000000040
(PID.TID 0000.0001)  MDS_WRITE_FIELD: it,rec,kS,kL,kH=      40     1  15   1  15 file=vVeltave.0000000040
(PID.TID 0000.0001)  MDS_WRITE_FIELD: it,rec,kS,kL,kH=      40     1  15   1  15 file=wVeltave.0000000040
(PID.TID 0000.0001)  MDS_WRITE_FIELD: it,rec,kS,kL,kH=      40     1   1   1   1 file=Eta2tave.0000000040
(PID.TID 0000.0001)  MDS_WRITE_FIELD: it,rec,kS,kL,kH=      40     1  15   1  15 file=UTtave.0000000040
(PID.TID 0000.0001)  MDS_WRITE_FIELD: it,rec,kS,kL,kH=      40     1  15   1  15 file=VTtave.0000000040
(PID.TID 0000.0001)  MDS_WRITE_FIELD: it,rec,kS,kL,kH=      40     1  15   1  15 file=WTtave.0000000040
(PID.TID 0000.0001)  MDS_WRITE_FIELD: it,rec,kS,kL,kH=      40     1  15   1  15 file=UStave.0000000040
(PID.TID 0000.0001)  MDS_WRITE_FIELD: it,rec,kS,kL,kH=      40     1  15   1  15 file=VStave.0000000040
(PID.TID 0000.0001)  MDS_WRITE_FIELD: it,rec,kS,kL,kH=      40     1  15   1  15 file=WStave.0000000040
(PID.TID 0000.0001)  MDS_WRITE_FIELD: it,rec,kS,kL,kH=      40     1  15   1  15 file=TTtave.0000000040
(PID.TID 0000.0001)  MDS_WRITE_FIELD: it,rec,kS,kL,kH=      40     1  15   1  15 file=UUtave.0000000040
(PID.TID 0000.0001)  MDS_WRITE_FIELD: it,rec,kS,kL,kH=      40     1  15   1  15 file=VVtave.0000000040
(PID.TID 0000.0001)  MDS_WRITE_FIELD: it,rec,kS,kL,kH=      40     1  15   1  15 file=UVtave.0000000040
(PID.TID 0000.0001)  MDS_WRITE_FIELD: it,rec,kS,kL,kH=      40     1  15   1  15 file=Tdiftave.0000000040
(PID.TID 0000.0001)  MDS_WRITE_FIELD: it,rec,kS,kL,kH=      40     1  15   1  15 file=PhHytave.0000000040
(PID.TID 0000.0001)  MDS_WRITE_FIELD: it,rec,kS,kL,kH=      40     1   1   1   1 file=PHLtave.0000000040
(PID.TID 0000.0001)  MDS_WRITE_FIELD: it,rec,kS,kL,kH=      40     1   1   1   1 file=uFluxtave.0000000040
(PID.TID 0000.0001)  MDS_WRITE_FIELD: it,rec,kS,kL,kH=      40     1   1   1   1 file=vFluxtave.0000000040
(PID.TID 0000.0001)  MDS_WRITE_FIELD: it,rec,kS,kL,kH=      40     1   1   1   1 file=tFluxtave.0000000040
(PID.TID 0000.0001)  MDS_WRITE_FIELD: it,rec,kS,kL,kH=      40     1   1   1   1 file=sFluxtave.0000000040
(PID.TID 0000.0001)  MDS_WRITE_FIELD: it,rec,kS,kL,kH=      40     1   1   1   1 file=PHL2tave.0000000040
(PID.TID 0000.0001)  MDS_WRITE_FIELD: it,rec,kS,kL,kH=      40     1  15   1  15 file=Convtave.0000000040
(PID.TID 0000.0001) // Time-average data written, t-step        40
(PID.TID 0000.0001) 
(PID.TID 0000.0001)  MDS_WRITE_FIELD: it,rec,kS,kL,kH=      40     1  15   1  15 file=GM_Kwx-T.0000000040
(PID.TID 0000.0001)  MDS_WRITE_FIELD: it,rec,kS,kL,kH=      40     1  15   1  15 file=GM_Kwy-T.0000000040
(PID.TID 0000.0001)  MDS_WRITE_FIELD: it,rec,kS,kL,kH=      40     1  15   1  15 file=GM_Kwz-T.0000000040
(PID.TID 0000.0001)  MDS_WRITE_FIELD: it,rec,kS,kL,kH=      40     1  15   1  15 file=pickup_cd.0000000040
(PID.TID 0000.0001)  MDS_WRITE_FIELD: it,rec,kS,kL,kH=      40     2  15   1  15 file=pickup_cd.0000000040
(PID.TID 0000.0001)  MDS_WRITE_FIELD: it,rec,kS,kL,kH=      40     3  15   1  15 file=pickup_cd.0000000040
(PID.TID 0000.0001)  MDS_WRITE_FIELD: it,rec,kS,kL,kH=      40     4  15   1  15 file=pickup_cd.0000000040
(PID.TID 0000.0001)  MDS_WRITE_FIELD: it,rec,kS,kL,kH=      40    61   1   1   1 file=pickup_cd.0000000040
(PID.TID 0000.0001)  MDS_WRITE_FIELD: it,rec,kS,kL,kH=      40    -1  15   1  15 file=pickup.0000000040
(PID.TID 0000.0001)  MDS_WRITE_FIELD: it,rec,kS,kL,kH=      40    -2  15   1  15 file=pickup.0000000040
(PID.TID 0000.0001)  MDS_WRITE_FIELD: it,rec,kS,kL,kH=      40    -3  15   1  15 file=pickup.0000000040
(PID.TID 0000.0001)  MDS_WRITE_FIELD: it,rec,kS,kL,kH=      40    -4  15   1  15 file=pickup.0000000040
(PID.TID 0000.0001)  MDS_WRITE_FIELD: it,rec,kS,kL,kH=      40    -5  15   1  15 file=pickup.0000000040
(PID.TID 0000.0001)  MDS_WRITE_FIELD: it,rec,kS,kL,kH=      40    -6  15   1  15 file=pickup.0000000040
(PID.TID 0000.0001)  MDS_WRITE_FIELD: it,rec,kS,kL,kH=      40    -7  15   1  15 file=pickup.0000000040
(PID.TID 0000.0001)  MDS_WRITE_FIELD: it,rec,kS,kL,kH=      40    -8  15   1  15 file=pickup.0000000040
(PID.TID 0000.0001)  MDS_WRITE_FIELD: it,rec,kS,kL,kH=      40  -121   1   1   1 file=pickup.0000000040
(PID.TID 0000.0001)  MDS_WRITE_FIELD: it,rec,kS,kL,kH=      40  -122   1   1   1 file=pickup.0000000040
(PID.TID 0000.0001)  MDS_WRITE_FIELD: it,rec,kS,kL,kH=      40  -123   1   1   1 file=pickup.0000000040
(PID.TID 0000.0001) %CHECKPOINT        40 0000000040
 EXTERNAL_FIELDS_LOAD,        40 : iP,iLd,i0,i1=    1    2    1    2 ; Wght=  0.1666666667  0.8333333333
 EXTERNAL_FIELDS_LOAD: (fu0,1),fu,fv= -3.5633E-02 -1.4435E-02 -1.7968E-02 -2.4239E-02
 EXTERNAL_FIELDS_LOAD: SST,SSS,Q,E-P= -2.8348E-01  3.4470E+01  2.4470E+02  8.9204E-06
DEBUG_STATS_RL:          Uvel (THERMODYNAMICS)  min= -1.71667888782060E-01
DEBUG_STATS_RL:          Uvel (THERMODYNAMICS)  max=  1.50253658856053E-01
DEBUG_STATS_RL:          Uvel (THERMODYNAMICS) mean=  2.94860519241246E-03
DEBUG_STATS_RL:          Uvel (THERMODYNAMICS) S.D.=  3.04156433173323E-02
DEBUG_STATS_RL:          Vvel (THERMODYNAMICS)  min= -1.17532786284411E-01
DEBUG_STATS_RL:          Vvel (THERMODYNAMICS)  max=  2.04228225515202E-01
DEBUG_STATS_RL:          Vvel (THERMODYNAMICS) mean=  2.01482376319092E-04
DEBUG_STATS_RL:          Vvel (THERMODYNAMICS) S.D.=  1.77927169571943E-02
DEBUG_STATS_RL:          Wvel (THERMODYNAMICS)  min= -1.59217535069654E-04
DEBUG_STATS_RL:          Wvel (THERMODYNAMICS)  max=  1.28705791495852E-04
DEBUG_STATS_RL:          Wvel (THERMODYNAMICS) mean= -3.12093507031568E-07
DEBUG_STATS_RL:          Wvel (THERMODYNAMICS) S.D.=  1.79563477664527E-05
DEBUG_STATS_RL:         Theta (THERMODYNAMICS)  min= -2.00040396242835E+00
DEBUG_STATS_RL:         Theta (THERMODYNAMICS)  max=  3.02490255335903E+01
DEBUG_STATS_RL:         Theta (THERMODYNAMICS) mean=  3.24381086927395E+00
DEBUG_STATS_RL:         Theta (THERMODYNAMICS) S.D.=  5.86353578349602E+00
DEBUG_STATS_RL:          Salt (THERMODYNAMICS)  min=  3.00000000000000E-02
DEBUG_STATS_RL:          Salt (THERMODYNAMICS)  max=  3.74882393868381E+01
DEBUG_STATS_RL:          Salt (THERMODYNAMICS) mean=  1.88748788682438E+01
DEBUG_STATS_RL:          Salt (THERMODYNAMICS) S.D.=  1.73003982872031E+01
DEBUG_STATS_RL:         GtNm1 (THERMODYNAMICS)  min= -3.63067382237115E-06
DEBUG_STATS_RL:         GtNm1 (THERMODYNAMICS)  max=  3.23245571009284E-06
DEBUG_STATS_RL:         GtNm1 (THERMODYNAMICS) mean=  1.20010467454097E-08
DEBUG_STATS_RL:         GtNm1 (THERMODYNAMICS) S.D.=  2.17922247499163E-07
DEBUG_STATS_RL:         GsNm1 (THERMODYNAMICS)  min= -4.51024178307635E-07
DEBUG_STATS_RL:         GsNm1 (THERMODYNAMICS)  max=  4.66397143842912E-07
DEBUG_STATS_RL:         GsNm1 (THERMODYNAMICS) mean=  1.71963470693888E-10
DEBUG_STATS_RL:         GsNm1 (THERMODYNAMICS) S.D.=  2.00758089470873E-08
DEBUG_STATS_RL:                EtaN (DYNAMICS)  min= -2.06983910251639E+00
DEBUG_STATS_RL:                EtaN (DYNAMICS)  max=  1.26704964893207E+00
DEBUG_STATS_RL:                EtaN (DYNAMICS) mean= -1.87096284475567E-01
DEBUG_STATS_RL:                EtaN (DYNAMICS) S.D.=  8.93785399682416E-01
DEBUG_STATS_RL:                Uvel (DYNAMICS)  min= -1.71667888782060E-01
DEBUG_STATS_RL:                Uvel (DYNAMICS)  max=  1.50253658856053E-01
DEBUG_STATS_RL:                Uvel (DYNAMICS) mean=  2.94860519241246E-03
DEBUG_STATS_RL:                Uvel (DYNAMICS) S.D.=  3.04156433173323E-02
DEBUG_STATS_RL:                Vvel (DYNAMICS)  min= -1.17532786284411E-01
DEBUG_STATS_RL:                Vvel (DYNAMICS)  max=  2.04228225515202E-01
DEBUG_STATS_RL:                Vvel (DYNAMICS) mean=  2.01482376319092E-04
DEBUG_STATS_RL:                Vvel (DYNAMICS) S.D.=  1.77927169571943E-02
DEBUG_STATS_RL:                Wvel (DYNAMICS)  min= -1.59217535069654E-04
DEBUG_STATS_RL:                Wvel (DYNAMICS)  max=  1.28705791495852E-04
DEBUG_STATS_RL:                Wvel (DYNAMICS) mean= -3.12093507031568E-07
DEBUG_STATS_RL:                Wvel (DYNAMICS) S.D.=  1.79563477664527E-05
DEBUG_STATS_RL:               Theta (DYNAMICS)  min= -2.00040396242835E+00
DEBUG_STATS_RL:               Theta (DYNAMICS)  max=  3.02490255335903E+01
DEBUG_STATS_RL:               Theta (DYNAMICS) mean=  3.24381086927395E+00
DEBUG_STATS_RL:               Theta (DYNAMICS) S.D.=  5.86353578349602E+00
DEBUG_STATS_RL:                Salt (DYNAMICS)  min=  3.00000000000000E-02
DEBUG_STATS_RL:                Salt (DYNAMICS)  max=  3.74882393868381E+01
DEBUG_STATS_RL:                Salt (DYNAMICS) mean=  1.88748788682438E+01
DEBUG_STATS_RL:                Salt (DYNAMICS) S.D.=  1.73003982872031E+01
DEBUG_STATS_RL:                  Gu (DYNAMICS)  min= -1.72215624651995E-01
DEBUG_STATS_RL:                  Gu (DYNAMICS)  max=  1.54468189846098E-01
DEBUG_STATS_RL:                  Gu (DYNAMICS) mean=  2.33253119342183E-03
DEBUG_STATS_RL:                  Gu (DYNAMICS) S.D.=  3.08109975622360E-02
DEBUG_STATS_RL:                  Gv (DYNAMICS)  min= -1.15351021535614E-01
DEBUG_STATS_RL:                  Gv (DYNAMICS)  max=  1.97922881705940E-01
DEBUG_STATS_RL:                  Gv (DYNAMICS) mean=  2.50859760269455E-03
DEBUG_STATS_RL:                  Gv (DYNAMICS) S.D.=  1.78024237983671E-02
DEBUG_STATS_RL:               GuNm1 (DYNAMICS)  min= -9.69979540668352E-06
DEBUG_STATS_RL:               GuNm1 (DYNAMICS)  max=  8.49144381266891E-06
DEBUG_STATS_RL:               GuNm1 (DYNAMICS) mean= -1.70609585064208E-08
DEBUG_STATS_RL:               GuNm1 (DYNAMICS) S.D.=  1.18724416214239E-06
DEBUG_STATS_RL:               GvNm1 (DYNAMICS)  min= -1.05292970824667E-05
DEBUG_STATS_RL:               GvNm1 (DYNAMICS)  max=  1.63732139999509E-05
DEBUG_STATS_RL:               GvNm1 (DYNAMICS) mean=  7.44023785175878E-07
DEBUG_STATS_RL:               GvNm1 (DYNAMICS) S.D.=  2.61385929303841E-06
DEBUG_STATS_RL:               GtNm1 (DYNAMICS)  min= -3.63067382237115E-06
DEBUG_STATS_RL:               GtNm1 (DYNAMICS)  max=  3.23245571009284E-06
DEBUG_STATS_RL:               GtNm1 (DYNAMICS) mean=  1.20010467454097E-08
DEBUG_STATS_RL:               GtNm1 (DYNAMICS) S.D.=  2.17922247499163E-07
DEBUG_STATS_RL:               GsNm1 (DYNAMICS)  min= -4.51024178307635E-07
DEBUG_STATS_RL:               GsNm1 (DYNAMICS)  max=  4.66397143842912E-07
DEBUG_STATS_RL:               GsNm1 (DYNAMICS) mean=  1.71963470693888E-10
DEBUG_STATS_RL:               GsNm1 (DYNAMICS) S.D.=  2.00758089470873E-08
DEBUG_STATS_RL:    cg2d_b (SOLVE_FOR_PRESSURE)  min= -2.80371949134843E+04
DEBUG_STATS_RL:    cg2d_b (SOLVE_FOR_PRESSURE)  max=  1.83352275365713E+04
DEBUG_STATS_RL:    cg2d_b (SOLVE_FOR_PRESSURE) mean=  2.95147545114049E+00
DEBUG_STATS_RL:    cg2d_b (SOLVE_FOR_PRESSURE) S.D.=  3.92129291811888E+03
 cg2d: Sum(rhs),rhsMax =   2.43700045260403E-01  1.84155802942420E+00
(PID.TID 0000.0001)  cg2d: iter=     1 ; resid.=  2.95810839742722E-01
(PID.TID 0000.0001)  cg2d: iter=     2 ; resid.=  2.39426380232516E-01
(PID.TID 0000.0001)  cg2d: iter=     3 ; resid.=  2.32602460564574E-01
(PID.TID 0000.0001)  cg2d: iter=     4 ; resid.=  1.99736820629853E-01
(PID.TID 0000.0001)  cg2d: iter=     5 ; resid.=  1.61565437399968E-01
(PID.TID 0000.0001)  cg2d: iter=     6 ; resid.=  1.31142355536873E-01
(PID.TID 0000.0001)  cg2d: iter=     7 ; resid.=  1.06588189251513E-01
(PID.TID 0000.0001)  cg2d: iter=     8 ; resid.=  9.24338609086410E-02
(PID.TID 0000.0001)  cg2d: iter=     9 ; resid.=  7.84671907279685E-02
(PID.TID 0000.0001)  cg2d: iter=    10 ; resid.=  6.55316425584561E-02
(PID.TID 0000.0001)  cg2d: iter=    11 ; resid.=  5.94780610042178E-02
(PID.TID 0000.0001)  cg2d: iter=    12 ; resid.=  5.11779508735208E-02
(PID.TID 0000.0001)  cg2d: iter=    13 ; resid.=  3.97830811803085E-02
(PID.TID 0000.0001)  cg2d: iter=    14 ; resid.=  3.27964270231342E-02
(PID.TID 0000.0001)  cg2d: iter=    15 ; resid.=  2.74130627606766E-02
(PID.TID 0000.0001)  cg2d: iter=    16 ; resid.=  2.37067155021793E-02
(PID.TID 0000.0001)  cg2d: iter=    17 ; resid.=  1.98753773280121E-02
(PID.TID 0000.0001)  cg2d: iter=    18 ; resid.=  1.63790500951745E-02
(PID.TID 0000.0001)  cg2d: iter=    19 ; resid.=  1.31740933703354E-02
(PID.TID 0000.0001)  cg2d: iter=    20 ; resid.=  1.04383956094869E-02
(PID.TID 0000.0001)  cg2d: iter=    21 ; resid.=  8.55550395319596E-03
(PID.TID 0000.0001)  cg2d: iter=    22 ; resid.=  7.11077476218893E-03
(PID.TID 0000.0001)  cg2d: iter=    23 ; resid.=  5.81351268772262E-03
(PID.TID 0000.0001)  cg2d: iter=    24 ; resid.=  4.96683554714948E-03
(PID.TID 0000.0001)  cg2d: iter=    25 ; resid.=  3.91816717022509E-03
(PID.TID 0000.0001)  cg2d: iter=    26 ; resid.=  3.27878547916299E-03
(PID.TID 0000.0001)  cg2d: iter=    27 ; resid.=  2.82800771699662E-03
(PID.TID 0000.0001)  cg2d: iter=    28 ; resid.=  2.54761302770066E-03
(PID.TID 0000.0001)  cg2d: iter=    29 ; resid.=  2.17656612031396E-03
(PID.TID 0000.0001)  cg2d: iter=    30 ; resid.=  1.88905853531792E-03
(PID.TID 0000.0001)  cg2d: iter=    31 ; resid.=  1.48014997702016E-03
(PID.TID 0000.0001)  cg2d: iter=    32 ; resid.=  1.13525633270587E-03
(PID.TID 0000.0001)  cg2d: iter=    33 ; resid.=  9.84015394637131E-04
(PID.TID 0000.0001)  cg2d: iter=    34 ; resid.=  8.62826814246675E-04
(PID.TID 0000.0001)  cg2d: iter=    35 ; resid.=  6.73141209617385E-04
(PID.TID 0000.0001)  cg2d: iter=    36 ; resid.=  5.17172655824624E-04
(PID.TID 0000.0001)  cg2d: iter=    37 ; resid.=  4.02897284458803E-04
(PID.TID 0000.0001)  cg2d: iter=    38 ; resid.=  3.47621252436438E-04
(PID.TID 0000.0001)  cg2d: iter=    39 ; resid.=  3.07357675279297E-04
(PID.TID 0000.0001)  cg2d: iter=    40 ; resid.=  2.71772135193397E-04
(PID.TID 0000.0001)  cg2d: iter=    41 ; resid.=  2.41737210450662E-04
(PID.TID 0000.0001)  cg2d: iter=    42 ; resid.=  2.16908478027414E-04
(PID.TID 0000.0001)  cg2d: iter=    43 ; resid.=  1.90573400091948E-04
(PID.TID 0000.0001)  cg2d: iter=    44 ; resid.=  1.50931138764582E-04
(PID.TID 0000.0001)  cg2d: iter=    45 ; resid.=  1.17522017778135E-04
(PID.TID 0000.0001)  cg2d: iter=    46 ; resid.=  9.50465401726148E-05
(PID.TID 0000.0001)  cg2d: iter=    47 ; resid.=  8.74359190255818E-05
(PID.TID 0000.0001)  cg2d: iter=    48 ; resid.=  7.38641374113178E-05
(PID.TID 0000.0001)  cg2d: iter=    49 ; resid.=  6.05911386468740E-05
(PID.TID 0000.0001)  cg2d: iter=    50 ; resid.=  5.16468567945616E-05
(PID.TID 0000.0001)  cg2d: iter=    51 ; resid.=  4.22205832973133E-05
(PID.TID 0000.0001)  cg2d: iter=    52 ; resid.=  3.41863150740583E-05
(PID.TID 0000.0001)  cg2d: iter=    53 ; resid.=  2.91085544842150E-05
(PID.TID 0000.0001)  cg2d: iter=    54 ; resid.=  2.51833615516837E-05
(PID.TID 0000.0001)  cg2d: iter=    55 ; resid.=  2.16385768985203E-05
(PID.TID 0000.0001)  cg2d: iter=    56 ; resid.=  1.67924780659173E-05
(PID.TID 0000.0001)  cg2d: iter=    57 ; resid.=  1.30388167006643E-05
(PID.TID 0000.0001)  cg2d: iter=    58 ; resid.=  1.03804146600956E-05
(PID.TID 0000.0001)  cg2d: iter=    59 ; resid.=  8.46545173453870E-06
(PID.TID 0000.0001)  cg2d: iter=    60 ; resid.=  6.78894929514867E-06
(PID.TID 0000.0001)  cg2d: iter=    61 ; resid.=  5.51519660778555E-06
(PID.TID 0000.0001)  cg2d: iter=    62 ; resid.=  4.78725382295283E-06
(PID.TID 0000.0001)  cg2d: iter=    63 ; resid.=  4.18099068814349E-06
(PID.TID 0000.0001)  cg2d: iter=    64 ; resid.=  3.55660367165987E-06
(PID.TID 0000.0001)  cg2d: iter=    65 ; resid.=  3.07345746124136E-06
(PID.TID 0000.0001)  cg2d: iter=    66 ; resid.=  2.65740446370231E-06
(PID.TID 0000.0001)  cg2d: iter=    67 ; resid.=  2.25052152407675E-06
(PID.TID 0000.0001)  cg2d: iter=    68 ; resid.=  1.80305431365229E-06
(PID.TID 0000.0001)  cg2d: iter=    69 ; resid.=  1.31719854172791E-06
(PID.TID 0000.0001)  cg2d: iter=    70 ; resid.=  1.05209692232932E-06
(PID.TID 0000.0001)  cg2d: iter=    71 ; resid.=  9.16930872203413E-07
(PID.TID 0000.0001)  cg2d: iter=    72 ; resid.=  7.96700788208596E-07
(PID.TID 0000.0001)  cg2d: iter=    73 ; resid.=  6.70267208836910E-07
(PID.TID 0000.0001)  cg2d: iter=    74 ; resid.=  5.56006024903433E-07
(PID.TID 0000.0001)  cg2d: iter=    75 ; resid.=  4.36721563090397E-07
(PID.TID 0000.0001)  cg2d: iter=    76 ; resid.=  3.89905429068039E-07
(PID.TID 0000.0001)  cg2d: iter=    77 ; resid.=  3.29277223510641E-07
(PID.TID 0000.0001)  cg2d: iter=    78 ; resid.=  2.89007978417101E-07
(PID.TID 0000.0001)  cg2d: iter=    79 ; resid.=  2.31698064856714E-07
(PID.TID 0000.0001)  cg2d: iter=    80 ; resid.=  1.81791021980057E-07
(PID.TID 0000.0001)  cg2d: iter=    81 ; resid.=  1.41662698142904E-07
(PID.TID 0000.0001)  cg2d: iter=    82 ; resid.=  1.01635922947888E-07
(PID.TID 0000.0001)  cg2d: iter=    83 ; resid.=  7.32408771581766E-08
(PID.TID 0000.0001)  cg2d: iter=    84 ; resid.=  5.87453149584434E-08
(PID.TID 0000.0001)  cg2d: iter=    85 ; resid.=  4.51873364705346E-08
(PID.TID 0000.0001)  cg2d: iter=    86 ; resid.=  3.70453561813736E-08
(PID.TID 0000.0001)  cg2d: iter=    87 ; resid.=  2.88595435774403E-08
(PID.TID 0000.0001)  cg2d: iter=    88 ; resid.=  2.43933071014482E-08
(PID.TID 0000.0001)  cg2d: iter=    89 ; resid.=  2.08829585530501E-08
(PID.TID 0000.0001)  cg2d: iter=    90 ; resid.=  1.60281762242565E-08
(PID.TID 0000.0001)  cg2d: iter=    91 ; resid.=  1.18593383661474E-08
(PID.TID 0000.0001)  cg2d: iter=    92 ; resid.=  8.54552668102309E-09
(PID.TID 0000.0001)  cg2d: iter=    93 ; resid.=  6.49792143298112E-09
(PID.TID 0000.0001)  cg2d: iter=    94 ; resid.=  4.92078595925420E-09
(PID.TID 0000.0001)  cg2d: iter=    95 ; resid.=  4.11868348754628E-09
(PID.TID 0000.0001)  cg2d: iter=    96 ; resid.=  3.14902106846686E-09
(PID.TID 0000.0001)  cg2d: iter=    97 ; resid.=  2.47074886495628E-09
(PID.TID 0000.0001)  cg2d: iter=    98 ; resid.=  1.96706534047677E-09
(PID.TID 0000.0001)  cg2d: iter=    99 ; resid.=  1.74616940611854E-09
(PID.TID 0000.0001)  cg2d: iter=   100 ; resid.=  1.58831935592417E-09
(PID.TID 0000.0001)  cg2d: iter=   101 ; resid.=  1.29444460193579E-09
(PID.TID 0000.0001)  cg2d: iter=   102 ; resid.=  1.01968203439955E-09
(PID.TID 0000.0001)  cg2d: iter=   103 ; resid.=  8.46541672470947E-10
(PID.TID 0000.0001)  cg2d: iter=   104 ; resid.=  6.63175085869531E-10
(PID.TID 0000.0001)  cg2d: iter=   105 ; resid.=  5.13414962803834E-10
(PID.TID 0000.0001)  cg2d: iter=   106 ; resid.=  4.25010025560980E-10
(PID.TID 0000.0001)  cg2d: iter=   107 ; resid.=  3.23575093812053E-10
(PID.TID 0000.0001)  cg2d: iter=   108 ; resid.=  2.67415953676416E-10
(PID.TID 0000.0001)  cg2d: iter=   109 ; resid.=  2.16415572984517E-10
(PID.TID 0000.0001)  cg2d: iter=   110 ; resid.=  1.83711817350409E-10
(PID.TID 0000.0001)  cg2d: iter=   111 ; resid.=  1.52605887004138E-10
(PID.TID 0000.0001)  cg2d: iter=   112 ; resid.=  1.07238436953680E-10
(PID.TID 0000.0001)  cg2d: iter=   113 ; resid.=  7.97077342231002E-11
(PID.TID 0000.0001)  cg2d: iter=   114 ; resid.=  6.32343698424707E-11
(PID.TID 0000.0001)  cg2d: iter=   115 ; resid.=  4.54641138623644E-11
(PID.TID 0000.0001)  cg2d: iter=   116 ; resid.=  3.42130560196941E-11
(PID.TID 0000.0001)  cg2d: iter=   117 ; resid.=  2.67377816199077E-11
(PID.TID 0000.0001)  cg2d: iter=   118 ; resid.=  2.02721560254443E-11
(PID.TID 0000.0001)  cg2d: iter=   119 ; resid.=  1.55774444188295E-11
(PID.TID 0000.0001)  cg2d: iter=   120 ; resid.=  1.13139089697434E-11
(PID.TID 0000.0001)  cg2d: iter=   121 ; resid.=  8.97208416064271E-12
(PID.TID 0000.0001)  cg2d: iter=   122 ; resid.=  6.89802665333339E-12
(PID.TID 0000.0001)  cg2d: iter=   123 ; resid.=  4.94500127264476E-12
(PID.TID 0000.0001)  cg2d: iter=   124 ; resid.=  3.22805385575392E-12
(PID.TID 0000.0001)  cg2d: iter=   125 ; resid.=  2.25766999595709E-12
(PID.TID 0000.0001)  cg2d: iter=   126 ; resid.=  1.76028654094108E-12
(PID.TID 0000.0001)  cg2d: iter=   127 ; resid.=  1.27439926250385E-12
(PID.TID 0000.0001)  cg2d: iter=   128 ; resid.=  9.40890996051007E-13
(PID.TID 0000.0001)  cg2d: iter=   129 ; resid.=  6.94756254804139E-13
(PID.TID 0000.0001)  cg2d: iter=   130 ; resid.=  5.44208670006453E-13
(PID.TID 0000.0001)  cg2d: iter=   131 ; resid.=  4.19786472804191E-13
(PID.TID 0000.0001)  cg2d: iter=   132 ; resid.=  3.13009119616937E-13
(PID.TID 0000.0001)  cg2d: iter=   133 ; resid.=  2.41237144093528E-13
(PID.TID 0000.0001)  cg2d: iter=   134 ; resid.=  1.87281514670809E-13
(PID.TID 0000.0001)  cg2d: iter=   135 ; resid.=  1.48913160170139E-13
(PID.TID 0000.0001)  cg2d: iter=   136 ; resid.=  1.08902729031394E-13
(PID.TID 0000.0001)  cg2d: iter=   137 ; resid.=  9.29236778964035E-14
DEBUG_STATS_RL:    cg2d_x (SOLVE_FOR_PRESSURE)  min= -2.20185795592208E+01
DEBUG_STATS_RL:    cg2d_x (SOLVE_FOR_PRESSURE)  max=  1.26278519224815E+01
DEBUG_STATS_RL:    cg2d_x (SOLVE_FOR_PRESSURE) mean= -1.87981618800838E+00
DEBUG_STATS_RL:    cg2d_x (SOLVE_FOR_PRESSURE) S.D.=  9.02503201983992E+00
(PID.TID 0000.0001)      cg2d_init_res =   4.37255233563948E-01
(PID.TID 0000.0001)      cg2d_iters(min,last) =      -1     137
(PID.TID 0000.0001)      cg2d_last_res =   9.29236778964035E-14
(PID.TID 0000.0001) // =======================================================
(PID.TID 0000.0001) // Begin MONITOR dynamic field statistics
(PID.TID 0000.0001) // =======================================================
(PID.TID 0000.0001) %MON time_tsnumber                =                    41
(PID.TID 0000.0001) %MON time_secondsf                =   3.5424000000000E+06
(PID.TID 0000.0001) %MON dynstat_eta_max              =   1.2872428055537E+00
(PID.TID 0000.0001) %MON dynstat_eta_min              =  -2.2445035228575E+00
(PID.TID 0000.0001) %MON dynstat_eta_mean             =  -3.0794986623910E-03
(PID.TID 0000.0001) %MON dynstat_eta_sd               =   8.5381880791284E-01
(PID.TID 0000.0001) %MON dynstat_eta_del2             =   2.3551639453106E-03
(PID.TID 0000.0001) %MON dynstat_uvel_max             =   1.5174059076908E-01
(PID.TID 0000.0001) %MON dynstat_uvel_min             =  -1.7283764095766E-01
(PID.TID 0000.0001) %MON dynstat_uvel_mean            =   9.4350438179221E-04
(PID.TID 0000.0001) %MON dynstat_uvel_sd              =   2.3097950231697E-02
(PID.TID 0000.0001) %MON dynstat_uvel_del2            =   1.1996326382987E-04
(PID.TID 0000.0001) %MON dynstat_vvel_max             =   1.9672487086014E-01
(PID.TID 0000.0001) %MON dynstat_vvel_min             =  -1.1920995830453E-01
(PID.TID 0000.0001) %MON dynstat_vvel_mean            =  -1.0595754494961E-04
(PID.TID 0000.0001) %MON dynstat_vvel_sd              =   1.2749561698599E-02
(PID.TID 0000.0001) %MON dynstat_vvel_del2            =   1.0323833795108E-04
(PID.TID 0000.0001) %MON dynstat_wvel_max             =   1.2992579232682E-04
(PID.TID 0000.0001) %MON dynstat_wvel_min             =  -1.7204441695040E-04
(PID.TID 0000.0001) %MON dynstat_wvel_mean            =   7.0003488639753E-23
(PID.TID 0000.0001) %MON dynstat_wvel_sd              =   2.0607166172582E-05
(PID.TID 0000.0001) %MON dynstat_wvel_del2            =   2.0510912653172E-07
(PID.TID 0000.0001) %MON dynstat_theta_max            =   3.0249025533590E+01
(PID.TID 0000.0001) %MON dynstat_theta_min            =  -2.0004039624283E+00
(PID.TID 0000.0001) %MON dynstat_theta_mean           =   3.6516905385027E+00
(PID.TID 0000.0001) %MON dynstat_theta_sd             =   4.4190813230716E+00
(PID.TID 0000.0001) %MON dynstat_theta_del2           =   4.7834488574769E-03
(PID.TID 0000.0001) %MON dynstat_salt_max             =   3.7488239386838E+01
(PID.TID 0000.0001) %MON dynstat_salt_min             =   2.9846210519387E+01
(PID.TID 0000.0001) %MON dynstat_salt_mean            =   3.4748035709253E+01
(PID.TID 0000.0001) %MON dynstat_salt_sd              =   2.9641583401802E-01
(PID.TID 0000.0001) %MON dynstat_salt_del2            =   9.8865550868826E-04
(PID.TID 0000.0001) %MON dynstat_sst_max              =   3.0249025533590E+01
(PID.TID 0000.0001) %MON dynstat_sst_min              =  -2.0004039624283E+00
(PID.TID 0000.0001) %MON dynstat_sst_mean             =   1.8872564856378E+01
(PID.TID 0000.0001) %MON dynstat_sst_sd               =   9.0129980502498E+00
(PID.TID 0000.0001) %MON dynstat_sst_del2             =   2.7182391162685E-02
(PID.TID 0000.0001) %MON dynstat_sss_max              =   3.7460267531013E+01
(PID.TID 0000.0001) %MON dynstat_sss_min              =   2.9846210519387E+01
(PID.TID 0000.0001) %MON dynstat_sss_mean             =   3.4874681041499E+01
(PID.TID 0000.0001) %MON dynstat_sss_sd               =   9.7695189008817E-01
(PID.TID 0000.0001) %MON dynstat_sss_del2             =   7.8901587028677E-03
(PID.TID 0000.0001) %MON forcing_qnet_max             =   3.6522328694661E+02
(PID.TID 0000.0001) %MON forcing_qnet_min             =  -1.7403156534831E+02
(PID.TID 0000.0001) %MON forcing_qnet_mean            =  -1.4389796815960E+01
(PID.TID 0000.0001) %MON forcing_qnet_sd              =   8.4259729047287E+01
(PID.TID 0000.0001) %MON forcing_qnet_del2            =   9.5401834956669E-01
(PID.TID 0000.0001) %MON forcing_qsw_max              =   0.0000000000000E+00
(PID.TID 0000.0001) %MON forcing_qsw_min              =   0.0000000000000E+00
(PID.TID 0000.0001) %MON forcing_qsw_mean             =   0.0000000000000E+00
(PID.TID 0000.0001) %MON forcing_qsw_sd               =   0.0000000000000E+00
(PID.TID 0000.0001) %MON forcing_qsw_del2             =   0.0000000000000E+00
(PID.TID 0000.0001) %MON forcing_empmr_max            =   7.4321995668925E-05
(PID.TID 0000.0001) %MON forcing_empmr_min            =  -7.8147062746818E-05
(PID.TID 0000.0001) %MON forcing_empmr_mean           =   9.3999699360960E-07
(PID.TID 0000.0001) %MON forcing_empmr_sd             =   2.8003424718777E-05
(PID.TID 0000.0001) %MON forcing_empmr_del2           =   3.5419346009159E-07
(PID.TID 0000.0001) %MON forcing_fu_max               =   2.9769973456860E-01
(PID.TID 0000.0001) %MON forcing_fu_min               =  -2.0743273198605E-01
(PID.TID 0000.0001) %MON forcing_fu_mean              =   1.7359240539291E-02
(PID.TID 0000.0001) %MON forcing_fu_sd                =   9.1619137544782E-02
(PID.TID 0000.0001) %MON forcing_fu_del2              =   7.0729330182073E-04
(PID.TID 0000.0001) %MON forcing_fv_max               =   1.9102514038483E-01
(PID.TID 0000.0001) %MON forcing_fv_min               =  -1.8381976087888E-01
(PID.TID 0000.0001) %MON forcing_fv_mean              =  -6.8904204073845E-03
(PID.TID 0000.0001) %MON forcing_fv_sd                =   4.4605886402216E-02
(PID.TID 0000.0001) %MON forcing_fv_del2              =   5.0576945240665E-04
(PID.TID 0000.0001) %MON trAdv_CFL_u_max              =   4.9210881697997E-02
(PID.TID 0000.0001) %MON trAdv_CFL_v_max              =   4.1568486085228E-02
(PID.TID 0000.0001) %MON trAdv_CFL_w_max              =   6.7653675897219E-02
(PID.TID 0000.0001) %MON advcfl_uvel_max              =   4.9378220636195E-02
(PID.TID 0000.0001) %MON advcfl_vvel_max              =   3.8220487320520E-02
(PID.TID 0000.0001) %MON advcfl_wvel_max              =   5.7448766042950E-02
(PID.TID 0000.0001) %MON advcfl_W_hf_max              =   6.7707474264906E-02
(PID.TID 0000.0001) %MON pe_b_mean                    =   9.3286389362085E-04
(PID.TID 0000.0001) %MON ke_max                       =   1.8464782908696E-02
(PID.TID 0000.0001) %MON ke_mean                      =   3.1576996332216E-04
(PID.TID 0000.0001) %MON ke_vol                       =   1.3226782436723E+18
(PID.TID 0000.0001) %MON vort_r_min                   =  -5.1292722825588E-07
(PID.TID 0000.0001) %MON vort_r_max                   =   6.4931298025884E-07
(PID.TID 0000.0001) %MON vort_a_mean                  =  -2.5274806213327E-05
(PID.TID 0000.0001) %MON vort_a_sd                    =   7.3604462399228E-05
(PID.TID 0000.0001) %MON vort_p_mean                  =  -3.1845654307504E-05
(PID.TID 0000.0001) %MON vort_p_sd                    =   1.3162419612423E-04
(PID.TID 0000.0001) %MON surfExpan_theta_mean         =   6.1668165106390E-07
(PID.TID 0000.0001) %MON surfExpan_salt_mean          =  -9.8453809819342E-08
(PID.TID 0000.0001) // =======================================================
(PID.TID 0000.0001) // End MONITOR dynamic field statistics
(PID.TID 0000.0001) // =======================================================
 EXTERNAL_FIELDS_LOAD,        41 : iP,iLd,i0,i1=    1    2    1    2 ; Wght=  0.1333333333  0.8666666667
 EXTERNAL_FIELDS_LOAD: (fu0,1),fu,fv= -3.5633E-02 -1.4435E-02 -1.7261E-02 -2.2918E-02
 EXTERNAL_FIELDS_LOAD: SST,SSS,Q,E-P= -3.3315E-01  3.4460E+01  2.4385E+02  8.8118E-06
DEBUG_STATS_RL:          Uvel (THERMODYNAMICS)  min= -1.72837640957660E-01
DEBUG_STATS_RL:          Uvel (THERMODYNAMICS)  max=  1.51740590769080E-01
DEBUG_STATS_RL:          Uvel (THERMODYNAMICS) mean=  2.48383622201886E-03
DEBUG_STATS_RL:          Uvel (THERMODYNAMICS) S.D.=  3.02749799922847E-02
DEBUG_STATS_RL:          Vvel (THERMODYNAMICS)  min= -1.19209958304530E-01
DEBUG_STATS_RL:          Vvel (THERMODYNAMICS)  max=  1.96724870860139E-01
DEBUG_STATS_RL:          Vvel (THERMODYNAMICS) mean=  3.95310054417023E-04
DEBUG_STATS_RL:          Vvel (THERMODYNAMICS) S.D.=  1.78211318336604E-02
DEBUG_STATS_RL:          Wvel (THERMODYNAMICS)  min= -1.72044416950396E-04
DEBUG_STATS_RL:          Wvel (THERMODYNAMICS)  max=  1.29925792326824E-04
DEBUG_STATS_RL:          Wvel (THERMODYNAMICS) mean= -2.80712504203983E-07
DEBUG_STATS_RL:          Wvel (THERMODYNAMICS) S.D.=  1.78722768681999E-05
DEBUG_STATS_RL:         Theta (THERMODYNAMICS)  min= -1.99903864365166E+00
DEBUG_STATS_RL:         Theta (THERMODYNAMICS)  max=  3.02749823503655E+01
DEBUG_STATS_RL:         Theta (THERMODYNAMICS) mean=  3.24433707096942E+00
DEBUG_STATS_RL:         Theta (THERMODYNAMICS) S.D.=  5.86433728900861E+00
DEBUG_STATS_RL:          Salt (THERMODYNAMICS)  min=  3.00000000000000E-02
DEBUG_STATS_RL:          Salt (THERMODYNAMICS)  max=  3.74887282884880E+01
DEBUG_STATS_RL:          Salt (THERMODYNAMICS) mean=  1.88748908947620E+01
DEBUG_STATS_RL:          Salt (THERMODYNAMICS) S.D.=  1.73004099135586E+01
DEBUG_STATS_RL:         GtNm1 (THERMODYNAMICS)  min= -3.75711403975419E-06
DEBUG_STATS_RL:         GtNm1 (THERMODYNAMICS)  max=  2.99424435337662E-06
DEBUG_STATS_RL:         GtNm1 (THERMODYNAMICS) mean=  1.16949222065812E-08
DEBUG_STATS_RL:         GtNm1 (THERMODYNAMICS) S.D.=  2.16672907897303E-07
DEBUG_STATS_RL:         GsNm1 (THERMODYNAMICS)  min= -4.28057624154936E-07
DEBUG_STATS_RL:         GsNm1 (THERMODYNAMICS)  max=  3.19325670848699E-07
DEBUG_STATS_RL:         GsNm1 (THERMODYNAMICS) mean=  1.98244160733007E-10
DEBUG_STATS_RL:         GsNm1 (THERMODYNAMICS) S.D.=  1.98773254829939E-08
DEBUG_STATS_RL:                EtaN (DYNAMICS)  min= -2.24450352285753E+00
DEBUG_STATS_RL:                EtaN (DYNAMICS)  max=  1.28724280555371E+00
DEBUG_STATS_RL:                EtaN (DYNAMICS) mean= -1.91622445260795E-01
DEBUG_STATS_RL:                EtaN (DYNAMICS) S.D.=  9.19982876640160E-01
DEBUG_STATS_RL:                Uvel (DYNAMICS)  min= -1.72837640957660E-01
DEBUG_STATS_RL:                Uvel (DYNAMICS)  max=  1.51740590769080E-01
DEBUG_STATS_RL:                Uvel (DYNAMICS) mean=  2.48383622201886E-03
DEBUG_STATS_RL:                Uvel (DYNAMICS) S.D.=  3.02749799922847E-02
DEBUG_STATS_RL:                Vvel (DYNAMICS)  min= -1.19209958304530E-01
DEBUG_STATS_RL:                Vvel (DYNAMICS)  max=  1.96724870860139E-01
DEBUG_STATS_RL:                Vvel (DYNAMICS) mean=  3.95310054417023E-04
DEBUG_STATS_RL:                Vvel (DYNAMICS) S.D.=  1.78211318336604E-02
DEBUG_STATS_RL:                Wvel (DYNAMICS)  min= -1.72044416950396E-04
DEBUG_STATS_RL:                Wvel (DYNAMICS)  max=  1.29925792326824E-04
DEBUG_STATS_RL:                Wvel (DYNAMICS) mean= -2.80712504203983E-07
DEBUG_STATS_RL:                Wvel (DYNAMICS) S.D.=  1.78722768681999E-05
DEBUG_STATS_RL:               Theta (DYNAMICS)  min= -1.99903864365166E+00
DEBUG_STATS_RL:               Theta (DYNAMICS)  max=  3.02749823503655E+01
DEBUG_STATS_RL:               Theta (DYNAMICS) mean=  3.24433707096942E+00
DEBUG_STATS_RL:               Theta (DYNAMICS) S.D.=  5.86433728900861E+00
DEBUG_STATS_RL:                Salt (DYNAMICS)  min=  3.00000000000000E-02
DEBUG_STATS_RL:                Salt (DYNAMICS)  max=  3.74887282884880E+01
DEBUG_STATS_RL:                Salt (DYNAMICS) mean=  1.88748908947620E+01
DEBUG_STATS_RL:                Salt (DYNAMICS) S.D.=  1.73004099135586E+01
DEBUG_STATS_RL:                  Gu (DYNAMICS)  min= -1.73032749564107E-01
DEBUG_STATS_RL:                  Gu (DYNAMICS)  max=  1.59451418991325E-01
DEBUG_STATS_RL:                  Gu (DYNAMICS) mean=  1.90576122062151E-03
DEBUG_STATS_RL:                  Gu (DYNAMICS) S.D.=  3.06024762512378E-02
DEBUG_STATS_RL:                  Gv (DYNAMICS)  min= -1.18376703184093E-01
DEBUG_STATS_RL:                  Gv (DYNAMICS)  max=  1.87291199479053E-01
DEBUG_STATS_RL:                  Gv (DYNAMICS) mean=  2.65047877967469E-03
DEBUG_STATS_RL:                  Gv (DYNAMICS) S.D.=  1.79191448200013E-02
DEBUG_STATS_RL:               GuNm1 (DYNAMICS)  min= -9.74189777927312E-06
DEBUG_STATS_RL:               GuNm1 (DYNAMICS)  max=  8.54231935846272E-06
DEBUG_STATS_RL:               GuNm1 (DYNAMICS) mean= -1.49114861358704E-08
DEBUG_STATS_RL:               GuNm1 (DYNAMICS) S.D.=  1.18633192895191E-06
DEBUG_STATS_RL:               GvNm1 (DYNAMICS)  min= -1.03836527503563E-05
DEBUG_STATS_RL:               GvNm1 (DYNAMICS)  max=  1.63713298678878E-05
DEBUG_STATS_RL:               GvNm1 (DYNAMICS) mean=  7.42833381650326E-07
DEBUG_STATS_RL:               GvNm1 (DYNAMICS) S.D.=  2.60930513915020E-06
DEBUG_STATS_RL:               GtNm1 (DYNAMICS)  min= -3.75711403975419E-06
DEBUG_STATS_RL:               GtNm1 (DYNAMICS)  max=  2.99424435337662E-06
DEBUG_STATS_RL:               GtNm1 (DYNAMICS) mean=  1.16949222065812E-08
DEBUG_STATS_RL:               GtNm1 (DYNAMICS) S.D.=  2.16672907897303E-07
DEBUG_STATS_RL:               GsNm1 (DYNAMICS)  min= -4.28057624154936E-07
DEBUG_STATS_RL:               GsNm1 (DYNAMICS)  max=  3.19325670848699E-07
DEBUG_STATS_RL:               GsNm1 (DYNAMICS) mean=  1.98244160733007E-10
DEBUG_STATS_RL:               GsNm1 (DYNAMICS) S.D.=  1.98773254829939E-08
DEBUG_STATS_RL:    cg2d_b (SOLVE_FOR_PRESSURE)  min= -2.89792565245887E+04
DEBUG_STATS_RL:    cg2d_b (SOLVE_FOR_PRESSURE)  max=  1.78344581355643E+04
DEBUG_STATS_RL:    cg2d_b (SOLVE_FOR_PRESSURE) mean=  3.02673717776389E+00
DEBUG_STATS_RL:    cg2d_b (SOLVE_FOR_PRESSURE) S.D.=  3.91377939231422E+03
 cg2d: Sum(rhs),rhsMax =   2.41790073550684E-01  1.90343515834151E+00
(PID.TID 0000.0001)  cg2d: iter=     1 ; resid.=  2.73705625817711E-01
(PID.TID 0000.0001)  cg2d: iter=     2 ; resid.=  2.17986863358801E-01
(PID.TID 0000.0001)  cg2d: iter=     3 ; resid.=  2.08169107528647E-01
(PID.TID 0000.0001)  cg2d: iter=     4 ; resid.=  1.73458617301874E-01
(PID.TID 0000.0001)  cg2d: iter=     5 ; resid.=  1.34675140542932E-01
(PID.TID 0000.0001)  cg2d: iter=     6 ; resid.=  1.07071173457218E-01
(PID.TID 0000.0001)  cg2d: iter=     7 ; resid.=  8.51544939143020E-02
(PID.TID 0000.0001)  cg2d: iter=     8 ; resid.=  7.35112422579398E-02
(PID.TID 0000.0001)  cg2d: iter=     9 ; resid.=  6.17446791247422E-02
(PID.TID 0000.0001)  cg2d: iter=    10 ; resid.=  5.08645631959839E-02
(PID.TID 0000.0001)  cg2d: iter=    11 ; resid.=  4.56841063639041E-02
(PID.TID 0000.0001)  cg2d: iter=    12 ; resid.=  4.03723654669574E-02
(PID.TID 0000.0001)  cg2d: iter=    13 ; resid.=  3.14503187191862E-02
(PID.TID 0000.0001)  cg2d: iter=    14 ; resid.=  2.57759756620974E-02
(PID.TID 0000.0001)  cg2d: iter=    15 ; resid.=  2.17386971398998E-02
(PID.TID 0000.0001)  cg2d: iter=    16 ; resid.=  1.89116226547192E-02
(PID.TID 0000.0001)  cg2d: iter=    17 ; resid.=  1.59175759200221E-02
(PID.TID 0000.0001)  cg2d: iter=    18 ; resid.=  1.29711882584538E-02
(PID.TID 0000.0001)  cg2d: iter=    19 ; resid.=  1.06142603581218E-02
(PID.TID 0000.0001)  cg2d: iter=    20 ; resid.=  8.55284360299428E-03
(PID.TID 0000.0001)  cg2d: iter=    21 ; resid.=  7.00729826037555E-03
(PID.TID 0000.0001)  cg2d: iter=    22 ; resid.=  5.74451230083224E-03
(PID.TID 0000.0001)  cg2d: iter=    23 ; resid.=  4.55719042531878E-03
(PID.TID 0000.0001)  cg2d: iter=    24 ; resid.=  3.78931111505504E-03
(PID.TID 0000.0001)  cg2d: iter=    25 ; resid.=  2.96653308173965E-03
(PID.TID 0000.0001)  cg2d: iter=    26 ; resid.=  2.44409513976139E-03
(PID.TID 0000.0001)  cg2d: iter=    27 ; resid.=  2.11641938074524E-03
(PID.TID 0000.0001)  cg2d: iter=    28 ; resid.=  1.92487218312692E-03
(PID.TID 0000.0001)  cg2d: iter=    29 ; resid.=  1.69592275721206E-03
(PID.TID 0000.0001)  cg2d: iter=    30 ; resid.=  1.50554708418670E-03
(PID.TID 0000.0001)  cg2d: iter=    31 ; resid.=  1.22860734934840E-03
(PID.TID 0000.0001)  cg2d: iter=    32 ; resid.=  9.55932845948546E-04
(PID.TID 0000.0001)  cg2d: iter=    33 ; resid.=  8.42257451813388E-04
(PID.TID 0000.0001)  cg2d: iter=    34 ; resid.=  7.53170123011489E-04
(PID.TID 0000.0001)  cg2d: iter=    35 ; resid.=  5.85235460723774E-04
(PID.TID 0000.0001)  cg2d: iter=    36 ; resid.=  4.41752181743981E-04
(PID.TID 0000.0001)  cg2d: iter=    37 ; resid.=  3.34973080485595E-04
(PID.TID 0000.0001)  cg2d: iter=    38 ; resid.=  2.75095654505143E-04
(PID.TID 0000.0001)  cg2d: iter=    39 ; resid.=  2.30591221555506E-04
(PID.TID 0000.0001)  cg2d: iter=    40 ; resid.=  1.95571879992091E-04
(PID.TID 0000.0001)  cg2d: iter=    41 ; resid.=  1.70306621370933E-04
(PID.TID 0000.0001)  cg2d: iter=    42 ; resid.=  1.54071139258812E-04
(PID.TID 0000.0001)  cg2d: iter=    43 ; resid.=  1.40590027221866E-04
(PID.TID 0000.0001)  cg2d: iter=    44 ; resid.=  1.14339660414477E-04
(PID.TID 0000.0001)  cg2d: iter=    45 ; resid.=  9.09649077804611E-05
(PID.TID 0000.0001)  cg2d: iter=    46 ; resid.=  7.41800864086537E-05
(PID.TID 0000.0001)  cg2d: iter=    47 ; resid.=  6.99536894296148E-05
(PID.TID 0000.0001)  cg2d: iter=    48 ; resid.=  6.02111379738276E-05
(PID.TID 0000.0001)  cg2d: iter=    49 ; resid.=  4.93637710998831E-05
(PID.TID 0000.0001)  cg2d: iter=    50 ; resid.=  4.13099082013609E-05
(PID.TID 0000.0001)  cg2d: iter=    51 ; resid.=  3.41700101480076E-05
(PID.TID 0000.0001)  cg2d: iter=    52 ; resid.=  2.80794076873746E-05
(PID.TID 0000.0001)  cg2d: iter=    53 ; resid.=  2.39357215733271E-05
(PID.TID 0000.0001)  cg2d: iter=    54 ; resid.=  2.05157230007390E-05
(PID.TID 0000.0001)  cg2d: iter=    55 ; resid.=  1.76121654076109E-05
(PID.TID 0000.0001)  cg2d: iter=    56 ; resid.=  1.36210953199280E-05
(PID.TID 0000.0001)  cg2d: iter=    57 ; resid.=  1.03949304220047E-05
(PID.TID 0000.0001)  cg2d: iter=    58 ; resid.=  8.15768076702706E-06
(PID.TID 0000.0001)  cg2d: iter=    59 ; resid.=  6.36851395277992E-06
(PID.TID 0000.0001)  cg2d: iter=    60 ; resid.=  4.93075786975162E-06
(PID.TID 0000.0001)  cg2d: iter=    61 ; resid.=  3.77982647217444E-06
(PID.TID 0000.0001)  cg2d: iter=    62 ; resid.=  3.15092675022489E-06
(PID.TID 0000.0001)  cg2d: iter=    63 ; resid.=  2.70974851664217E-06
(PID.TID 0000.0001)  cg2d: iter=    64 ; resid.=  2.36363485541280E-06
(PID.TID 0000.0001)  cg2d: iter=    65 ; resid.=  2.09520605704096E-06
(PID.TID 0000.0001)  cg2d: iter=    66 ; resid.=  1.86255456054583E-06
(PID.TID 0000.0001)  cg2d: iter=    67 ; resid.=  1.67485042164633E-06
(PID.TID 0000.0001)  cg2d: iter=    68 ; resid.=  1.42652745754269E-06
(PID.TID 0000.0001)  cg2d: iter=    69 ; resid.=  1.06495680638915E-06
(PID.TID 0000.0001)  cg2d: iter=    70 ; resid.=  8.50232372747230E-07
(PID.TID 0000.0001)  cg2d: iter=    71 ; resid.=  7.33625371504410E-07
(PID.TID 0000.0001)  cg2d: iter=    72 ; resid.=  6.16028500309561E-07
(PID.TID 0000.0001)  cg2d: iter=    73 ; resid.=  5.00241882122707E-07
(PID.TID 0000.0001)  cg2d: iter=    74 ; resid.=  4.04593843440203E-07
(PID.TID 0000.0001)  cg2d: iter=    75 ; resid.=  3.06412519304358E-07
(PID.TID 0000.0001)  cg2d: iter=    76 ; resid.=  2.60677977815595E-07
(PID.TID 0000.0001)  cg2d: iter=    77 ; resid.=  2.17129530789669E-07
(PID.TID 0000.0001)  cg2d: iter=    78 ; resid.=  1.92986388872672E-07
(PID.TID 0000.0001)  cg2d: iter=    79 ; resid.=  1.64999389172438E-07
(PID.TID 0000.0001)  cg2d: iter=    80 ; resid.=  1.35727778964439E-07
(PID.TID 0000.0001)  cg2d: iter=    81 ; resid.=  1.10503643440284E-07
(PID.TID 0000.0001)  cg2d: iter=    82 ; resid.=  7.99731717286493E-08
(PID.TID 0000.0001)  cg2d: iter=    83 ; resid.=  5.84306627421019E-08
(PID.TID 0000.0001)  cg2d: iter=    84 ; resid.=  4.71445298218412E-08
(PID.TID 0000.0001)  cg2d: iter=    85 ; resid.=  3.65912297477365E-08
(PID.TID 0000.0001)  cg2d: iter=    86 ; resid.=  2.94903710491478E-08
(PID.TID 0000.0001)  cg2d: iter=    87 ; resid.=  2.26181719437369E-08
(PID.TID 0000.0001)  cg2d: iter=    88 ; resid.=  2.01309796403987E-08
(PID.TID 0000.0001)  cg2d: iter=    89 ; resid.=  1.87902464496720E-08
(PID.TID 0000.0001)  cg2d: iter=    90 ; resid.=  1.50043805016606E-08
(PID.TID 0000.0001)  cg2d: iter=    91 ; resid.=  1.11797897465025E-08
(PID.TID 0000.0001)  cg2d: iter=    92 ; resid.=  7.93443430081113E-09
(PID.TID 0000.0001)  cg2d: iter=    93 ; resid.=  5.97339603932096E-09
(PID.TID 0000.0001)  cg2d: iter=    94 ; resid.=  4.49557970961880E-09
(PID.TID 0000.0001)  cg2d: iter=    95 ; resid.=  3.77171741269066E-09
(PID.TID 0000.0001)  cg2d: iter=    96 ; resid.=  2.83413467393848E-09
(PID.TID 0000.0001)  cg2d: iter=    97 ; resid.=  2.19428140417091E-09
(PID.TID 0000.0001)  cg2d: iter=    98 ; resid.=  1.71281210315592E-09
(PID.TID 0000.0001)  cg2d: iter=    99 ; resid.=  1.51651105422566E-09
(PID.TID 0000.0001)  cg2d: iter=   100 ; resid.=  1.41390510319989E-09
(PID.TID 0000.0001)  cg2d: iter=   101 ; resid.=  1.17385575130718E-09
(PID.TID 0000.0001)  cg2d: iter=   102 ; resid.=  9.20520322583543E-10
(PID.TID 0000.0001)  cg2d: iter=   103 ; resid.=  7.41278252526246E-10
(PID.TID 0000.0001)  cg2d: iter=   104 ; resid.=  5.76380062943330E-10
(PID.TID 0000.0001)  cg2d: iter=   105 ; resid.=  4.38545150234201E-10
(PID.TID 0000.0001)  cg2d: iter=   106 ; resid.=  3.52955584026772E-10
(PID.TID 0000.0001)  cg2d: iter=   107 ; resid.=  2.63513336781944E-10
(PID.TID 0000.0001)  cg2d: iter=   108 ; resid.=  2.12878089360480E-10
(PID.TID 0000.0001)  cg2d: iter=   109 ; resid.=  1.71712787184539E-10
(PID.TID 0000.0001)  cg2d: iter=   110 ; resid.=  1.45014828124413E-10
(PID.TID 0000.0001)  cg2d: iter=   111 ; resid.=  1.23759683370099E-10
(PID.TID 0000.0001)  cg2d: iter=   112 ; resid.=  9.03768454280423E-11
(PID.TID 0000.0001)  cg2d: iter=   113 ; resid.=  6.83689240341866E-11
(PID.TID 0000.0001)  cg2d: iter=   114 ; resid.=  5.61227633302699E-11
(PID.TID 0000.0001)  cg2d: iter=   115 ; resid.=  4.01561081170231E-11
(PID.TID 0000.0001)  cg2d: iter=   116 ; resid.=  2.93493811912908E-11
(PID.TID 0000.0001)  cg2d: iter=   117 ; resid.=  2.16909034320898E-11
(PID.TID 0000.0001)  cg2d: iter=   118 ; resid.=  1.53256719753338E-11
(PID.TID 0000.0001)  cg2d: iter=   119 ; resid.=  1.18164117483563E-11
(PID.TID 0000.0001)  cg2d: iter=   120 ; resid.=  8.44857759518148E-12
(PID.TID 0000.0001)  cg2d: iter=   121 ; resid.=  6.58173780693685E-12
(PID.TID 0000.0001)  cg2d: iter=   122 ; resid.=  5.09383740816676E-12
(PID.TID 0000.0001)  cg2d: iter=   123 ; resid.=  3.80172379046640E-12
(PID.TID 0000.0001)  cg2d: iter=   124 ; resid.=  2.53942283745746E-12
(PID.TID 0000.0001)  cg2d: iter=   125 ; resid.=  1.82454103664829E-12
(PID.TID 0000.0001)  cg2d: iter=   126 ; resid.=  1.48620064124635E-12
(PID.TID 0000.0001)  cg2d: iter=   127 ; resid.=  1.13841159311625E-12
(PID.TID 0000.0001)  cg2d: iter=   128 ; resid.=  8.54507463385838E-13
(PID.TID 0000.0001)  cg2d: iter=   129 ; resid.=  6.36879267322002E-13
(PID.TID 0000.0001)  cg2d: iter=   130 ; resid.=  5.10115933289595E-13
(PID.TID 0000.0001)  cg2d: iter=   131 ; resid.=  4.19297267102469E-13
(PID.TID 0000.0001)  cg2d: iter=   132 ; resid.=  3.21103294293700E-13
(PID.TID 0000.0001)  cg2d: iter=   133 ; resid.=  2.37697717812785E-13
(PID.TID 0000.0001)  cg2d: iter=   134 ; resid.=  1.74288750290153E-13
(PID.TID 0000.0001)  cg2d: iter=   135 ; resid.=  1.32287446241451E-13
(PID.TID 0000.0001)  cg2d: iter=   136 ; resid.=  9.49489962208406E-14
DEBUG_STATS_RL:    cg2d_x (SOLVE_FOR_PRESSURE)  min= -2.32221642800680E+01
DEBUG_STATS_RL:    cg2d_x (SOLVE_FOR_PRESSURE)  max=  1.26890228993064E+01
DEBUG_STATS_RL:    cg2d_x (SOLVE_FOR_PRESSURE) mean= -1.91630592478180E+00
DEBUG_STATS_RL:    cg2d_x (SOLVE_FOR_PRESSURE) S.D.=  9.19870373625681E+00
(PID.TID 0000.0001)      cg2d_init_res =   4.16260915312618E-01
(PID.TID 0000.0001)      cg2d_iters(min,last) =      -1     136
(PID.TID 0000.0001)      cg2d_last_res =   9.49489962208406E-14
(PID.TID 0000.0001) // =======================================================
(PID.TID 0000.0001) // Begin MONITOR dynamic field statistics
(PID.TID 0000.0001) // =======================================================
(PID.TID 0000.0001) %MON time_tsnumber                =                    42
(PID.TID 0000.0001) %MON time_secondsf                =   3.6288000000000E+06
(PID.TID 0000.0001) %MON dynstat_eta_max              =   1.2934783791342E+00
(PID.TID 0000.0001) %MON dynstat_eta_min              =  -2.3671930968494E+00
(PID.TID 0000.0001) %MON dynstat_eta_mean             =  -3.1580249419770E-03
(PID.TID 0000.0001) %MON dynstat_eta_sd               =   8.6785833763965E-01
(PID.TID 0000.0001) %MON dynstat_eta_del2             =   2.3650411379998E-03
(PID.TID 0000.0001) %MON dynstat_uvel_max             =   1.5686252766537E-01
(PID.TID 0000.0001) %MON dynstat_uvel_min             =  -1.7349644865902E-01
(PID.TID 0000.0001) %MON dynstat_uvel_mean            =   4.8829500015398E-04
(PID.TID 0000.0001) %MON dynstat_uvel_sd              =   2.2986545892264E-02
(PID.TID 0000.0001) %MON dynstat_uvel_del2            =   1.2163917174407E-04
(PID.TID 0000.0001) %MON dynstat_vvel_max             =   1.8699425332536E-01
(PID.TID 0000.0001) %MON dynstat_vvel_min             =  -1.2167513287162E-01
(PID.TID 0000.0001) %MON dynstat_vvel_mean            =  -7.0890764177277E-05
(PID.TID 0000.0001) %MON dynstat_vvel_sd              =   1.2699611768802E-02
(PID.TID 0000.0001) %MON dynstat_vvel_del2            =   1.0266190773236E-04
(PID.TID 0000.0001) %MON dynstat_wvel_max             =   1.2642508676524E-04
(PID.TID 0000.0001) %MON dynstat_wvel_min             =  -1.8006592511823E-04
(PID.TID 0000.0001) %MON dynstat_wvel_mean            =   7.0003488639753E-23
(PID.TID 0000.0001) %MON dynstat_wvel_sd              =   2.0555145832606E-05
(PID.TID 0000.0001) %MON dynstat_wvel_del2            =   2.0313544926950E-07
(PID.TID 0000.0001) %MON dynstat_theta_max            =   3.0274982350365E+01
(PID.TID 0000.0001) %MON dynstat_theta_min            =  -1.9990386436517E+00
(PID.TID 0000.0001) %MON dynstat_theta_mean           =   3.6517585771878E+00
(PID.TID 0000.0001) %MON dynstat_theta_sd             =   4.4192926581414E+00
(PID.TID 0000.0001) %MON dynstat_theta_del2           =   4.7790121064650E-03
(PID.TID 0000.0001) %MON dynstat_salt_max             =   3.7488728288488E+01
(PID.TID 0000.0001) %MON dynstat_salt_min             =   2.9848308635832E+01
(PID.TID 0000.0001) %MON dynstat_salt_mean            =   3.4748038016174E+01
(PID.TID 0000.0001) %MON dynstat_salt_sd              =   2.9642490907247E-01
(PID.TID 0000.0001) %MON dynstat_salt_del2            =   9.8834082339393E-04
(PID.TID 0000.0001) %MON dynstat_sst_max              =   3.0274982350365E+01
(PID.TID 0000.0001) %MON dynstat_sst_min              =  -1.9990386436517E+00
(PID.TID 0000.0001) %MON dynstat_sst_mean             =   1.8883120635267E+01
(PID.TID 0000.0001) %MON dynstat_sst_sd               =   9.0119159302089E+00
(PID.TID 0000.0001) %MON dynstat_sst_del2             =   2.7223724310594E-02
(PID.TID 0000.0001) %MON dynstat_sss_max              =   3.7460071091302E+01
(PID.TID 0000.0001) %MON dynstat_sss_min              =   2.9848308635832E+01
(PID.TID 0000.0001) %MON dynstat_sss_mean             =   3.4874705702907E+01
(PID.TID 0000.0001) %MON dynstat_sss_sd               =   9.7705990229264E-01
(PID.TID 0000.0001) %MON dynstat_sss_del2             =   7.8912006147416E-03
(PID.TID 0000.0001) %MON forcing_qnet_max             =   3.6386907755534E+02
(PID.TID 0000.0001) %MON forcing_qnet_min             =  -1.7379204610189E+02
(PID.TID 0000.0001) %MON forcing_qnet_mean            =  -1.4304887648557E+01
(PID.TID 0000.0001) %MON forcing_qnet_sd              =   8.3311816502922E+01
(PID.TID 0000.0001) %MON forcing_qnet_del2            =   9.5280129086967E-01
(PID.TID 0000.0001) %MON forcing_qsw_max              =   0.0000000000000E+00
(PID.TID 0000.0001) %MON forcing_qsw_min              =   0.0000000000000E+00
(PID.TID 0000.0001) %MON forcing_qsw_mean             =   0.0000000000000E+00
(PID.TID 0000.0001) %MON forcing_qsw_sd               =   0.0000000000000E+00
(PID.TID 0000.0001) %MON forcing_qsw_del2             =   0.0000000000000E+00
(PID.TID 0000.0001) %MON forcing_empmr_max            =   7.4007905936924E-05
(PID.TID 0000.0001) %MON forcing_empmr_min            =  -7.8226707008374E-05
(PID.TID 0000.0001) %MON forcing_empmr_mean           =   9.4067939086955E-07
(PID.TID 0000.0001) %MON forcing_empmr_sd             =   2.7995335629189E-05
(PID.TID 0000.0001) %MON forcing_empmr_del2           =   3.5444699729804E-07
(PID.TID 0000.0001) %MON forcing_fu_max               =   2.9908689260483E-01
(PID.TID 0000.0001) %MON forcing_fu_min               =  -2.0909265577793E-01
(PID.TID 0000.0001) %MON forcing_fu_mean              =   1.7413540754760E-02
(PID.TID 0000.0001) %MON forcing_fu_sd                =   9.1865449563120E-02
(PID.TID 0000.0001) %MON forcing_fu_del2              =   7.1428703033322E-04
(PID.TID 0000.0001) %MON forcing_fv_max               =   1.9313710530599E-01
(PID.TID 0000.0001) %MON forcing_fv_min               =  -1.8699165980021E-01
(PID.TID 0000.0001) %MON forcing_fv_mean              =  -6.9556813140996E-03
(PID.TID 0000.0001) %MON forcing_fv_sd                =   4.4663298961799E-02
(PID.TID 0000.0001) %MON forcing_fv_del2              =   5.1218138954002E-04
(PID.TID 0000.0001) %MON trAdv_CFL_u_max              =   4.9388249705965E-02
(PID.TID 0000.0001) %MON trAdv_CFL_v_max              =   4.0041257942376E-02
(PID.TID 0000.0001) %MON trAdv_CFL_w_max              =   6.7707474264906E-02
(PID.TID 0000.0001) %MON advcfl_uvel_max              =   4.8907348907420E-02
(PID.TID 0000.0001) %MON advcfl_vvel_max              =   3.6329984393855E-02
(PID.TID 0000.0001) %MON advcfl_wvel_max              =   5.6684170852974E-02
(PID.TID 0000.0001) %MON advcfl_W_hf_max              =   6.4990213470828E-02
(PID.TID 0000.0001) %MON pe_b_mean                    =   9.6379491604142E-04
(PID.TID 0000.0001) %MON ke_max                       =   1.7646470822650E-02
(PID.TID 0000.0001) %MON ke_mean                      =   3.1256792075760E-04
(PID.TID 0000.0001) %MON ke_vol                       =   1.3226782436723E+18
(PID.TID 0000.0001) %MON vort_r_min                   =  -5.0827247544633E-07
(PID.TID 0000.0001) %MON vort_r_max                   =   6.6381050715897E-07
(PID.TID 0000.0001) %MON vort_a_mean                  =  -2.5274806081703E-05
(PID.TID 0000.0001) %MON vort_a_sd                    =   7.3604392148594E-05
(PID.TID 0000.0001) %MON vort_p_mean                  =  -3.1845654141661E-05
(PID.TID 0000.0001) %MON vort_p_sd                    =   1.3162384530250E-04
(PID.TID 0000.0001) %MON surfExpan_theta_mean         =   4.9404604205298E-07
(PID.TID 0000.0001) %MON surfExpan_salt_mean          =  -2.8840637627503E-08
(PID.TID 0000.0001) // =======================================================
(PID.TID 0000.0001) // End MONITOR dynamic field statistics
(PID.TID 0000.0001) // =======================================================
 EXTERNAL_FIELDS_LOAD,        42 : iP,iLd,i0,i1=    1    2    1    2 ; Wght=  0.1000000000  0.9000000000
 EXTERNAL_FIELDS_LOAD: (fu0,1),fu,fv= -3.5633E-02 -1.4435E-02 -1.6555E-02 -2.1598E-02
 EXTERNAL_FIELDS_LOAD: SST,SSS,Q,E-P= -3.8283E-01  3.4450E+01  2.4301E+02  8.7032E-06
DEBUG_STATS_RL:          Uvel (THERMODYNAMICS)  min= -1.73496448659023E-01
DEBUG_STATS_RL:          Uvel (THERMODYNAMICS)  max=  1.56862527665372E-01
DEBUG_STATS_RL:          Uvel (THERMODYNAMICS) mean=  2.08384850920879E-03
DEBUG_STATS_RL:          Uvel (THERMODYNAMICS) S.D.=  3.00788017188314E-02
DEBUG_STATS_RL:          Vvel (THERMODYNAMICS)  min= -1.21675132871616E-01
DEBUG_STATS_RL:          Vvel (THERMODYNAMICS)  max=  1.86994253325362E-01
DEBUG_STATS_RL:          Vvel (THERMODYNAMICS) mean=  5.96222232549698E-04
DEBUG_STATS_RL:          Vvel (THERMODYNAMICS) S.D.=  1.78050158263824E-02
DEBUG_STATS_RL:          Wvel (THERMODYNAMICS)  min= -1.80065925118233E-04
DEBUG_STATS_RL:          Wvel (THERMODYNAMICS)  max=  1.26425086765242E-04
DEBUG_STATS_RL:          Wvel (THERMODYNAMICS) mean= -2.44036478388151E-07
DEBUG_STATS_RL:          Wvel (THERMODYNAMICS) S.D.=  1.78122254710273E-05
DEBUG_STATS_RL:         Theta (THERMODYNAMICS)  min= -1.99766220260794E+00
DEBUG_STATS_RL:         Theta (THERMODYNAMICS)  max=  3.02996488236559E+01
DEBUG_STATS_RL:         Theta (THERMODYNAMICS) mean=  3.24484048551786E+00
DEBUG_STATS_RL:         Theta (THERMODYNAMICS) S.D.=  5.86516684921731E+00
DEBUG_STATS_RL:          Salt (THERMODYNAMICS)  min=  3.00000000000000E-02
DEBUG_STATS_RL:          Salt (THERMODYNAMICS)  max=  3.74892063536269E+01
DEBUG_STATS_RL:          Salt (THERMODYNAMICS) mean=  1.88749031282520E+01
DEBUG_STATS_RL:          Salt (THERMODYNAMICS) S.D.=  1.73004216363406E+01
DEBUG_STATS_RL:         GtNm1 (THERMODYNAMICS)  min= -3.89191361191390E-06
DEBUG_STATS_RL:         GtNm1 (THERMODYNAMICS)  max=  2.83972041097845E-06
DEBUG_STATS_RL:         GtNm1 (THERMODYNAMICS) mean=  1.12792473288626E-08
DEBUG_STATS_RL:         GtNm1 (THERMODYNAMICS) S.D.=  2.17116674555859E-07
DEBUG_STATS_RL:         GsNm1 (THERMODYNAMICS)  min= -4.39491754646241E-07
DEBUG_STATS_RL:         GsNm1 (THERMODYNAMICS)  max=  3.25429346345174E-07
DEBUG_STATS_RL:         GsNm1 (THERMODYNAMICS) mean=  2.11233874125448E-10
DEBUG_STATS_RL:         GsNm1 (THERMODYNAMICS) S.D.=  2.00302523866047E-08
DEBUG_STATS_RL:                EtaN (DYNAMICS)  min= -2.36719309684943E+00
DEBUG_STATS_RL:                EtaN (DYNAMICS)  max=  1.29347837913417E+00
DEBUG_STATS_RL:                EtaN (DYNAMICS) mean= -1.95342092230562E-01
DEBUG_STATS_RL:                EtaN (DYNAMICS) S.D.=  9.37686415520575E-01
DEBUG_STATS_RL:                Uvel (DYNAMICS)  min= -1.73496448659023E-01
DEBUG_STATS_RL:                Uvel (DYNAMICS)  max=  1.56862527665372E-01
DEBUG_STATS_RL:                Uvel (DYNAMICS) mean=  2.08384850920879E-03
DEBUG_STATS_RL:                Uvel (DYNAMICS) S.D.=  3.00788017188314E-02
DEBUG_STATS_RL:                Vvel (DYNAMICS)  min= -1.21675132871616E-01
DEBUG_STATS_RL:                Vvel (DYNAMICS)  max=  1.86994253325362E-01
DEBUG_STATS_RL:                Vvel (DYNAMICS) mean=  5.96222232549698E-04
DEBUG_STATS_RL:                Vvel (DYNAMICS) S.D.=  1.78050158263824E-02
DEBUG_STATS_RL:                Wvel (DYNAMICS)  min= -1.80065925118233E-04
DEBUG_STATS_RL:                Wvel (DYNAMICS)  max=  1.26425086765242E-04
DEBUG_STATS_RL:                Wvel (DYNAMICS) mean= -2.44036478388151E-07
DEBUG_STATS_RL:                Wvel (DYNAMICS) S.D.=  1.78122254710273E-05
DEBUG_STATS_RL:               Theta (DYNAMICS)  min= -1.99766220260794E+00
DEBUG_STATS_RL:               Theta (DYNAMICS)  max=  3.02996488236559E+01
DEBUG_STATS_RL:               Theta (DYNAMICS) mean=  3.24484048551786E+00
DEBUG_STATS_RL:               Theta (DYNAMICS) S.D.=  5.86516684921731E+00
DEBUG_STATS_RL:                Salt (DYNAMICS)  min=  3.00000000000000E-02
DEBUG_STATS_RL:                Salt (DYNAMICS)  max=  3.74892063536269E+01
DEBUG_STATS_RL:                Salt (DYNAMICS) mean=  1.88749031282520E+01
DEBUG_STATS_RL:                Salt (DYNAMICS) S.D.=  1.73004216363406E+01
DEBUG_STATS_RL:                  Gu (DYNAMICS)  min= -1.73345692671999E-01
DEBUG_STATS_RL:                  Gu (DYNAMICS)  max=  1.63817948048519E-01
DEBUG_STATS_RL:                  Gu (DYNAMICS) mean=  1.56911298483834E-03
DEBUG_STATS_RL:                  Gu (DYNAMICS) S.D.=  3.03311106139715E-02
DEBUG_STATS_RL:                  Gv (DYNAMICS)  min= -1.20759971146766E-01
DEBUG_STATS_RL:                  Gv (DYNAMICS)  max=  1.74062108966533E-01
DEBUG_STATS_RL:                  Gv (DYNAMICS) mean=  2.79731920121931E-03
DEBUG_STATS_RL:                  Gv (DYNAMICS) S.D.=  1.80187334595245E-02
DEBUG_STATS_RL:               GuNm1 (DYNAMICS)  min= -9.77194921696556E-06
DEBUG_STATS_RL:               GuNm1 (DYNAMICS)  max=  8.58797768442015E-06
DEBUG_STATS_RL:               GuNm1 (DYNAMICS) mean= -1.25692027028499E-08
DEBUG_STATS_RL:               GuNm1 (DYNAMICS) S.D.=  1.18618432921312E-06
DEBUG_STATS_RL:               GvNm1 (DYNAMICS)  min= -1.02303523870625E-05
DEBUG_STATS_RL:               GvNm1 (DYNAMICS)  max=  1.63749192852842E-05
DEBUG_STATS_RL:               GvNm1 (DYNAMICS) mean=  7.41926375036547E-07
DEBUG_STATS_RL:               GvNm1 (DYNAMICS) S.D.=  2.60589640405870E-06
DEBUG_STATS_RL:               GtNm1 (DYNAMICS)  min= -3.89191361191390E-06
DEBUG_STATS_RL:               GtNm1 (DYNAMICS)  max=  2.83972041097845E-06
DEBUG_STATS_RL:               GtNm1 (DYNAMICS) mean=  1.12792473288626E-08
DEBUG_STATS_RL:               GtNm1 (DYNAMICS) S.D.=  2.17116674555859E-07
DEBUG_STATS_RL:               GsNm1 (DYNAMICS)  min= -4.39491754646241E-07
DEBUG_STATS_RL:               GsNm1 (DYNAMICS)  max=  3.25429346345174E-07
DEBUG_STATS_RL:               GsNm1 (DYNAMICS) mean=  2.11233874125448E-10
DEBUG_STATS_RL:               GsNm1 (DYNAMICS) S.D.=  2.00302523866047E-08
DEBUG_STATS_RL:    cg2d_b (SOLVE_FOR_PRESSURE)  min= -2.96738172481456E+04
DEBUG_STATS_RL:    cg2d_b (SOLVE_FOR_PRESSURE)  max=  1.73339168358446E+04
DEBUG_STATS_RL:    cg2d_b (SOLVE_FOR_PRESSURE) mean=  3.10205350151897E+00
DEBUG_STATS_RL:    cg2d_b (SOLVE_FOR_PRESSURE) S.D.=  3.90765505155127E+03
 cg2d: Sum(rhs),rhsMax =   2.42006405713270E-01  1.94905576629946E+00
(PID.TID 0000.0001)  cg2d: iter=     1 ; resid.=  2.56337030554191E-01
(PID.TID 0000.0001)  cg2d: iter=     2 ; resid.=  2.02586570573524E-01
(PID.TID 0000.0001)  cg2d: iter=     3 ; resid.=  1.89600575663851E-01
(PID.TID 0000.0001)  cg2d: iter=     4 ; resid.=  1.53700799781504E-01
(PID.TID 0000.0001)  cg2d: iter=     5 ; resid.=  1.15799829769886E-01
(PID.TID 0000.0001)  cg2d: iter=     6 ; resid.=  9.06446201967497E-02
(PID.TID 0000.0001)  cg2d: iter=     7 ; resid.=  7.06026053280994E-02
(PID.TID 0000.0001)  cg2d: iter=     8 ; resid.=  5.96452728679421E-02
(PID.TID 0000.0001)  cg2d: iter=     9 ; resid.=  4.89523713491715E-02
(PID.TID 0000.0001)  cg2d: iter=    10 ; resid.=  3.93815360184045E-02
(PID.TID 0000.0001)  cg2d: iter=    11 ; resid.=  3.45076609887972E-02
(PID.TID 0000.0001)  cg2d: iter=    12 ; resid.=  3.08938361440775E-02
(PID.TID 0000.0001)  cg2d: iter=    13 ; resid.=  2.38614222495053E-02
(PID.TID 0000.0001)  cg2d: iter=    14 ; resid.=  1.90820915200388E-02
(PID.TID 0000.0001)  cg2d: iter=    15 ; resid.=  1.58789844315254E-02
(PID.TID 0000.0001)  cg2d: iter=    16 ; resid.=  1.38367778441268E-02
(PID.TID 0000.0001)  cg2d: iter=    17 ; resid.=  1.17229350707890E-02
(PID.TID 0000.0001)  cg2d: iter=    18 ; resid.=  9.40951215383156E-03
(PID.TID 0000.0001)  cg2d: iter=    19 ; resid.=  7.76625300870937E-03
(PID.TID 0000.0001)  cg2d: iter=    20 ; resid.=  6.38781341254039E-03
(PID.TID 0000.0001)  cg2d: iter=    21 ; resid.=  5.27399584428640E-03
(PID.TID 0000.0001)  cg2d: iter=    22 ; resid.=  4.31262416365601E-03
(PID.TID 0000.0001)  cg2d: iter=    23 ; resid.=  3.34299662511933E-03
(PID.TID 0000.0001)  cg2d: iter=    24 ; resid.=  2.69124762052529E-03
(PID.TID 0000.0001)  cg2d: iter=    25 ; resid.=  2.05348092529359E-03
(PID.TID 0000.0001)  cg2d: iter=    26 ; resid.=  1.62138025093758E-03
(PID.TID 0000.0001)  cg2d: iter=    27 ; resid.=  1.35837727515290E-03
(PID.TID 0000.0001)  cg2d: iter=    28 ; resid.=  1.20392860802239E-03
(PID.TID 0000.0001)  cg2d: iter=    29 ; resid.=  1.06280231813030E-03
(PID.TID 0000.0001)  cg2d: iter=    30 ; resid.=  9.64619264778920E-04
(PID.TID 0000.0001)  cg2d: iter=    31 ; resid.=  8.36511557677912E-04
(PID.TID 0000.0001)  cg2d: iter=    32 ; resid.=  6.74771014164500E-04
(PID.TID 0000.0001)  cg2d: iter=    33 ; resid.=  6.16357585266598E-04
(PID.TID 0000.0001)  cg2d: iter=    34 ; resid.=  5.80246086146755E-04
(PID.TID 0000.0001)  cg2d: iter=    35 ; resid.=  4.71266296449231E-04
(PID.TID 0000.0001)  cg2d: iter=    36 ; resid.=  3.68984154420195E-04
(PID.TID 0000.0001)  cg2d: iter=    37 ; resid.=  2.82452663207481E-04
(PID.TID 0000.0001)  cg2d: iter=    38 ; resid.=  2.24931094276937E-04
(PID.TID 0000.0001)  cg2d: iter=    39 ; resid.=  1.78422552267177E-04
(PID.TID 0000.0001)  cg2d: iter=    40 ; resid.=  1.43213207703808E-04
(PID.TID 0000.0001)  cg2d: iter=    41 ; resid.=  1.18580177924618E-04
(PID.TID 0000.0001)  cg2d: iter=    42 ; resid.=  1.04070684046086E-04
(PID.TID 0000.0001)  cg2d: iter=    43 ; resid.=  9.55207137872483E-05
(PID.TID 0000.0001)  cg2d: iter=    44 ; resid.=  7.86152214625506E-05
(PID.TID 0000.0001)  cg2d: iter=    45 ; resid.=  6.27252488339316E-05
(PID.TID 0000.0001)  cg2d: iter=    46 ; resid.=  5.06928962566978E-05
(PID.TID 0000.0001)  cg2d: iter=    47 ; resid.=  4.81123670460441E-05
(PID.TID 0000.0001)  cg2d: iter=    48 ; resid.=  4.21694878954157E-05
(PID.TID 0000.0001)  cg2d: iter=    49 ; resid.=  3.48690335849478E-05
(PID.TID 0000.0001)  cg2d: iter=    50 ; resid.=  2.85972314744231E-05
(PID.TID 0000.0001)  cg2d: iter=    51 ; resid.=  2.38279807088855E-05
(PID.TID 0000.0001)  cg2d: iter=    52 ; resid.=  1.98879097790797E-05
(PID.TID 0000.0001)  cg2d: iter=    53 ; resid.=  1.70170117099933E-05
(PID.TID 0000.0001)  cg2d: iter=    54 ; resid.=  1.47386049683238E-05
(PID.TID 0000.0001)  cg2d: iter=    55 ; resid.=  1.30512355361007E-05
(PID.TID 0000.0001)  cg2d: iter=    56 ; resid.=  1.06042511445617E-05
(PID.TID 0000.0001)  cg2d: iter=    57 ; resid.=  8.46212626656415E-06
(PID.TID 0000.0001)  cg2d: iter=    58 ; resid.=  6.80278709680115E-06
(PID.TID 0000.0001)  cg2d: iter=    59 ; resid.=  5.22521007221649E-06
(PID.TID 0000.0001)  cg2d: iter=    60 ; resid.=  3.95604322075342E-06
(PID.TID 0000.0001)  cg2d: iter=    61 ; resid.=  2.84547326520714E-06
(PID.TID 0000.0001)  cg2d: iter=    62 ; resid.=  2.21417070810816E-06
(PID.TID 0000.0001)  cg2d: iter=    63 ; resid.=  1.72282209162772E-06
(PID.TID 0000.0001)  cg2d: iter=    64 ; resid.=  1.38458058726696E-06
(PID.TID 0000.0001)  cg2d: iter=    65 ; resid.=  1.12731020467491E-06
(PID.TID 0000.0001)  cg2d: iter=    66 ; resid.=  9.37681351856053E-07
(PID.TID 0000.0001)  cg2d: iter=    67 ; resid.=  8.39607219008035E-07
(PID.TID 0000.0001)  cg2d: iter=    68 ; resid.=  7.56662041418100E-07
(PID.TID 0000.0001)  cg2d: iter=    69 ; resid.=  5.98114492474348E-07
(PID.TID 0000.0001)  cg2d: iter=    70 ; resid.=  4.81287547771580E-07
(PID.TID 0000.0001)  cg2d: iter=    71 ; resid.=  4.21744426652302E-07
(PID.TID 0000.0001)  cg2d: iter=    72 ; resid.=  3.63738829801921E-07
(PID.TID 0000.0001)  cg2d: iter=    73 ; resid.=  3.05693946281736E-07
(PID.TID 0000.0001)  cg2d: iter=    74 ; resid.=  2.53176694111152E-07
(PID.TID 0000.0001)  cg2d: iter=    75 ; resid.=  1.92970792924992E-07
(PID.TID 0000.0001)  cg2d: iter=    76 ; resid.=  1.57031801175593E-07
(PID.TID 0000.0001)  cg2d: iter=    77 ; resid.=  1.29021836570130E-07
(PID.TID 0000.0001)  cg2d: iter=    78 ; resid.=  1.13099076627037E-07
(PID.TID 0000.0001)  cg2d: iter=    79 ; resid.=  1.02026449585047E-07
(PID.TID 0000.0001)  cg2d: iter=    80 ; resid.=  8.89359061380376E-08
(PID.TID 0000.0001)  cg2d: iter=    81 ; resid.=  7.80903082767527E-08
(PID.TID 0000.0001)  cg2d: iter=    82 ; resid.=  5.99421524725644E-08
(PID.TID 0000.0001)  cg2d: iter=    83 ; resid.=  4.53685909222132E-08
(PID.TID 0000.0001)  cg2d: iter=    84 ; resid.=  3.67219805809536E-08
(PID.TID 0000.0001)  cg2d: iter=    85 ; resid.=  2.82915249207770E-08
(PID.TID 0000.0001)  cg2d: iter=    86 ; resid.=  2.19933946372928E-08
(PID.TID 0000.0001)  cg2d: iter=    87 ; resid.=  1.60309040215959E-08
(PID.TID 0000.0001)  cg2d: iter=    88 ; resid.=  1.43668603267098E-08
(PID.TID 0000.0001)  cg2d: iter=    89 ; resid.=  1.42449048576740E-08
(PID.TID 0000.0001)  cg2d: iter=    90 ; resid.=  1.21346967184866E-08
(PID.TID 0000.0001)  cg2d: iter=    91 ; resid.=  9.44570129805115E-09
(PID.TID 0000.0001)  cg2d: iter=    92 ; resid.=  6.90595566466950E-09
(PID.TID 0000.0001)  cg2d: iter=    93 ; resid.=  5.21760506667070E-09
(PID.TID 0000.0001)  cg2d: iter=    94 ; resid.=  3.92469787729645E-09
(PID.TID 0000.0001)  cg2d: iter=    95 ; resid.=  3.26632444683769E-09
(PID.TID 0000.0001)  cg2d: iter=    96 ; resid.=  2.35905000472300E-09
(PID.TID 0000.0001)  cg2d: iter=    97 ; resid.=  1.73116342117406E-09
(PID.TID 0000.0001)  cg2d: iter=    98 ; resid.=  1.28700991639985E-09
(PID.TID 0000.0001)  cg2d: iter=    99 ; resid.=  1.08805440273152E-09
(PID.TID 0000.0001)  cg2d: iter=   100 ; resid.=  1.02158575214623E-09
(PID.TID 0000.0001)  cg2d: iter=   101 ; resid.=  8.64960790575012E-10
(PID.TID 0000.0001)  cg2d: iter=   102 ; resid.=  6.84327456971510E-10
(PID.TID 0000.0001)  cg2d: iter=   103 ; resid.=  5.46110433062712E-10
(PID.TID 0000.0001)  cg2d: iter=   104 ; resid.=  4.44052212535057E-10
(PID.TID 0000.0001)  cg2d: iter=   105 ; resid.=  3.49699465229357E-10
(PID.TID 0000.0001)  cg2d: iter=   106 ; resid.=  2.88869850579900E-10
(PID.TID 0000.0001)  cg2d: iter=   107 ; resid.=  2.16603816023152E-10
(PID.TID 0000.0001)  cg2d: iter=   108 ; resid.=  1.72796499592221E-10
(PID.TID 0000.0001)  cg2d: iter=   109 ; resid.=  1.38334963888714E-10
(PID.TID 0000.0001)  cg2d: iter=   110 ; resid.=  1.10691162174561E-10
(PID.TID 0000.0001)  cg2d: iter=   111 ; resid.=  9.50988610085598E-11
(PID.TID 0000.0001)  cg2d: iter=   112 ; resid.=  7.28175097827584E-11
(PID.TID 0000.0001)  cg2d: iter=   113 ; resid.=  5.74977583321824E-11
(PID.TID 0000.0001)  cg2d: iter=   114 ; resid.=  4.85187562544897E-11
(PID.TID 0000.0001)  cg2d: iter=   115 ; resid.=  3.54678162176776E-11
(PID.TID 0000.0001)  cg2d: iter=   116 ; resid.=  2.55959795467379E-11
(PID.TID 0000.0001)  cg2d: iter=   117 ; resid.=  1.94128438218738E-11
(PID.TID 0000.0001)  cg2d: iter=   118 ; resid.=  1.35508170976528E-11
(PID.TID 0000.0001)  cg2d: iter=   119 ; resid.=  1.08854930346877E-11
(PID.TID 0000.0001)  cg2d: iter=   120 ; resid.=  7.80248738179878E-12
(PID.TID 0000.0001)  cg2d: iter=   121 ; resid.=  5.92091765029762E-12
(PID.TID 0000.0001)  cg2d: iter=   122 ; resid.=  4.55111291295556E-12
(PID.TID 0000.0001)  cg2d: iter=   123 ; resid.=  3.49401380303475E-12
(PID.TID 0000.0001)  cg2d: iter=   124 ; resid.=  2.41965233159022E-12
(PID.TID 0000.0001)  cg2d: iter=   125 ; resid.=  1.78126792386462E-12
(PID.TID 0000.0001)  cg2d: iter=   126 ; resid.=  1.43821024235976E-12
(PID.TID 0000.0001)  cg2d: iter=   127 ; resid.=  1.07014301821019E-12
(PID.TID 0000.0001)  cg2d: iter=   128 ; resid.=  7.68400555430373E-13
(PID.TID 0000.0001)  cg2d: iter=   129 ; resid.=  5.65888061861490E-13
(PID.TID 0000.0001)  cg2d: iter=   130 ; resid.=  4.57483757490774E-13
(PID.TID 0000.0001)  cg2d: iter=   131 ; resid.=  3.89190866433938E-13
(PID.TID 0000.0001)  cg2d: iter=   132 ; resid.=  3.03172540447884E-13
(PID.TID 0000.0001)  cg2d: iter=   133 ; resid.=  2.21689044422813E-13
(PID.TID 0000.0001)  cg2d: iter=   134 ; resid.=  1.61881088366466E-13
(PID.TID 0000.0001)  cg2d: iter=   135 ; resid.=  1.22653271900050E-13
(PID.TID 0000.0001)  cg2d: iter=   136 ; resid.=  8.89260754466498E-14
DEBUG_STATS_RL:    cg2d_x (SOLVE_FOR_PRESSURE)  min= -2.38439680559444E+01
DEBUG_STATS_RL:    cg2d_x (SOLVE_FOR_PRESSURE)  max=  1.26049693535146E+01
DEBUG_STATS_RL:    cg2d_x (SOLVE_FOR_PRESSURE) mean= -1.94343512058807E+00
DEBUG_STATS_RL:    cg2d_x (SOLVE_FOR_PRESSURE) S.D.=  9.27370744495715E+00
(PID.TID 0000.0001)      cg2d_init_res =   4.00666523311281E-01
(PID.TID 0000.0001)      cg2d_iters(min,last) =      -1     136
(PID.TID 0000.0001)      cg2d_last_res =   8.89260754466498E-14
(PID.TID 0000.0001) // =======================================================
(PID.TID 0000.0001) // Begin MONITOR dynamic field statistics
(PID.TID 0000.0001) // =======================================================
(PID.TID 0000.0001) %MON time_tsnumber                =                    43
(PID.TID 0000.0001) %MON time_secondsf                =   3.7152000000000E+06
(PID.TID 0000.0001) %MON dynstat_eta_max              =   1.2849102297161E+00
(PID.TID 0000.0001) %MON dynstat_eta_min              =  -2.4305777834804E+00
(PID.TID 0000.0001) %MON dynstat_eta_mean             =  -3.2366081868990E-03
(PID.TID 0000.0001) %MON dynstat_eta_sd               =   8.7200373551071E-01
(PID.TID 0000.0001) %MON dynstat_eta_del2             =   2.3749617460386E-03
(PID.TID 0000.0001) %MON dynstat_uvel_max             =   1.6130013516925E-01
(PID.TID 0000.0001) %MON dynstat_uvel_min             =  -1.7365956311615E-01
(PID.TID 0000.0001) %MON dynstat_uvel_mean            =   8.4555832841261E-05
(PID.TID 0000.0001) %MON dynstat_uvel_sd              =   2.2858494297248E-02
(PID.TID 0000.0001) %MON dynstat_uvel_del2            =   1.2314341725058E-04
(PID.TID 0000.0001) %MON dynstat_vvel_max             =   1.7458765929356E-01
(PID.TID 0000.0001) %MON dynstat_vvel_min             =  -1.2346923650214E-01
(PID.TID 0000.0001) %MON dynstat_vvel_mean            =  -4.0892215186345E-05
(PID.TID 0000.0001) %MON dynstat_vvel_sd              =   1.2636066178324E-02
(PID.TID 0000.0001) %MON dynstat_vvel_del2            =   1.0213608935358E-04
(PID.TID 0000.0001) %MON dynstat_wvel_max             =   1.2359050086038E-04
(PID.TID 0000.0001) %MON dynstat_wvel_min             =  -1.8323840279161E-04
(PID.TID 0000.0001) %MON dynstat_wvel_mean            =  -3.8359709829988E-22
(PID.TID 0000.0001) %MON dynstat_wvel_sd              =   2.0499279122833E-05
(PID.TID 0000.0001) %MON dynstat_wvel_del2            =   2.0147209316465E-07
(PID.TID 0000.0001) %MON dynstat_theta_max            =   3.0299648823656E+01
(PID.TID 0000.0001) %MON dynstat_theta_min            =  -1.9976622026079E+00
(PID.TID 0000.0001) %MON dynstat_theta_mean           =   3.6518291873891E+00
(PID.TID 0000.0001) %MON dynstat_theta_sd             =   4.4195167583857E+00
(PID.TID 0000.0001) %MON dynstat_theta_del2           =   4.7767434796300E-03
(PID.TID 0000.0001) %MON dynstat_salt_max             =   3.7489206353627E+01
(PID.TID 0000.0001) %MON dynstat_salt_min             =   2.9850779715481E+01
(PID.TID 0000.0001) %MON dynstat_salt_mean            =   3.4748038714499E+01
(PID.TID 0000.0001) %MON dynstat_salt_sd              =   2.9643110978736E-01
(PID.TID 0000.0001) %MON dynstat_salt_del2            =   9.8811479273583E-04
(PID.TID 0000.0001) %MON dynstat_sst_max              =   3.0299648823656E+01
(PID.TID 0000.0001) %MON dynstat_sst_min              =  -1.9976622026079E+00
(PID.TID 0000.0001) %MON dynstat_sst_mean             =   1.8893494914484E+01
(PID.TID 0000.0001) %MON dynstat_sst_sd               =   9.0114684340443E+00
(PID.TID 0000.0001) %MON dynstat_sst_del2             =   2.7265112784990E-02
(PID.TID 0000.0001) %MON dynstat_sss_max              =   3.7459873157615E+01
(PID.TID 0000.0001) %MON dynstat_sss_min              =   2.9850779715481E+01
(PID.TID 0000.0001) %MON dynstat_sss_mean             =   3.4874721714802E+01
(PID.TID 0000.0001) %MON dynstat_sss_sd               =   9.7716153327195E-01
(PID.TID 0000.0001) %MON dynstat_sss_del2             =   7.8923180843547E-03
(PID.TID 0000.0001) %MON forcing_qnet_max             =   3.6251486816406E+02
(PID.TID 0000.0001) %MON forcing_qnet_min             =  -1.7355252685547E+02
(PID.TID 0000.0001) %MON forcing_qnet_mean            =  -1.4219978481153E+01
(PID.TID 0000.0001) %MON forcing_qnet_sd              =   8.2371696760825E+01
(PID.TID 0000.0001) %MON forcing_qnet_del2            =   9.5171455231292E-01
(PID.TID 0000.0001) %MON forcing_qsw_max              =   0.0000000000000E+00
(PID.TID 0000.0001) %MON forcing_qsw_min              =   0.0000000000000E+00
(PID.TID 0000.0001) %MON forcing_qsw_mean             =   0.0000000000000E+00
(PID.TID 0000.0001) %MON forcing_qsw_sd               =   0.0000000000000E+00
(PID.TID 0000.0001) %MON forcing_qsw_del2             =   0.0000000000000E+00
(PID.TID 0000.0001) %MON forcing_empmr_max            =   7.3693816204923E-05
(PID.TID 0000.0001) %MON forcing_empmr_min            =  -7.8306351269930E-05
(PID.TID 0000.0001) %MON forcing_empmr_mean           =   9.4136178812951E-07
(PID.TID 0000.0001) %MON forcing_empmr_sd             =   2.7989109089205E-05
(PID.TID 0000.0001) %MON forcing_empmr_del2           =   3.5476172595568E-07
(PID.TID 0000.0001) %MON forcing_fu_max               =   3.0047405064106E-01
(PID.TID 0000.0001) %MON forcing_fu_min               =  -2.1116244494915E-01
(PID.TID 0000.0001) %MON forcing_fu_mean              =   1.7467840970229E-02
(PID.TID 0000.0001) %MON forcing_fu_sd                =   9.2128273679121E-02
(PID.TID 0000.0001) %MON forcing_fu_del2              =   7.2179649985701E-04
(PID.TID 0000.0001) %MON forcing_fv_max               =   1.9524907022715E-01
(PID.TID 0000.0001) %MON forcing_fv_min               =  -1.9016355872154E-01
(PID.TID 0000.0001) %MON forcing_fv_mean              =  -7.0209422208148E-03
(PID.TID 0000.0001) %MON forcing_fv_sd                =   4.4736678888232E-02
(PID.TID 0000.0001) %MON forcing_fv_del2              =   5.1897923714387E-04
(PID.TID 0000.0001) %MON trAdv_CFL_u_max              =   4.8917282339774E-02
(PID.TID 0000.0001) %MON trAdv_CFL_v_max              =   3.8060694097322E-02
(PID.TID 0000.0001) %MON trAdv_CFL_w_max              =   6.4990213470828E-02
(PID.TID 0000.0001) %MON advcfl_uvel_max              =   4.7844768148195E-02
(PID.TID 0000.0001) %MON advcfl_vvel_max              =   3.3919582151322E-02
(PID.TID 0000.0001) %MON advcfl_wvel_max              =   5.5913537613649E-02
(PID.TID 0000.0001) %MON advcfl_W_hf_max              =   6.3270582036497E-02
(PID.TID 0000.0001) %MON pe_b_mean                    =   9.7302472047152E-04
(PID.TID 0000.0001) %MON ke_max                       =   1.7312881330100E-02
(PID.TID 0000.0001) %MON ke_mean                      =   3.0907148300815E-04
(PID.TID 0000.0001) %MON ke_vol                       =   1.3226782436723E+18
(PID.TID 0000.0001) %MON vort_r_min                   =  -5.0396353100227E-07
(PID.TID 0000.0001) %MON vort_r_max                   =   6.6144478334567E-07
(PID.TID 0000.0001) %MON vort_a_mean                  =  -2.5274806000025E-05
(PID.TID 0000.0001) %MON vort_a_sd                    =   7.3604326458426E-05
(PID.TID 0000.0001) %MON vort_p_mean                  =  -3.1845654038748E-05
(PID.TID 0000.0001) %MON vort_p_sd                    =   1.3162356567483E-04
(PID.TID 0000.0001) %MON surfExpan_theta_mean         =   3.6321435911661E-07
(PID.TID 0000.0001) %MON surfExpan_salt_mean          =   4.1930879333989E-08
(PID.TID 0000.0001) // =======================================================
(PID.TID 0000.0001) // End MONITOR dynamic field statistics
(PID.TID 0000.0001) // =======================================================
 EXTERNAL_FIELDS_LOAD,        43 : iP,iLd,i0,i1=    1    2    1    2 ; Wght=  0.0666666667  0.9333333333
 EXTERNAL_FIELDS_LOAD: (fu0,1),fu,fv= -3.5633E-02 -1.4435E-02 -1.5848E-02 -2.0277E-02
 EXTERNAL_FIELDS_LOAD: SST,SSS,Q,E-P= -4.3250E-01  3.4441E+01  2.4217E+02  8.5945E-06
DEBUG_STATS_RL:          Uvel (THERMODYNAMICS)  min= -1.73659563116154E-01
DEBUG_STATS_RL:          Uvel (THERMODYNAMICS)  max=  1.61300135169250E-01
DEBUG_STATS_RL:          Uvel (THERMODYNAMICS) mean=  1.76753636093462E-03
DEBUG_STATS_RL:          Uvel (THERMODYNAMICS) S.D.=  2.98294972680176E-02
DEBUG_STATS_RL:          Vvel (THERMODYNAMICS)  min= -1.23469236502139E-01
DEBUG_STATS_RL:          Vvel (THERMODYNAMICS)  max=  1.74587659293561E-01
DEBUG_STATS_RL:          Vvel (THERMODYNAMICS) mean=  7.94933131751638E-04
DEBUG_STATS_RL:          Vvel (THERMODYNAMICS) S.D.=  1.77539651689477E-02
DEBUG_STATS_RL:          Wvel (THERMODYNAMICS)  min= -1.83238402791613E-04
DEBUG_STATS_RL:          Wvel (THERMODYNAMICS)  max=  1.23590500860383E-04
DEBUG_STATS_RL:          Wvel (THERMODYNAMICS) mean= -2.04162599740164E-07
DEBUG_STATS_RL:          Wvel (THERMODYNAMICS) S.D.=  1.77594595821315E-05
DEBUG_STATS_RL:         Theta (THERMODYNAMICS)  min= -1.99628927153639E+00
DEBUG_STATS_RL:         Theta (THERMODYNAMICS)  max=  3.03226361958075E+01
DEBUG_STATS_RL:         Theta (THERMODYNAMICS) mean=  3.24531504988454E+00
DEBUG_STATS_RL:         Theta (THERMODYNAMICS) S.D.=  5.86601213297530E+00
DEBUG_STATS_RL:          Salt (THERMODYNAMICS)  min=  3.00000000000000E-02
DEBUG_STATS_RL:          Salt (THERMODYNAMICS)  max=  3.74896810017271E+01
DEBUG_STATS_RL:          Salt (THERMODYNAMICS) mean=  1.88749149590835E+01
DEBUG_STATS_RL:          Salt (THERMODYNAMICS) S.D.=  1.73004329208944E+01
DEBUG_STATS_RL:         GtNm1 (THERMODYNAMICS)  min= -4.03731362253224E-06
DEBUG_STATS_RL:         GtNm1 (THERMODYNAMICS)  max=  3.04362923648862E-06
DEBUG_STATS_RL:         GtNm1 (THERMODYNAMICS) mean=  1.06859671779404E-08
DEBUG_STATS_RL:         GtNm1 (THERMODYNAMICS) S.D.=  2.15599605571912E-07
DEBUG_STATS_RL:         GsNm1 (THERMODYNAMICS)  min= -3.99322178326516E-07
DEBUG_STATS_RL:         GsNm1 (THERMODYNAMICS)  max=  3.27083891382051E-07
DEBUG_STATS_RL:         GsNm1 (THERMODYNAMICS) mean=  2.09482280471201E-10
DEBUG_STATS_RL:         GsNm1 (THERMODYNAMICS) S.D.=  1.99333793498624E-08
DEBUG_STATS_RL:                EtaN (DYNAMICS)  min= -2.43057778348037E+00
DEBUG_STATS_RL:                EtaN (DYNAMICS)  max=  1.28491022971605E+00
DEBUG_STATS_RL:                EtaN (DYNAMICS) mean= -1.98107555615503E-01
DEBUG_STATS_RL:                EtaN (DYNAMICS) S.D.=  9.45332053512456E-01
DEBUG_STATS_RL:                Uvel (DYNAMICS)  min= -1.73659563116154E-01
DEBUG_STATS_RL:                Uvel (DYNAMICS)  max=  1.61300135169250E-01
DEBUG_STATS_RL:                Uvel (DYNAMICS) mean=  1.76753636093462E-03
DEBUG_STATS_RL:                Uvel (DYNAMICS) S.D.=  2.98294972680176E-02
DEBUG_STATS_RL:                Vvel (DYNAMICS)  min= -1.23469236502139E-01
DEBUG_STATS_RL:                Vvel (DYNAMICS)  max=  1.74587659293561E-01
DEBUG_STATS_RL:                Vvel (DYNAMICS) mean=  7.94933131751638E-04
DEBUG_STATS_RL:                Vvel (DYNAMICS) S.D.=  1.77539651689477E-02
DEBUG_STATS_RL:                Wvel (DYNAMICS)  min= -1.83238402791613E-04
DEBUG_STATS_RL:                Wvel (DYNAMICS)  max=  1.23590500860383E-04
DEBUG_STATS_RL:                Wvel (DYNAMICS) mean= -2.04162599740164E-07
DEBUG_STATS_RL:                Wvel (DYNAMICS) S.D.=  1.77594595821315E-05
DEBUG_STATS_RL:               Theta (DYNAMICS)  min= -1.99628927153639E+00
DEBUG_STATS_RL:               Theta (DYNAMICS)  max=  3.03226361958075E+01
DEBUG_STATS_RL:               Theta (DYNAMICS) mean=  3.24531504988454E+00
DEBUG_STATS_RL:               Theta (DYNAMICS) S.D.=  5.86601213297530E+00
DEBUG_STATS_RL:                Salt (DYNAMICS)  min=  3.00000000000000E-02
DEBUG_STATS_RL:                Salt (DYNAMICS)  max=  3.74896810017271E+01
DEBUG_STATS_RL:                Salt (DYNAMICS) mean=  1.88749149590835E+01
DEBUG_STATS_RL:                Salt (DYNAMICS) S.D.=  1.73004329208944E+01
DEBUG_STATS_RL:                  Gu (DYNAMICS)  min= -1.73170257756485E-01
DEBUG_STATS_RL:                  Gu (DYNAMICS)  max=  1.66654151820116E-01
DEBUG_STATS_RL:                  Gu (DYNAMICS) mean=  1.33615995099070E-03
DEBUG_STATS_RL:                  Gu (DYNAMICS) S.D.=  3.00058332440876E-02
DEBUG_STATS_RL:                  Gv (DYNAMICS)  min= -1.22482320200830E-01
DEBUG_STATS_RL:                  Gv (DYNAMICS)  max=  1.58734999528435E-01
DEBUG_STATS_RL:                  Gv (DYNAMICS) mean=  2.94195188113638E-03
DEBUG_STATS_RL:                  Gv (DYNAMICS) S.D.=  1.81041284240319E-02
DEBUG_STATS_RL:               GuNm1 (DYNAMICS)  min= -9.79201128798973E-06
DEBUG_STATS_RL:               GuNm1 (DYNAMICS)  max=  8.63087189576642E-06
DEBUG_STATS_RL:               GuNm1 (DYNAMICS) mean= -1.01017539272736E-08
DEBUG_STATS_RL:               GuNm1 (DYNAMICS) S.D.=  1.18677869590502E-06
DEBUG_STATS_RL:               GvNm1 (DYNAMICS)  min= -1.00739555385038E-05
DEBUG_STATS_RL:               GvNm1 (DYNAMICS)  max=  1.63826322651682E-05
DEBUG_STATS_RL:               GvNm1 (DYNAMICS) mean=  7.41291971160954E-07
DEBUG_STATS_RL:               GvNm1 (DYNAMICS) S.D.=  2.60372664676454E-06
DEBUG_STATS_RL:               GtNm1 (DYNAMICS)  min= -4.03731362253224E-06
DEBUG_STATS_RL:               GtNm1 (DYNAMICS)  max=  3.04362923648862E-06
DEBUG_STATS_RL:               GtNm1 (DYNAMICS) mean=  1.06859671779404E-08
DEBUG_STATS_RL:               GtNm1 (DYNAMICS) S.D.=  2.15599605571912E-07
DEBUG_STATS_RL:               GsNm1 (DYNAMICS)  min= -3.99322178326516E-07
DEBUG_STATS_RL:               GsNm1 (DYNAMICS)  max=  3.27083891382051E-07
DEBUG_STATS_RL:               GsNm1 (DYNAMICS) mean=  2.09482280471201E-10
DEBUG_STATS_RL:               GsNm1 (DYNAMICS) S.D.=  1.99333793498624E-08
DEBUG_STATS_RL:    cg2d_b (SOLVE_FOR_PRESSURE)  min= -3.01021625887933E+04
DEBUG_STATS_RL:    cg2d_b (SOLVE_FOR_PRESSURE)  max=  1.68403400792090E+04
DEBUG_STATS_RL:    cg2d_b (SOLVE_FOR_PRESSURE) mean=  3.17742442240484E+00
DEBUG_STATS_RL:    cg2d_b (SOLVE_FOR_PRESSURE) S.D.=  3.90258725128596E+03
 cg2d: Sum(rhs),rhsMax =   2.44359105966879E-01  1.97719063513604E+00
(PID.TID 0000.0001)  cg2d: iter=     1 ; resid.=  2.44992806938584E-01
(PID.TID 0000.0001)  cg2d: iter=     2 ; resid.=  1.95192160584730E-01
(PID.TID 0000.0001)  cg2d: iter=     3 ; resid.=  1.79894649522776E-01
(PID.TID 0000.0001)  cg2d: iter=     4 ; resid.=  1.43395851536559E-01
(PID.TID 0000.0001)  cg2d: iter=     5 ; resid.=  1.07665211767624E-01
(PID.TID 0000.0001)  cg2d: iter=     6 ; resid.=  8.53528598497916E-02
(PID.TID 0000.0001)  cg2d: iter=     7 ; resid.=  6.70714781308076E-02
(PID.TID 0000.0001)  cg2d: iter=     8 ; resid.=  5.64348404171193E-02
(PID.TID 0000.0001)  cg2d: iter=     9 ; resid.=  4.60088620525859E-02
(PID.TID 0000.0001)  cg2d: iter=    10 ; resid.=  3.70681922341914E-02
(PID.TID 0000.0001)  cg2d: iter=    11 ; resid.=  3.23331039427414E-02
(PID.TID 0000.0001)  cg2d: iter=    12 ; resid.=  2.91960192103653E-02
(PID.TID 0000.0001)  cg2d: iter=    13 ; resid.=  2.23728751822899E-02
(PID.TID 0000.0001)  cg2d: iter=    14 ; resid.=  1.74769780710931E-02
(PID.TID 0000.0001)  cg2d: iter=    15 ; resid.=  1.42647784201433E-02
(PID.TID 0000.0001)  cg2d: iter=    16 ; resid.=  1.23334195967865E-02
(PID.TID 0000.0001)  cg2d: iter=    17 ; resid.=  1.03625287499320E-02
(PID.TID 0000.0001)  cg2d: iter=    18 ; resid.=  8.11274707416713E-03
(PID.TID 0000.0001)  cg2d: iter=    19 ; resid.=  6.63632713857758E-03
(PID.TID 0000.0001)  cg2d: iter=    20 ; resid.=  5.51520263050272E-03
(PID.TID 0000.0001)  cg2d: iter=    21 ; resid.=  4.60571407375181E-03
(PID.TID 0000.0001)  cg2d: iter=    22 ; resid.=  3.81435834428431E-03
(PID.TID 0000.0001)  cg2d: iter=    23 ; resid.=  2.97678663470944E-03
(PID.TID 0000.0001)  cg2d: iter=    24 ; resid.=  2.38422357554489E-03
(PID.TID 0000.0001)  cg2d: iter=    25 ; resid.=  1.82766132434938E-03
(PID.TID 0000.0001)  cg2d: iter=    26 ; resid.=  1.42807303206560E-03
(PID.TID 0000.0001)  cg2d: iter=    27 ; resid.=  1.19887807925362E-03
(PID.TID 0000.0001)  cg2d: iter=    28 ; resid.=  1.05088014767629E-03
(PID.TID 0000.0001)  cg2d: iter=    29 ; resid.=  9.09949555870452E-04
(PID.TID 0000.0001)  cg2d: iter=    30 ; resid.=  8.18244865677904E-04
(PID.TID 0000.0001)  cg2d: iter=    31 ; resid.=  7.07406750427702E-04
(PID.TID 0000.0001)  cg2d: iter=    32 ; resid.=  5.69545359416701E-04
(PID.TID 0000.0001)  cg2d: iter=    33 ; resid.=  5.06681455186152E-04
(PID.TID 0000.0001)  cg2d: iter=    34 ; resid.=  4.70103196972421E-04
(PID.TID 0000.0001)  cg2d: iter=    35 ; resid.=  3.84267648080456E-04
(PID.TID 0000.0001)  cg2d: iter=    36 ; resid.=  3.08397757029302E-04
(PID.TID 0000.0001)  cg2d: iter=    37 ; resid.=  2.39202182991081E-04
(PID.TID 0000.0001)  cg2d: iter=    38 ; resid.=  1.88371346603755E-04
(PID.TID 0000.0001)  cg2d: iter=    39 ; resid.=  1.46115972103890E-04
(PID.TID 0000.0001)  cg2d: iter=    40 ; resid.=  1.16432747185389E-04
(PID.TID 0000.0001)  cg2d: iter=    41 ; resid.=  9.48593806560210E-05
(PID.TID 0000.0001)  cg2d: iter=    42 ; resid.=  8.19783838928111E-05
(PID.TID 0000.0001)  cg2d: iter=    43 ; resid.=  7.51526456494753E-05
(PID.TID 0000.0001)  cg2d: iter=    44 ; resid.=  6.18609081875820E-05
(PID.TID 0000.0001)  cg2d: iter=    45 ; resid.=  4.92592593449108E-05
(PID.TID 0000.0001)  cg2d: iter=    46 ; resid.=  3.85982229913476E-05
(PID.TID 0000.0001)  cg2d: iter=    47 ; resid.=  3.53221479817671E-05
(PID.TID 0000.0001)  cg2d: iter=    48 ; resid.=  2.98003675697853E-05
(PID.TID 0000.0001)  cg2d: iter=    49 ; resid.=  2.39574091311056E-05
(PID.TID 0000.0001)  cg2d: iter=    50 ; resid.=  1.84251722398300E-05
(PID.TID 0000.0001)  cg2d: iter=    51 ; resid.=  1.44276725324302E-05
(PID.TID 0000.0001)  cg2d: iter=    52 ; resid.=  1.14768184853945E-05
(PID.TID 0000.0001)  cg2d: iter=    53 ; resid.=  9.42764274025633E-06
(PID.TID 0000.0001)  cg2d: iter=    54 ; resid.=  8.00893189203338E-06
(PID.TID 0000.0001)  cg2d: iter=    55 ; resid.=  7.27243113244740E-06
(PID.TID 0000.0001)  cg2d: iter=    56 ; resid.=  6.44829091270384E-06
(PID.TID 0000.0001)  cg2d: iter=    57 ; resid.=  5.80438936006672E-06
(PID.TID 0000.0001)  cg2d: iter=    58 ; resid.=  5.32959287616734E-06
(PID.TID 0000.0001)  cg2d: iter=    59 ; resid.=  4.50880579855094E-06
(PID.TID 0000.0001)  cg2d: iter=    60 ; resid.=  3.78819925936040E-06
(PID.TID 0000.0001)  cg2d: iter=    61 ; resid.=  3.04377156924341E-06
(PID.TID 0000.0001)  cg2d: iter=    62 ; resid.=  2.62381490246709E-06
(PID.TID 0000.0001)  cg2d: iter=    63 ; resid.=  2.16688521284260E-06
(PID.TID 0000.0001)  cg2d: iter=    64 ; resid.=  1.80934625074076E-06
(PID.TID 0000.0001)  cg2d: iter=    65 ; resid.=  1.49547711663548E-06
(PID.TID 0000.0001)  cg2d: iter=    66 ; resid.=  1.22053064910722E-06
(PID.TID 0000.0001)  cg2d: iter=    67 ; resid.=  1.05755270958281E-06
(PID.TID 0000.0001)  cg2d: iter=    68 ; resid.=  8.89004880349455E-07
(PID.TID 0000.0001)  cg2d: iter=    69 ; resid.=  6.56157593063285E-07
(PID.TID 0000.0001)  cg2d: iter=    70 ; resid.=  5.02430584768735E-07
(PID.TID 0000.0001)  cg2d: iter=    71 ; resid.=  4.06460326132960E-07
(PID.TID 0000.0001)  cg2d: iter=    72 ; resid.=  3.18656817269400E-07
(PID.TID 0000.0001)  cg2d: iter=    73 ; resid.=  2.48680106548802E-07
(PID.TID 0000.0001)  cg2d: iter=    74 ; resid.=  1.96924941503186E-07
(PID.TID 0000.0001)  cg2d: iter=    75 ; resid.=  1.42252905312149E-07
(PID.TID 0000.0001)  cg2d: iter=    76 ; resid.=  1.05574775267083E-07
(PID.TID 0000.0001)  cg2d: iter=    77 ; resid.=  7.97405455142203E-08
(PID.TID 0000.0001)  cg2d: iter=    78 ; resid.=  6.29806491847339E-08
(PID.TID 0000.0001)  cg2d: iter=    79 ; resid.=  5.49678005100472E-08
(PID.TID 0000.0001)  cg2d: iter=    80 ; resid.=  4.72894036275783E-08
(PID.TID 0000.0001)  cg2d: iter=    81 ; resid.=  4.39959122427231E-08
(PID.TID 0000.0001)  cg2d: iter=    82 ; resid.=  3.80600144126470E-08
(PID.TID 0000.0001)  cg2d: iter=    83 ; resid.=  3.19087769562697E-08
(PID.TID 0000.0001)  cg2d: iter=    84 ; resid.=  2.76407039302608E-08
(PID.TID 0000.0001)  cg2d: iter=    85 ; resid.=  2.21378427677612E-08
(PID.TID 0000.0001)  cg2d: iter=    86 ; resid.=  1.74870801757666E-08
(PID.TID 0000.0001)  cg2d: iter=    87 ; resid.=  1.23688432748215E-08
(PID.TID 0000.0001)  cg2d: iter=    88 ; resid.=  1.08200816262310E-08
(PID.TID 0000.0001)  cg2d: iter=    89 ; resid.=  1.06342986664950E-08
(PID.TID 0000.0001)  cg2d: iter=    90 ; resid.=  9.22420103602246E-09
(PID.TID 0000.0001)  cg2d: iter=    91 ; resid.=  7.49149739421692E-09
(PID.TID 0000.0001)  cg2d: iter=    92 ; resid.=  5.76663041601904E-09
(PID.TID 0000.0001)  cg2d: iter=    93 ; resid.=  4.36571752964577E-09
(PID.TID 0000.0001)  cg2d: iter=    94 ; resid.=  3.28551642759174E-09
(PID.TID 0000.0001)  cg2d: iter=    95 ; resid.=  2.76523236534385E-09
(PID.TID 0000.0001)  cg2d: iter=    96 ; resid.=  1.96406358864414E-09
(PID.TID 0000.0001)  cg2d: iter=    97 ; resid.=  1.37233556764761E-09
(PID.TID 0000.0001)  cg2d: iter=    98 ; resid.=  9.53475661284635E-10
(PID.TID 0000.0001)  cg2d: iter=    99 ; resid.=  7.39516479295872E-10
(PID.TID 0000.0001)  cg2d: iter=   100 ; resid.=  6.44265636431524E-10
(PID.TID 0000.0001)  cg2d: iter=   101 ; resid.=  5.07531741837834E-10
(PID.TID 0000.0001)  cg2d: iter=   102 ; resid.=  3.67626874532744E-10
(PID.TID 0000.0001)  cg2d: iter=   103 ; resid.=  2.61468706729854E-10
(PID.TID 0000.0001)  cg2d: iter=   104 ; resid.=  1.99275608515794E-10
(PID.TID 0000.0001)  cg2d: iter=   105 ; resid.=  1.49471347319520E-10
(PID.TID 0000.0001)  cg2d: iter=   106 ; resid.=  1.20617443057057E-10
(PID.TID 0000.0001)  cg2d: iter=   107 ; resid.=  9.01954075402202E-11
(PID.TID 0000.0001)  cg2d: iter=   108 ; resid.=  7.12364319330602E-11
(PID.TID 0000.0001)  cg2d: iter=   109 ; resid.=  5.88502781399180E-11
(PID.TID 0000.0001)  cg2d: iter=   110 ; resid.=  4.54714932735806E-11
(PID.TID 0000.0001)  cg2d: iter=   111 ; resid.=  3.89783154920508E-11
(PID.TID 0000.0001)  cg2d: iter=   112 ; resid.=  3.19911596692851E-11
(PID.TID 0000.0001)  cg2d: iter=   113 ; resid.=  2.66604168879397E-11
(PID.TID 0000.0001)  cg2d: iter=   114 ; resid.=  2.41111905906946E-11
(PID.TID 0000.0001)  cg2d: iter=   115 ; resid.=  1.88123956294262E-11
(PID.TID 0000.0001)  cg2d: iter=   116 ; resid.=  1.42025543881566E-11
(PID.TID 0000.0001)  cg2d: iter=   117 ; resid.=  1.20121370375366E-11
(PID.TID 0000.0001)  cg2d: iter=   118 ; resid.=  9.01087076576357E-12
(PID.TID 0000.0001)  cg2d: iter=   119 ; resid.=  7.94119002281670E-12
(PID.TID 0000.0001)  cg2d: iter=   120 ; resid.=  6.11763913989987E-12
(PID.TID 0000.0001)  cg2d: iter=   121 ; resid.=  4.80183295890235E-12
(PID.TID 0000.0001)  cg2d: iter=   122 ; resid.=  4.01267313356161E-12
(PID.TID 0000.0001)  cg2d: iter=   123 ; resid.=  3.39094026528630E-12
(PID.TID 0000.0001)  cg2d: iter=   124 ; resid.=  2.55934438881831E-12
(PID.TID 0000.0001)  cg2d: iter=   125 ; resid.=  1.95268565513463E-12
(PID.TID 0000.0001)  cg2d: iter=   126 ; resid.=  1.50238351715613E-12
(PID.TID 0000.0001)  cg2d: iter=   127 ; resid.=  1.02907941994618E-12
(PID.TID 0000.0001)  cg2d: iter=   128 ; resid.=  6.98339579356296E-13
(PID.TID 0000.0001)  cg2d: iter=   129 ; resid.=  5.10627236609659E-13
(PID.TID 0000.0001)  cg2d: iter=   130 ; resid.=  3.98969292622597E-13
(PID.TID 0000.0001)  cg2d: iter=   131 ; resid.=  3.19096634723322E-13
(PID.TID 0000.0001)  cg2d: iter=   132 ; resid.=  2.41625625074850E-13
(PID.TID 0000.0001)  cg2d: iter=   133 ; resid.=  1.80521263526272E-13
(PID.TID 0000.0001)  cg2d: iter=   134 ; resid.=  1.39672224020051E-13
(PID.TID 0000.0001)  cg2d: iter=   135 ; resid.=  1.08963577823193E-13
(PID.TID 0000.0001)  cg2d: iter=   136 ; resid.=  7.98969459180141E-14
DEBUG_STATS_RL:    cg2d_x (SOLVE_FOR_PRESSURE)  min= -2.38692886027901E+01
DEBUG_STATS_RL:    cg2d_x (SOLVE_FOR_PRESSURE)  max=  1.27749846267273E+01
DEBUG_STATS_RL:    cg2d_x (SOLVE_FOR_PRESSURE) mean= -1.96023261782308E+00
DEBUG_STATS_RL:    cg2d_x (SOLVE_FOR_PRESSURE) S.D.=  9.24116696175821E+00
(PID.TID 0000.0001)      cg2d_init_res =   3.90616402544864E-01
(PID.TID 0000.0001)      cg2d_iters(min,last) =      -1     136
(PID.TID 0000.0001)      cg2d_last_res =   7.98969459180141E-14
(PID.TID 0000.0001) // =======================================================
(PID.TID 0000.0001) // Begin MONITOR dynamic field statistics
(PID.TID 0000.0001) // =======================================================
(PID.TID 0000.0001) %MON time_tsnumber                =                    44
(PID.TID 0000.0001) %MON time_secondsf                =   3.8016000000000E+06
(PID.TID 0000.0001) %MON dynstat_eta_max              =   1.3022410424799E+00
(PID.TID 0000.0001) %MON dynstat_eta_min              =  -2.4331588789785E+00
(PID.TID 0000.0001) %MON dynstat_eta_mean             =  -3.3152483971578E-03
(PID.TID 0000.0001) %MON dynstat_eta_sd               =   8.6551358459150E-01
(PID.TID 0000.0001) %MON dynstat_eta_del2             =   2.3845321978640E-03
(PID.TID 0000.0001) %MON dynstat_uvel_max             =   1.6411832583506E-01
(PID.TID 0000.0001) %MON dynstat_uvel_min             =  -1.7334863823021E-01
(PID.TID 0000.0001) %MON dynstat_uvel_mean            =  -2.5266454736882E-04
(PID.TID 0000.0001) %MON dynstat_uvel_sd              =   2.2711288996236E-02
(PID.TID 0000.0001) %MON dynstat_uvel_del2            =   1.2447008148824E-04
(PID.TID 0000.0001) %MON dynstat_vvel_max             =   1.6024559606257E-01
(PID.TID 0000.0001) %MON dynstat_vvel_min             =  -1.2458234890297E-01
(PID.TID 0000.0001) %MON dynstat_vvel_mean            =  -1.6562659789384E-05
(PID.TID 0000.0001) %MON dynstat_vvel_sd              =   1.2564319621494E-02
(PID.TID 0000.0001) %MON dynstat_vvel_del2            =   1.0168373169680E-04
(PID.TID 0000.0001) %MON dynstat_wvel_max             =   1.3846882804528E-04
(PID.TID 0000.0001) %MON dynstat_wvel_min             =  -1.8242242638185E-04
(PID.TID 0000.0001) %MON dynstat_wvel_mean            =   6.5278482525798E-23
(PID.TID 0000.0001) %MON dynstat_wvel_sd              =   2.0429840251444E-05
(PID.TID 0000.0001) %MON dynstat_wvel_del2            =   2.0004027661335E-07
(PID.TID 0000.0001) %MON dynstat_theta_max            =   3.0322636195807E+01
(PID.TID 0000.0001) %MON dynstat_theta_min            =  -1.9962892715364E+00
(PID.TID 0000.0001) %MON dynstat_theta_mean           =   3.6519025212716E+00
(PID.TID 0000.0001) %MON dynstat_theta_sd             =   4.4197529776016E+00
(PID.TID 0000.0001) %MON dynstat_theta_del2           =   4.7768339842062E-03
(PID.TID 0000.0001) %MON dynstat_salt_max             =   3.7489681001727E+01
(PID.TID 0000.0001) %MON dynstat_salt_min             =   2.9853412336049E+01
(PID.TID 0000.0001) %MON dynstat_salt_mean            =   3.4748037802397E+01
(PID.TID 0000.0001) %MON dynstat_salt_sd              =   2.9643468718647E-01
(PID.TID 0000.0001) %MON dynstat_salt_del2            =   9.8798708967734E-04
(PID.TID 0000.0001) %MON dynstat_sst_max              =   3.0322636195807E+01
(PID.TID 0000.0001) %MON dynstat_sst_min              =  -1.9962892715364E+00
(PID.TID 0000.0001) %MON dynstat_sst_mean             =   1.8903527854484E+01
(PID.TID 0000.0001) %MON dynstat_sst_sd               =   9.0116026360918E+00
(PID.TID 0000.0001) %MON dynstat_sst_del2             =   2.7304895802378E-02
(PID.TID 0000.0001) %MON dynstat_sss_max              =   3.7459686219355E+01
(PID.TID 0000.0001) %MON dynstat_sss_min              =   2.9853412336049E+01
(PID.TID 0000.0001) %MON dynstat_sss_mean             =   3.4874721858579E+01
(PID.TID 0000.0001) %MON dynstat_sss_sd               =   9.7726931048358E-01
(PID.TID 0000.0001) %MON dynstat_sss_del2             =   7.8937374105473E-03
(PID.TID 0000.0001) %MON forcing_qnet_max             =   3.6116065877279E+02
(PID.TID 0000.0001) %MON forcing_qnet_min             =  -1.7331300760905E+02
(PID.TID 0000.0001) %MON forcing_qnet_mean            =  -1.4135069313750E+01
(PID.TID 0000.0001) %MON forcing_qnet_sd              =   8.1439639696185E+01
(PID.TID 0000.0001) %MON forcing_qnet_del2            =   9.5075858077314E-01
(PID.TID 0000.0001) %MON forcing_qsw_max              =   0.0000000000000E+00
(PID.TID 0000.0001) %MON forcing_qsw_min              =   0.0000000000000E+00
(PID.TID 0000.0001) %MON forcing_qsw_mean             =   0.0000000000000E+00
(PID.TID 0000.0001) %MON forcing_qsw_sd               =   0.0000000000000E+00
(PID.TID 0000.0001) %MON forcing_qsw_del2             =   0.0000000000000E+00
(PID.TID 0000.0001) %MON forcing_empmr_max            =   7.3379726472922E-05
(PID.TID 0000.0001) %MON forcing_empmr_min            =  -7.8385995531486E-05
(PID.TID 0000.0001) %MON forcing_empmr_mean           =   9.4204418538947E-07
(PID.TID 0000.0001) %MON forcing_empmr_sd             =   2.7984746342061E-05
(PID.TID 0000.0001) %MON forcing_empmr_del2           =   3.5513748337795E-07
(PID.TID 0000.0001) %MON forcing_fu_max               =   3.0186120867729E-01
(PID.TID 0000.0001) %MON forcing_fu_min               =  -2.1399418314298E-01
(PID.TID 0000.0001) %MON forcing_fu_mean              =   1.7522141185698E-02
(PID.TID 0000.0001) %MON forcing_fu_sd                =   9.2407469002415E-02
(PID.TID 0000.0001) %MON forcing_fu_del2              =   7.2980579013269E-04
(PID.TID 0000.0001) %MON forcing_fv_max               =   1.9736103514830E-01
(PID.TID 0000.0001) %MON forcing_fv_min               =  -1.9333545764287E-01
(PID.TID 0000.0001) %MON forcing_fv_mean              =  -7.0862031275300E-03
(PID.TID 0000.0001) %MON forcing_fv_sd                =   4.4825947766004E-02
(PID.TID 0000.0001) %MON forcing_fv_del2              =   5.2614803750806E-04
(PID.TID 0000.0001) %MON trAdv_CFL_u_max              =   4.7854485762798E-02
(PID.TID 0000.0001) %MON trAdv_CFL_v_max              =   3.5535463659291E-02
(PID.TID 0000.0001) %MON trAdv_CFL_w_max              =   6.3270582036497E-02
(PID.TID 0000.0001) %MON advcfl_uvel_max              =   4.6274336963665E-02
(PID.TID 0000.0001) %MON advcfl_vvel_max              =   3.1133149284580E-02
(PID.TID 0000.0001) %MON advcfl_wvel_max              =   5.8723616604305E-02
(PID.TID 0000.0001) %MON advcfl_W_hf_max              =   6.9209976712217E-02
(PID.TID 0000.0001) %MON pe_b_mean                    =   9.5859541940945E-04
(PID.TID 0000.0001) %MON ke_max                       =   1.7333982653410E-02
(PID.TID 0000.0001) %MON ke_mean                      =   3.0523730405844E-04
(PID.TID 0000.0001) %MON ke_vol                       =   1.3226782436723E+18
(PID.TID 0000.0001) %MON vort_r_min                   =  -5.1412305328390E-07
(PID.TID 0000.0001) %MON vort_r_max                   =   6.4254770791201E-07
(PID.TID 0000.0001) %MON vort_a_mean                  =  -2.5274805969530E-05
(PID.TID 0000.0001) %MON vort_a_sd                    =   7.3604267881479E-05
(PID.TID 0000.0001) %MON vort_p_mean                  =  -3.1845654000325E-05
(PID.TID 0000.0001) %MON vort_p_sd                    =   1.3162335672114E-04
(PID.TID 0000.0001) %MON surfExpan_theta_mean         =   2.2719378062549E-07
(PID.TID 0000.0001) %MON surfExpan_salt_mean          =   1.1199420779615E-07
(PID.TID 0000.0001) // =======================================================
(PID.TID 0000.0001) // End MONITOR dynamic field statistics
(PID.TID 0000.0001) // =======================================================
 EXTERNAL_FIELDS_LOAD,        44 : iP,iLd,i0,i1=    1    2    1    2 ; Wght=  0.0333333333  0.9666666667
 EXTERNAL_FIELDS_LOAD: (fu0,1),fu,fv= -3.5633E-02 -1.4435E-02 -1.5141E-02 -1.8956E-02
 EXTERNAL_FIELDS_LOAD: SST,SSS,Q,E-P= -4.8218E-01  3.4431E+01  2.4132E+02  8.4859E-06
DEBUG_STATS_RL:          Uvel (THERMODYNAMICS)  min= -1.73348638230214E-01
DEBUG_STATS_RL:          Uvel (THERMODYNAMICS)  max=  1.64118325835064E-01
DEBUG_STATS_RL:          Uvel (THERMODYNAMICS) mean=  1.54783206850001E-03
DEBUG_STATS_RL:          Uvel (THERMODYNAMICS) S.D.=  2.95344417031117E-02
DEBUG_STATS_RL:          Vvel (THERMODYNAMICS)  min= -1.24582348902975E-01
DEBUG_STATS_RL:          Vvel (THERMODYNAMICS)  max=  1.60245596062568E-01
DEBUG_STATS_RL:          Vvel (THERMODYNAMICS) mean=  9.83076286576682E-04
DEBUG_STATS_RL:          Vvel (THERMODYNAMICS) S.D.=  1.76795247962379E-02
DEBUG_STATS_RL:          Wvel (THERMODYNAMICS)  min= -1.82422426381845E-04
DEBUG_STATS_RL:          Wvel (THERMODYNAMICS)  max=  1.38468828045275E-04
DEBUG_STATS_RL:          Wvel (THERMODYNAMICS) mean= -1.63202597035213E-07
DEBUG_STATS_RL:          Wvel (THERMODYNAMICS) S.D.=  1.77015413105821E-05
DEBUG_STATS_RL:         Theta (THERMODYNAMICS)  min= -1.99486490147035E+00
DEBUG_STATS_RL:         Theta (THERMODYNAMICS)  max=  3.03436436963164E+01
DEBUG_STATS_RL:         Theta (THERMODYNAMICS) mean=  3.24575842093829E+00
DEBUG_STATS_RL:         Theta (THERMODYNAMICS) S.D.=  5.86686841670447E+00
DEBUG_STATS_RL:          Salt (THERMODYNAMICS)  min=  3.00000000000000E-02
DEBUG_STATS_RL:          Salt (THERMODYNAMICS)  max=  3.74901571459438E+01
DEBUG_STATS_RL:          Salt (THERMODYNAMICS) mean=  1.88749256247229E+01
DEBUG_STATS_RL:          Salt (THERMODYNAMICS) S.D.=  1.73004430730390E+01
DEBUG_STATS_RL:         GtNm1 (THERMODYNAMICS)  min= -4.18430926444361E-06
DEBUG_STATS_RL:         GtNm1 (THERMODYNAMICS)  max=  3.19605748933735E-06
DEBUG_STATS_RL:         GtNm1 (THERMODYNAMICS) mean=  1.00594371720704E-08
DEBUG_STATS_RL:         GtNm1 (THERMODYNAMICS) S.D.=  2.15933960180007E-07
DEBUG_STATS_RL:         GsNm1 (THERMODYNAMICS)  min= -4.38135394046194E-07
DEBUG_STATS_RL:         GsNm1 (THERMODYNAMICS)  max=  3.50306046976977E-07
DEBUG_STATS_RL:         GsNm1 (THERMODYNAMICS) mean=  1.91473921182192E-10
DEBUG_STATS_RL:         GsNm1 (THERMODYNAMICS) S.D.=  2.01227023871141E-08
DEBUG_STATS_RL:                EtaN (DYNAMICS)  min= -2.43315887897847E+00
DEBUG_STATS_RL:                EtaN (DYNAMICS)  max=  1.30224104247993E+00
DEBUG_STATS_RL:                EtaN (DYNAMICS) mean= -1.99819838717950E-01
DEBUG_STATS_RL:                EtaN (DYNAMICS) S.D.=  9.42014980811240E-01
DEBUG_STATS_RL:                Uvel (DYNAMICS)  min= -1.73348638230214E-01
DEBUG_STATS_RL:                Uvel (DYNAMICS)  max=  1.64118325835064E-01
DEBUG_STATS_RL:                Uvel (DYNAMICS) mean=  1.54783206850001E-03
DEBUG_STATS_RL:                Uvel (DYNAMICS) S.D.=  2.95344417031117E-02
DEBUG_STATS_RL:                Vvel (DYNAMICS)  min= -1.24582348902975E-01
DEBUG_STATS_RL:                Vvel (DYNAMICS)  max=  1.60245596062568E-01
DEBUG_STATS_RL:                Vvel (DYNAMICS) mean=  9.83076286576682E-04
DEBUG_STATS_RL:                Vvel (DYNAMICS) S.D.=  1.76795247962379E-02
DEBUG_STATS_RL:                Wvel (DYNAMICS)  min= -1.82422426381845E-04
DEBUG_STATS_RL:                Wvel (DYNAMICS)  max=  1.38468828045275E-04
DEBUG_STATS_RL:                Wvel (DYNAMICS) mean= -1.63202597035213E-07
DEBUG_STATS_RL:                Wvel (DYNAMICS) S.D.=  1.77015413105821E-05
DEBUG_STATS_RL:               Theta (DYNAMICS)  min= -1.99486490147035E+00
DEBUG_STATS_RL:               Theta (DYNAMICS)  max=  3.03436436963164E+01
DEBUG_STATS_RL:               Theta (DYNAMICS) mean=  3.24575842093829E+00
DEBUG_STATS_RL:               Theta (DYNAMICS) S.D.=  5.86686841670447E+00
DEBUG_STATS_RL:                Salt (DYNAMICS)  min=  3.00000000000000E-02
DEBUG_STATS_RL:                Salt (DYNAMICS)  max=  3.74901571459438E+01
DEBUG_STATS_RL:                Salt (DYNAMICS) mean=  1.88749256247229E+01
DEBUG_STATS_RL:                Salt (DYNAMICS) S.D.=  1.73004430730390E+01
DEBUG_STATS_RL:                  Gu (DYNAMICS)  min= -1.72528541035422E-01
DEBUG_STATS_RL:                  Gu (DYNAMICS)  max=  1.74123840493200E-01
DEBUG_STATS_RL:                  Gu (DYNAMICS) mean=  1.21392837548199E-03
DEBUG_STATS_RL:                  Gu (DYNAMICS) S.D.=  2.96408620924841E-02
DEBUG_STATS_RL:                  Gv (DYNAMICS)  min= -1.23534300923089E-01
DEBUG_STATS_RL:                  Gv (DYNAMICS)  max=  1.52152818048106E-01
DEBUG_STATS_RL:                  Gv (DYNAMICS) mean=  3.07818948130010E-03
DEBUG_STATS_RL:                  Gv (DYNAMICS) S.D.=  1.81787271294821E-02
DEBUG_STATS_RL:               GuNm1 (DYNAMICS)  min= -9.80391200062185E-06
DEBUG_STATS_RL:               GuNm1 (DYNAMICS)  max=  8.67342955106916E-06
DEBUG_STATS_RL:               GuNm1 (DYNAMICS) mean= -7.57664094270341E-09
DEBUG_STATS_RL:               GuNm1 (DYNAMICS) S.D.=  1.18806471846273E-06
DEBUG_STATS_RL:               GvNm1 (DYNAMICS)  min= -9.91899660816199E-06
DEBUG_STATS_RL:               GvNm1 (DYNAMICS)  max=  1.63927547528139E-05
DEBUG_STATS_RL:               GvNm1 (DYNAMICS) mean=  7.40912863394039E-07
DEBUG_STATS_RL:               GvNm1 (DYNAMICS) S.D.=  2.60282942961623E-06
DEBUG_STATS_RL:               GtNm1 (DYNAMICS)  min= -4.18430926444361E-06
DEBUG_STATS_RL:               GtNm1 (DYNAMICS)  max=  3.19605748933735E-06
DEBUG_STATS_RL:               GtNm1 (DYNAMICS) mean=  1.00594371720704E-08
DEBUG_STATS_RL:               GtNm1 (DYNAMICS) S.D.=  2.15933960180007E-07
DEBUG_STATS_RL:               GsNm1 (DYNAMICS)  min= -4.38135394046194E-07
DEBUG_STATS_RL:               GsNm1 (DYNAMICS)  max=  3.50306046976977E-07
DEBUG_STATS_RL:               GsNm1 (DYNAMICS) mean=  1.91473921182192E-10
DEBUG_STATS_RL:               GsNm1 (DYNAMICS) S.D.=  2.01227023871141E-08
DEBUG_STATS_RL:    cg2d_b (SOLVE_FOR_PRESSURE)  min= -3.02506290484311E+04
DEBUG_STATS_RL:    cg2d_b (SOLVE_FOR_PRESSURE)  max=  1.67084775459573E+04
DEBUG_STATS_RL:    cg2d_b (SOLVE_FOR_PRESSURE) mean=  3.25284994042163E+00
DEBUG_STATS_RL:    cg2d_b (SOLVE_FOR_PRESSURE) S.D.=  3.89833869312392E+03
 cg2d: Sum(rhs),rhsMax =   2.48931934606045E-01  1.98694230971297E+00
(PID.TID 0000.0001)  cg2d: iter=     1 ; resid.=  2.40877016102725E-01
(PID.TID 0000.0001)  cg2d: iter=     2 ; resid.=  1.97630185776975E-01
(PID.TID 0000.0001)  cg2d: iter=     3 ; resid.=  1.81473142243299E-01
(PID.TID 0000.0001)  cg2d: iter=     4 ; resid.=  1.44872354846528E-01
(PID.TID 0000.0001)  cg2d: iter=     5 ; resid.=  1.12636727524372E-01
(PID.TID 0000.0001)  cg2d: iter=     6 ; resid.=  9.39348131004810E-02
(PID.TID 0000.0001)  cg2d: iter=     7 ; resid.=  7.70378138279888E-02
(PID.TID 0000.0001)  cg2d: iter=     8 ; resid.=  6.61007696859757E-02
(PID.TID 0000.0001)  cg2d: iter=     9 ; resid.=  5.47354905328952E-02
(PID.TID 0000.0001)  cg2d: iter=    10 ; resid.=  4.57133135803408E-02
(PID.TID 0000.0001)  cg2d: iter=    11 ; resid.=  4.05883652246466E-02
(PID.TID 0000.0001)  cg2d: iter=    12 ; resid.=  3.65254736167373E-02
(PID.TID 0000.0001)  cg2d: iter=    13 ; resid.=  2.76737282741164E-02
(PID.TID 0000.0001)  cg2d: iter=    14 ; resid.=  2.14578171482665E-02
(PID.TID 0000.0001)  cg2d: iter=    15 ; resid.=  1.75146772315043E-02
(PID.TID 0000.0001)  cg2d: iter=    16 ; resid.=  1.51904986350239E-02
(PID.TID 0000.0001)  cg2d: iter=    17 ; resid.=  1.27129033346182E-02
(PID.TID 0000.0001)  cg2d: iter=    18 ; resid.=  9.99007032265681E-03
(PID.TID 0000.0001)  cg2d: iter=    19 ; resid.=  8.27840138252448E-03
(PID.TID 0000.0001)  cg2d: iter=    20 ; resid.=  7.07224455122335E-03
(PID.TID 0000.0001)  cg2d: iter=    21 ; resid.=  6.07954319326211E-03
(PID.TID 0000.0001)  cg2d: iter=    22 ; resid.=  5.21407025032768E-03
(PID.TID 0000.0001)  cg2d: iter=    23 ; resid.=  4.21661999140228E-03
(PID.TID 0000.0001)  cg2d: iter=    24 ; resid.=  3.46717198812432E-03
(PID.TID 0000.0001)  cg2d: iter=    25 ; resid.=  2.75412825172040E-03
(PID.TID 0000.0001)  cg2d: iter=    26 ; resid.=  2.26683696957239E-03
(PID.TID 0000.0001)  cg2d: iter=    27 ; resid.=  1.99152385035925E-03
(PID.TID 0000.0001)  cg2d: iter=    28 ; resid.=  1.74244914154255E-03
(PID.TID 0000.0001)  cg2d: iter=    29 ; resid.=  1.46125053811171E-03
(PID.TID 0000.0001)  cg2d: iter=    30 ; resid.=  1.26885421881416E-03
(PID.TID 0000.0001)  cg2d: iter=    31 ; resid.=  1.02903459203788E-03
(PID.TID 0000.0001)  cg2d: iter=    32 ; resid.=  7.78817847426391E-04
(PID.TID 0000.0001)  cg2d: iter=    33 ; resid.=  6.43690015702348E-04
(PID.TID 0000.0001)  cg2d: iter=    34 ; resid.=  5.53438307989668E-04
(PID.TID 0000.0001)  cg2d: iter=    35 ; resid.=  4.32105217665371E-04
(PID.TID 0000.0001)  cg2d: iter=    36 ; resid.=  3.44582522599657E-04
(PID.TID 0000.0001)  cg2d: iter=    37 ; resid.=  2.63942861370383E-04
(PID.TID 0000.0001)  cg2d: iter=    38 ; resid.=  2.04408099049722E-04
(PID.TID 0000.0001)  cg2d: iter=    39 ; resid.=  1.58532835738381E-04
(PID.TID 0000.0001)  cg2d: iter=    40 ; resid.=  1.29217242333364E-04
(PID.TID 0000.0001)  cg2d: iter=    41 ; resid.=  1.07265206247188E-04
(PID.TID 0000.0001)  cg2d: iter=    42 ; resid.=  9.37056531724911E-05
(PID.TID 0000.0001)  cg2d: iter=    43 ; resid.=  8.56935705402669E-05
(PID.TID 0000.0001)  cg2d: iter=    44 ; resid.=  7.02232892961764E-05
(PID.TID 0000.0001)  cg2d: iter=    45 ; resid.=  5.64098208678376E-05
(PID.TID 0000.0001)  cg2d: iter=    46 ; resid.=  4.33934113875977E-05
(PID.TID 0000.0001)  cg2d: iter=    47 ; resid.=  3.83249246256697E-05
(PID.TID 0000.0001)  cg2d: iter=    48 ; resid.=  3.08288188643446E-05
(PID.TID 0000.0001)  cg2d: iter=    49 ; resid.=  2.43632488682450E-05
(PID.TID 0000.0001)  cg2d: iter=    50 ; resid.=  1.79231309884413E-05
(PID.TID 0000.0001)  cg2d: iter=    51 ; resid.=  1.34891119797882E-05
(PID.TID 0000.0001)  cg2d: iter=    52 ; resid.=  1.02844529489843E-05
(PID.TID 0000.0001)  cg2d: iter=    53 ; resid.=  8.00394322258288E-06
(PID.TID 0000.0001)  cg2d: iter=    54 ; resid.=  6.37289077618849E-06
(PID.TID 0000.0001)  cg2d: iter=    55 ; resid.=  5.43433559779052E-06
(PID.TID 0000.0001)  cg2d: iter=    56 ; resid.=  4.68553464715607E-06
(PID.TID 0000.0001)  cg2d: iter=    57 ; resid.=  4.22421076435720E-06
(PID.TID 0000.0001)  cg2d: iter=    58 ; resid.=  3.99296565790081E-06
(PID.TID 0000.0001)  cg2d: iter=    59 ; resid.=  3.43898082233716E-06
(PID.TID 0000.0001)  cg2d: iter=    60 ; resid.=  2.98131421102962E-06
(PID.TID 0000.0001)  cg2d: iter=    61 ; resid.=  2.51375059353311E-06
(PID.TID 0000.0001)  cg2d: iter=    62 ; resid.=  2.22370131751687E-06
(PID.TID 0000.0001)  cg2d: iter=    63 ; resid.=  1.83136939501851E-06
(PID.TID 0000.0001)  cg2d: iter=    64 ; resid.=  1.49114756034793E-06
(PID.TID 0000.0001)  cg2d: iter=    65 ; resid.=  1.19828828554586E-06
(PID.TID 0000.0001)  cg2d: iter=    66 ; resid.=  9.52135122670454E-07
(PID.TID 0000.0001)  cg2d: iter=    67 ; resid.=  8.21821863283299E-07
(PID.TID 0000.0001)  cg2d: iter=    68 ; resid.=  7.01792757797640E-07
(PID.TID 0000.0001)  cg2d: iter=    69 ; resid.=  5.37878740114689E-07
(PID.TID 0000.0001)  cg2d: iter=    70 ; resid.=  4.33676178057742E-07
(PID.TID 0000.0001)  cg2d: iter=    71 ; resid.=  3.67398636306454E-07
(PID.TID 0000.0001)  cg2d: iter=    72 ; resid.=  3.00787852772491E-07
(PID.TID 0000.0001)  cg2d: iter=    73 ; resid.=  2.53142963259734E-07
(PID.TID 0000.0001)  cg2d: iter=    74 ; resid.=  2.21082283886485E-07
(PID.TID 0000.0001)  cg2d: iter=    75 ; resid.=  1.76728703231970E-07
(PID.TID 0000.0001)  cg2d: iter=    76 ; resid.=  1.46308643963240E-07
(PID.TID 0000.0001)  cg2d: iter=    77 ; resid.=  1.24546837298194E-07
(PID.TID 0000.0001)  cg2d: iter=    78 ; resid.=  1.11587110915025E-07
(PID.TID 0000.0001)  cg2d: iter=    79 ; resid.=  1.05675468289732E-07
(PID.TID 0000.0001)  cg2d: iter=    80 ; resid.=  9.23366050417079E-08
(PID.TID 0000.0001)  cg2d: iter=    81 ; resid.=  8.35152451569434E-08
(PID.TID 0000.0001)  cg2d: iter=    82 ; resid.=  6.74149652773656E-08
(PID.TID 0000.0001)  cg2d: iter=    83 ; resid.=  5.25516055628349E-08
(PID.TID 0000.0001)  cg2d: iter=    84 ; resid.=  4.10208218798354E-08
(PID.TID 0000.0001)  cg2d: iter=    85 ; resid.=  3.00713882034111E-08
(PID.TID 0000.0001)  cg2d: iter=    86 ; resid.=  2.20165427868564E-08
(PID.TID 0000.0001)  cg2d: iter=    87 ; resid.=  1.46247061984249E-08
(PID.TID 0000.0001)  cg2d: iter=    88 ; resid.=  1.19094054062314E-08
(PID.TID 0000.0001)  cg2d: iter=    89 ; resid.=  1.08108285443588E-08
(PID.TID 0000.0001)  cg2d: iter=    90 ; resid.=  8.68341090198828E-09
(PID.TID 0000.0001)  cg2d: iter=    91 ; resid.=  6.97323721788246E-09
(PID.TID 0000.0001)  cg2d: iter=    92 ; resid.=  5.51664585850497E-09
(PID.TID 0000.0001)  cg2d: iter=    93 ; resid.=  4.23764635426811E-09
(PID.TID 0000.0001)  cg2d: iter=    94 ; resid.=  3.32302742220423E-09
(PID.TID 0000.0001)  cg2d: iter=    95 ; resid.=  2.99045337547777E-09
(PID.TID 0000.0001)  cg2d: iter=    96 ; resid.=  2.25045593572879E-09
(PID.TID 0000.0001)  cg2d: iter=    97 ; resid.=  1.69877100555683E-09
(PID.TID 0000.0001)  cg2d: iter=    98 ; resid.=  1.33535791761157E-09
(PID.TID 0000.0001)  cg2d: iter=    99 ; resid.=  1.17436939892669E-09
(PID.TID 0000.0001)  cg2d: iter=   100 ; resid.=  1.07525891757398E-09
(PID.TID 0000.0001)  cg2d: iter=   101 ; resid.=  8.39613320875488E-10
(PID.TID 0000.0001)  cg2d: iter=   102 ; resid.=  6.27687295880788E-10
(PID.TID 0000.0001)  cg2d: iter=   103 ; resid.=  4.70031889525174E-10
(PID.TID 0000.0001)  cg2d: iter=   104 ; resid.=  3.86424784042311E-10
(PID.TID 0000.0001)  cg2d: iter=   105 ; resid.=  3.15846128360458E-10
(PID.TID 0000.0001)  cg2d: iter=   106 ; resid.=  2.78324810138599E-10
(PID.TID 0000.0001)  cg2d: iter=   107 ; resid.=  2.29864769564834E-10
(PID.TID 0000.0001)  cg2d: iter=   108 ; resid.=  1.94969190523724E-10
(PID.TID 0000.0001)  cg2d: iter=   109 ; resid.=  1.59646700007364E-10
(PID.TID 0000.0001)  cg2d: iter=   110 ; resid.=  1.17845399161869E-10
(PID.TID 0000.0001)  cg2d: iter=   111 ; resid.=  9.44214504364656E-11
(PID.TID 0000.0001)  cg2d: iter=   112 ; resid.=  6.97595303468567E-11
(PID.TID 0000.0001)  cg2d: iter=   113 ; resid.=  5.11386074922089E-11
(PID.TID 0000.0001)  cg2d: iter=   114 ; resid.=  3.96068568418566E-11
(PID.TID 0000.0001)  cg2d: iter=   115 ; resid.=  2.61544062043190E-11
(PID.TID 0000.0001)  cg2d: iter=   116 ; resid.=  1.78286601498313E-11
(PID.TID 0000.0001)  cg2d: iter=   117 ; resid.=  1.36364031159254E-11
(PID.TID 0000.0001)  cg2d: iter=   118 ; resid.=  9.13399682683631E-12
(PID.TID 0000.0001)  cg2d: iter=   119 ; resid.=  7.36406086370990E-12
(PID.TID 0000.0001)  cg2d: iter=   120 ; resid.=  5.27418006914722E-12
(PID.TID 0000.0001)  cg2d: iter=   121 ; resid.=  3.73741511959809E-12
(PID.TID 0000.0001)  cg2d: iter=   122 ; resid.=  3.01172279230697E-12
(PID.TID 0000.0001)  cg2d: iter=   123 ; resid.=  2.57547559003595E-12
(PID.TID 0000.0001)  cg2d: iter=   124 ; resid.=  2.10919440727131E-12
(PID.TID 0000.0001)  cg2d: iter=   125 ; resid.=  1.73562665715611E-12
(PID.TID 0000.0001)  cg2d: iter=   126 ; resid.=  1.37856817608682E-12
(PID.TID 0000.0001)  cg2d: iter=   127 ; resid.=  9.34409767441730E-13
(PID.TID 0000.0001)  cg2d: iter=   128 ; resid.=  6.38249052224032E-13
(PID.TID 0000.0001)  cg2d: iter=   129 ; resid.=  4.79107580452698E-13
(PID.TID 0000.0001)  cg2d: iter=   130 ; resid.=  3.55772461966321E-13
(PID.TID 0000.0001)  cg2d: iter=   131 ; resid.=  2.54778814410559E-13
(PID.TID 0000.0001)  cg2d: iter=   132 ; resid.=  1.79514451520340E-13
(PID.TID 0000.0001)  cg2d: iter=   133 ; resid.=  1.31200229426968E-13
(PID.TID 0000.0001)  cg2d: iter=   134 ; resid.=  9.91676831920208E-14
DEBUG_STATS_RL:    cg2d_x (SOLVE_FOR_PRESSURE)  min= -2.35282854769800E+01
DEBUG_STATS_RL:    cg2d_x (SOLVE_FOR_PRESSURE)  max=  1.27607732907877E+01
DEBUG_STATS_RL:    cg2d_x (SOLVE_FOR_PRESSURE) mean= -1.96625290594731E+00
DEBUG_STATS_RL:    cg2d_x (SOLVE_FOR_PRESSURE) S.D.=  9.09974463512959E+00
(PID.TID 0000.0001)      cg2d_init_res =   3.86324766174047E-01
(PID.TID 0000.0001)      cg2d_iters(min,last) =      -1     134
(PID.TID 0000.0001)      cg2d_last_res =   9.91676831920208E-14
(PID.TID 0000.0001) // =======================================================
(PID.TID 0000.0001) // Begin MONITOR dynamic field statistics
(PID.TID 0000.0001) // =======================================================
(PID.TID 0000.0001) %MON time_tsnumber                =                    45
(PID.TID 0000.0001) %MON time_secondsf                =   3.8880000000000E+06
(PID.TID 0000.0001) %MON dynstat_eta_max              =   1.3007923843821E+00
(PID.TID 0000.0001) %MON dynstat_eta_min              =  -2.3983981118227E+00
(PID.TID 0000.0001) %MON dynstat_eta_mean             =  -3.3939455727528E-03
(PID.TID 0000.0001) %MON dynstat_eta_sd               =   8.4825382972164E-01
(PID.TID 0000.0001) %MON dynstat_eta_del2             =   2.3933206026602E-03
(PID.TID 0000.0001) %MON dynstat_uvel_max             =   1.7165687425861E-01
(PID.TID 0000.0001) %MON dynstat_uvel_min             =  -1.7259072989208E-01
(PID.TID 0000.0001) %MON dynstat_uvel_mean            =  -5.1317374050456E-04
(PID.TID 0000.0001) %MON dynstat_uvel_sd              =   2.2545610191121E-02
(PID.TID 0000.0001) %MON dynstat_uvel_del2            =   1.2563089077105E-04
(PID.TID 0000.0001) %MON dynstat_vvel_max             =   1.6028631880950E-01
(PID.TID 0000.0001) %MON dynstat_vvel_min             =  -1.2501426425095E-01
(PID.TID 0000.0001) %MON dynstat_vvel_mean            =   2.3796874998333E-06
(PID.TID 0000.0001) %MON dynstat_vvel_sd              =   1.2489739540179E-02
(PID.TID 0000.0001) %MON dynstat_vvel_del2            =   1.0130180132907E-04
(PID.TID 0000.0001) %MON dynstat_wvel_max             =   1.4694411223651E-04
(PID.TID 0000.0001) %MON dynstat_wvel_min             =  -1.7698762054562E-04
(PID.TID 0000.0001) %MON dynstat_wvel_mean            =   2.4083769027438E-23
(PID.TID 0000.0001) %MON dynstat_wvel_sd              =   2.0340931113077E-05
(PID.TID 0000.0001) %MON dynstat_wvel_del2            =   1.9877255185224E-07
(PID.TID 0000.0001) %MON dynstat_theta_max            =   3.0343643696316E+01
(PID.TID 0000.0001) %MON dynstat_theta_min            =  -1.9948649014704E+00
(PID.TID 0000.0001) %MON dynstat_theta_mean           =   3.6519784470880E+00
(PID.TID 0000.0001) %MON dynstat_theta_sd             =   4.4200009982250E+00
(PID.TID 0000.0001) %MON dynstat_theta_del2           =   4.7791674001745E-03
(PID.TID 0000.0001) %MON dynstat_salt_max             =   3.7490157145944E+01
(PID.TID 0000.0001) %MON dynstat_salt_min             =   2.9856041374837E+01
(PID.TID 0000.0001) %MON dynstat_salt_mean            =   3.4748035321083E+01
(PID.TID 0000.0001) %MON dynstat_salt_sd              =   2.9643589144622E-01
(PID.TID 0000.0001) %MON dynstat_salt_del2            =   9.8790361834734E-04
(PID.TID 0000.0001) %MON dynstat_sst_max              =   3.0343643696316E+01
(PID.TID 0000.0001) %MON dynstat_sst_min              =  -1.9948649014704E+00
(PID.TID 0000.0001) %MON dynstat_sst_mean             =   1.8913278884617E+01
(PID.TID 0000.0001) %MON dynstat_sst_sd               =   9.0123958756991E+00
(PID.TID 0000.0001) %MON dynstat_sst_del2             =   2.7343220524728E-02
(PID.TID 0000.0001) %MON dynstat_sss_max              =   3.7459522811483E+01
(PID.TID 0000.0001) %MON dynstat_sss_min              =   2.9856041374837E+01
(PID.TID 0000.0001) %MON dynstat_sss_mean             =   3.4874693686423E+01
(PID.TID 0000.0001) %MON dynstat_sss_sd               =   9.7738321504682E-01
(PID.TID 0000.0001) %MON dynstat_sss_del2             =   7.8950746483362E-03
(PID.TID 0000.0001) %MON forcing_qnet_max             =   3.5980644938151E+02
(PID.TID 0000.0001) %MON forcing_qnet_min             =  -1.7307348836263E+02
(PID.TID 0000.0001) %MON forcing_qnet_mean            =  -1.4050160146347E+01
(PID.TID 0000.0001) %MON forcing_qnet_sd              =   8.0515925311569E+01
(PID.TID 0000.0001) %MON forcing_qnet_del2            =   9.4993377104494E-01
(PID.TID 0000.0001) %MON forcing_qsw_max              =   0.0000000000000E+00
(PID.TID 0000.0001) %MON forcing_qsw_min              =   0.0000000000000E+00
(PID.TID 0000.0001) %MON forcing_qsw_mean             =   0.0000000000000E+00
(PID.TID 0000.0001) %MON forcing_qsw_sd               =   0.0000000000000E+00
(PID.TID 0000.0001) %MON forcing_qsw_del2             =   0.0000000000000E+00
(PID.TID 0000.0001) %MON forcing_empmr_max            =   7.3065636740921E-05
(PID.TID 0000.0001) %MON forcing_empmr_min            =  -7.8465639793042E-05
(PID.TID 0000.0001) %MON forcing_empmr_mean           =   9.4272658264943E-07
(PID.TID 0000.0001) %MON forcing_empmr_sd             =   2.7982248259518E-05
(PID.TID 0000.0001) %MON forcing_empmr_del2           =   3.5557407608614E-07
(PID.TID 0000.0001) %MON forcing_fu_max               =   3.0324836671352E-01
(PID.TID 0000.0001) %MON forcing_fu_min               =  -2.1682592133681E-01
(PID.TID 0000.0001) %MON forcing_fu_mean              =   1.7576441401167E-02
(PID.TID 0000.0001) %MON forcing_fu_sd                =   9.2702887616547E-02
(PID.TID 0000.0001) %MON forcing_fu_del2              =   7.3829863471251E-04
(PID.TID 0000.0001) %MON forcing_fv_max               =   1.9947300006946E-01
(PID.TID 0000.0001) %MON forcing_fv_min               =  -1.9650735656420E-01
(PID.TID 0000.0001) %MON forcing_fv_mean              =  -7.1514640342452E-03
(PID.TID 0000.0001) %MON forcing_fv_sd                =   4.4931010890769E-02
(PID.TID 0000.0001) %MON forcing_fv_del2              =   5.3367284187280E-04
(PID.TID 0000.0001) %MON trAdv_CFL_u_max              =   4.6283735612462E-02
(PID.TID 0000.0001) %MON trAdv_CFL_v_max              =   3.2563038739254E-02
(PID.TID 0000.0001) %MON trAdv_CFL_w_max              =   6.9209976712217E-02
(PID.TID 0000.0001) %MON advcfl_uvel_max              =   4.6046701818327E-02
(PID.TID 0000.0001) %MON advcfl_vvel_max              =   3.1141061061196E-02
(PID.TID 0000.0001) %MON advcfl_wvel_max              =   6.5157699351754E-02
(PID.TID 0000.0001) %MON advcfl_W_hf_max              =   7.6793002807425E-02
(PID.TID 0000.0001) %MON pe_b_mean                    =   9.2074593637156E-04
(PID.TID 0000.0001) %MON ke_max                       =   1.7487604786222E-02
(PID.TID 0000.0001) %MON ke_mean                      =   3.0108245181514E-04
(PID.TID 0000.0001) %MON ke_vol                       =   1.3226782436723E+18
(PID.TID 0000.0001) %MON vort_r_min                   =  -5.2268741328722E-07
(PID.TID 0000.0001) %MON vort_r_max                   =   6.0798319426831E-07
(PID.TID 0000.0001) %MON vort_a_mean                  =  -2.5274805989863E-05
(PID.TID 0000.0001) %MON vort_a_sd                    =   7.3604218319799E-05
(PID.TID 0000.0001) %MON vort_p_mean                  =  -3.1845654025945E-05
(PID.TID 0000.0001) %MON vort_p_sd                    =   1.3162321412040E-04
(PID.TID 0000.0001) %MON surfExpan_theta_mean         =   8.9005116389553E-08
(PID.TID 0000.0001) %MON surfExpan_salt_mean          =   1.7943967150222E-07
(PID.TID 0000.0001) // =======================================================
(PID.TID 0000.0001) // End MONITOR dynamic field statistics
(PID.TID 0000.0001) // =======================================================
 EXTERNAL_FIELDS_LOAD,        45 : iP,iLd,i0,i1=    1    2    2    3 ; Wght=  1.0000000000  0.0000000000
 EXTERNAL_FIELDS_LOAD, it=        45 : Reading new data, i0,i1=    2    3 (prev=    1    2 )
(PID.TID 0000.0001)  MDS_READ_FIELD: opening global file: trenberth_taux.bin
(PID.TID 0000.0001)  MDS_READ_FIELD: opening global file: trenberth_taux.bin
(PID.TID 0000.0001)  MDS_READ_FIELD: opening global file: trenberth_tauy.bin
(PID.TID 0000.0001)  MDS_READ_FIELD: opening global file: trenberth_tauy.bin
(PID.TID 0000.0001)  MDS_READ_FIELD: opening global file: ncep_qnet.bin
(PID.TID 0000.0001)  MDS_READ_FIELD: opening global file: ncep_qnet.bin
(PID.TID 0000.0001)  MDS_READ_FIELD: opening global file: ncep_emp.bin
(PID.TID 0000.0001)  MDS_READ_FIELD: opening global file: ncep_emp.bin
(PID.TID 0000.0001)  MDS_READ_FIELD: opening global file: lev_sst.bin
(PID.TID 0000.0001)  MDS_READ_FIELD: opening global file: lev_sst.bin
(PID.TID 0000.0001)  MDS_READ_FIELD: opening global file: lev_sss.bin
(PID.TID 0000.0001)  MDS_READ_FIELD: opening global file: lev_sss.bin
 EXTERNAL_FIELDS_LOAD: (fu0,1),fu,fv= -1.4435E-02 -2.7199E-02 -1.4435E-02 -1.7636E-02
 EXTERNAL_FIELDS_LOAD: SST,SSS,Q,E-P= -5.3186E-01  3.4421E+01  2.4048E+02  8.3772E-06
DEBUG_STATS_RL:          Uvel (THERMODYNAMICS)  min= -1.72590729892080E-01
DEBUG_STATS_RL:          Uvel (THERMODYNAMICS)  max=  1.71656874258610E-01
DEBUG_STATS_RL:          Uvel (THERMODYNAMICS) mean=  1.43159289633388E-03
DEBUG_STATS_RL:          Uvel (THERMODYNAMICS) S.D.=  2.92053083931402E-02
DEBUG_STATS_RL:          Vvel (THERMODYNAMICS)  min= -1.25014264250951E-01
DEBUG_STATS_RL:          Vvel (THERMODYNAMICS)  max=  1.60286318809504E-01
DEBUG_STATS_RL:          Vvel (THERMODYNAMICS) mean=  1.15364228377669E-03
DEBUG_STATS_RL:          Vvel (THERMODYNAMICS) S.D.=  1.75933595254613E-02
DEBUG_STATS_RL:          Wvel (THERMODYNAMICS)  min= -1.76987620545624E-04
DEBUG_STATS_RL:          Wvel (THERMODYNAMICS)  max=  1.46944112236513E-04
DEBUG_STATS_RL:          Wvel (THERMODYNAMICS) mean= -1.23182425651910E-07
DEBUG_STATS_RL:          Wvel (THERMODYNAMICS) S.D.=  1.76310383452880E-05
DEBUG_STATS_RL:         Theta (THERMODYNAMICS)  min= -1.99343755843102E+00
DEBUG_STATS_RL:         Theta (THERMODYNAMICS)  max=  3.03624638012979E+01
DEBUG_STATS_RL:         Theta (THERMODYNAMICS) mean=  3.24616492627408E+00
DEBUG_STATS_RL:         Theta (THERMODYNAMICS) S.D.=  5.86772262602703E+00
DEBUG_STATS_RL:          Salt (THERMODYNAMICS)  min=  3.00000000000000E-02
DEBUG_STATS_RL:          Salt (THERMODYNAMICS)  max=  3.74906369869398E+01
DEBUG_STATS_RL:          Salt (THERMODYNAMICS) mean=  1.88749342420361E+01
DEBUG_STATS_RL:          Salt (THERMODYNAMICS) S.D.=  1.73004512721653E+01
DEBUG_STATS_RL:         GtNm1 (THERMODYNAMICS)  min= -4.38612833258981E-06
DEBUG_STATS_RL:         GtNm1 (THERMODYNAMICS)  max=  3.29170339024168E-06
DEBUG_STATS_RL:         GtNm1 (THERMODYNAMICS) mean=  9.26747006121812E-09
DEBUG_STATS_RL:         GtNm1 (THERMODYNAMICS) S.D.=  2.13361450434965E-07
DEBUG_STATS_RL:         GsNm1 (THERMODYNAMICS)  min= -4.01085369374451E-07
DEBUG_STATS_RL:         GsNm1 (THERMODYNAMICS)  max=  3.18808339871843E-07
DEBUG_STATS_RL:         GsNm1 (THERMODYNAMICS) mean=  1.55278908225671E-10
DEBUG_STATS_RL:         GsNm1 (THERMODYNAMICS) S.D.=  1.98855432796509E-08
DEBUG_STATS_RL:                EtaN (DYNAMICS)  min= -2.39839811182266E+00
DEBUG_STATS_RL:                EtaN (DYNAMICS)  max=  1.30079238438207E+00
DEBUG_STATS_RL:                EtaN (DYNAMICS) mean= -2.00433527619501E-01
DEBUG_STATS_RL:                EtaN (DYNAMICS) S.D.=  9.27598841501487E-01
DEBUG_STATS_RL:                Uvel (DYNAMICS)  min= -1.72590729892080E-01
DEBUG_STATS_RL:                Uvel (DYNAMICS)  max=  1.71656874258610E-01
DEBUG_STATS_RL:                Uvel (DYNAMICS) mean=  1.43159289633388E-03
DEBUG_STATS_RL:                Uvel (DYNAMICS) S.D.=  2.92053083931402E-02
DEBUG_STATS_RL:                Vvel (DYNAMICS)  min= -1.25014264250951E-01
DEBUG_STATS_RL:                Vvel (DYNAMICS)  max=  1.60286318809504E-01
DEBUG_STATS_RL:                Vvel (DYNAMICS) mean=  1.15364228377669E-03
DEBUG_STATS_RL:                Vvel (DYNAMICS) S.D.=  1.75933595254613E-02
DEBUG_STATS_RL:                Wvel (DYNAMICS)  min= -1.76987620545624E-04
DEBUG_STATS_RL:                Wvel (DYNAMICS)  max=  1.46944112236513E-04
DEBUG_STATS_RL:                Wvel (DYNAMICS) mean= -1.23182425651910E-07
DEBUG_STATS_RL:                Wvel (DYNAMICS) S.D.=  1.76310383452880E-05
DEBUG_STATS_RL:               Theta (DYNAMICS)  min= -1.99343755843102E+00
DEBUG_STATS_RL:               Theta (DYNAMICS)  max=  3.03624638012979E+01
DEBUG_STATS_RL:               Theta (DYNAMICS) mean=  3.24616492627408E+00
DEBUG_STATS_RL:               Theta (DYNAMICS) S.D.=  5.86772262602703E+00
DEBUG_STATS_RL:                Salt (DYNAMICS)  min=  3.00000000000000E-02
DEBUG_STATS_RL:                Salt (DYNAMICS)  max=  3.74906369869398E+01
DEBUG_STATS_RL:                Salt (DYNAMICS) mean=  1.88749342420361E+01
DEBUG_STATS_RL:                Salt (DYNAMICS) S.D.=  1.73004512721653E+01
DEBUG_STATS_RL:                  Gu (DYNAMICS)  min= -1.71447984718645E-01
DEBUG_STATS_RL:                  Gu (DYNAMICS)  max=  1.79767437205599E-01
DEBUG_STATS_RL:                  Gu (DYNAMICS) mean=  1.20314343857171E-03
DEBUG_STATS_RL:                  Gu (DYNAMICS) S.D.=  2.92537295712337E-02
DEBUG_STATS_RL:                  Gv (DYNAMICS)  min= -1.23915964733150E-01
DEBUG_STATS_RL:                  Gv (DYNAMICS)  max=  1.47242758928004E-01
DEBUG_STATS_RL:                  Gv (DYNAMICS) mean=  3.20117834629176E-03
DEBUG_STATS_RL:                  Gv (DYNAMICS) S.D.=  1.82454603054928E-02
DEBUG_STATS_RL:               GuNm1 (DYNAMICS)  min= -9.80928508465865E-06
DEBUG_STATS_RL:               GuNm1 (DYNAMICS)  max=  8.71780024763155E-06
DEBUG_STATS_RL:               GuNm1 (DYNAMICS) mean= -5.05669474186144E-09
DEBUG_STATS_RL:               GuNm1 (DYNAMICS) S.D.=  1.18997284152215E-06
DEBUG_STATS_RL:               GvNm1 (DYNAMICS)  min= -9.76991108141851E-06
DEBUG_STATS_RL:               GvNm1 (DYNAMICS)  max=  1.64359241647858E-05
DEBUG_STATS_RL:               GvNm1 (DYNAMICS) mean=  7.40765676967279E-07
DEBUG_STATS_RL:               GvNm1 (DYNAMICS) S.D.=  2.60318745768415E-06
DEBUG_STATS_RL:               GtNm1 (DYNAMICS)  min= -4.38612833258981E-06
DEBUG_STATS_RL:               GtNm1 (DYNAMICS)  max=  3.29170339024168E-06
DEBUG_STATS_RL:               GtNm1 (DYNAMICS) mean=  9.26747006121812E-09
DEBUG_STATS_RL:               GtNm1 (DYNAMICS) S.D.=  2.13361450434965E-07
DEBUG_STATS_RL:               GsNm1 (DYNAMICS)  min= -4.01085369374451E-07
DEBUG_STATS_RL:               GsNm1 (DYNAMICS)  max=  3.18808339871843E-07
DEBUG_STATS_RL:               GsNm1 (DYNAMICS) mean=  1.55278908225671E-10
DEBUG_STATS_RL:               GsNm1 (DYNAMICS) S.D.=  1.98855432796509E-08
DEBUG_STATS_RL:    cg2d_b (SOLVE_FOR_PRESSURE)  min= -3.01110971488773E+04
DEBUG_STATS_RL:    cg2d_b (SOLVE_FOR_PRESSURE)  max=  1.70493894725614E+04
DEBUG_STATS_RL:    cg2d_b (SOLVE_FOR_PRESSURE) mean=  3.32833005556894E+00
DEBUG_STATS_RL:    cg2d_b (SOLVE_FOR_PRESSURE) S.D.=  3.89490803092790E+03
 cg2d: Sum(rhs),rhsMax =   2.55888519788824E-01  1.97777748096398E+00
(PID.TID 0000.0001)  cg2d: iter=     1 ; resid.=  2.44519716200636E-01
(PID.TID 0000.0001)  cg2d: iter=     2 ; resid.=  2.10585357160056E-01
(PID.TID 0000.0001)  cg2d: iter=     3 ; resid.=  1.94674920629399E-01
(PID.TID 0000.0001)  cg2d: iter=     4 ; resid.=  1.58222845071427E-01
(PID.TID 0000.0001)  cg2d: iter=     5 ; resid.=  1.31003345147895E-01
(PID.TID 0000.0001)  cg2d: iter=     6 ; resid.=  1.15705488685506E-01
(PID.TID 0000.0001)  cg2d: iter=     7 ; resid.=  9.76805307017356E-02
(PID.TID 0000.0001)  cg2d: iter=     8 ; resid.=  8.31261691233815E-02
(PID.TID 0000.0001)  cg2d: iter=     9 ; resid.=  6.85579746674396E-02
(PID.TID 0000.0001)  cg2d: iter=    10 ; resid.=  5.82973213014161E-02
(PID.TID 0000.0001)  cg2d: iter=    11 ; resid.=  5.11640875710493E-02
(PID.TID 0000.0001)  cg2d: iter=    12 ; resid.=  4.45058918981237E-02
(PID.TID 0000.0001)  cg2d: iter=    13 ; resid.=  3.31249014544519E-02
(PID.TID 0000.0001)  cg2d: iter=    14 ; resid.=  2.55452635730697E-02
(PID.TID 0000.0001)  cg2d: iter=    15 ; resid.=  2.07740341516564E-02
(PID.TID 0000.0001)  cg2d: iter=    16 ; resid.=  1.81743421705757E-02
(PID.TID 0000.0001)  cg2d: iter=    17 ; resid.=  1.53653437083613E-02
(PID.TID 0000.0001)  cg2d: iter=    18 ; resid.=  1.23167417115895E-02
(PID.TID 0000.0001)  cg2d: iter=    19 ; resid.=  1.03454470841387E-02
(PID.TID 0000.0001)  cg2d: iter=    20 ; resid.=  8.94938180621674E-03
(PID.TID 0000.0001)  cg2d: iter=    21 ; resid.=  7.79679652558233E-03
(PID.TID 0000.0001)  cg2d: iter=    22 ; resid.=  6.76353199450904E-03
(PID.TID 0000.0001)  cg2d: iter=    23 ; resid.=  5.50691552057748E-03
(PID.TID 0000.0001)  cg2d: iter=    24 ; resid.=  4.46954812848643E-03
(PID.TID 0000.0001)  cg2d: iter=    25 ; resid.=  3.51010621746452E-03
(PID.TID 0000.0001)  cg2d: iter=    26 ; resid.=  2.88643963029123E-03
(PID.TID 0000.0001)  cg2d: iter=    27 ; resid.=  2.51298755702974E-03
(PID.TID 0000.0001)  cg2d: iter=    28 ; resid.=  2.10771262224233E-03
(PID.TID 0000.0001)  cg2d: iter=    29 ; resid.=  1.69472729199379E-03
(PID.TID 0000.0001)  cg2d: iter=    30 ; resid.=  1.44209862800178E-03
(PID.TID 0000.0001)  cg2d: iter=    31 ; resid.=  1.15736963094089E-03
(PID.TID 0000.0001)  cg2d: iter=    32 ; resid.=  8.58546200367088E-04
(PID.TID 0000.0001)  cg2d: iter=    33 ; resid.=  6.89561344315239E-04
(PID.TID 0000.0001)  cg2d: iter=    34 ; resid.=  5.86641550711806E-04
(PID.TID 0000.0001)  cg2d: iter=    35 ; resid.=  4.66575210575246E-04
(PID.TID 0000.0001)  cg2d: iter=    36 ; resid.=  3.85301914052464E-04
(PID.TID 0000.0001)  cg2d: iter=    37 ; resid.=  3.03058053909726E-04
(PID.TID 0000.0001)  cg2d: iter=    38 ; resid.=  2.39814560276020E-04
(PID.TID 0000.0001)  cg2d: iter=    39 ; resid.=  1.92003024709246E-04
(PID.TID 0000.0001)  cg2d: iter=    40 ; resid.=  1.62749336393018E-04
(PID.TID 0000.0001)  cg2d: iter=    41 ; resid.=  1.39072001779658E-04
(PID.TID 0000.0001)  cg2d: iter=    42 ; resid.=  1.23103268643873E-04
(PID.TID 0000.0001)  cg2d: iter=    43 ; resid.=  1.11381039774209E-04
(PID.TID 0000.0001)  cg2d: iter=    44 ; resid.=  9.10640707319427E-05
(PID.TID 0000.0001)  cg2d: iter=    45 ; resid.=  7.43293236859694E-05
(PID.TID 0000.0001)  cg2d: iter=    46 ; resid.=  5.72579240771288E-05
(PID.TID 0000.0001)  cg2d: iter=    47 ; resid.=  5.00155634079127E-05
(PID.TID 0000.0001)  cg2d: iter=    48 ; resid.=  3.99457169563073E-05
(PID.TID 0000.0001)  cg2d: iter=    49 ; resid.=  3.26039310559290E-05
(PID.TID 0000.0001)  cg2d: iter=    50 ; resid.=  2.48493336991227E-05
(PID.TID 0000.0001)  cg2d: iter=    51 ; resid.=  2.00851480863438E-05
(PID.TID 0000.0001)  cg2d: iter=    52 ; resid.=  1.68410581002011E-05
(PID.TID 0000.0001)  cg2d: iter=    53 ; resid.=  1.46172835160386E-05
(PID.TID 0000.0001)  cg2d: iter=    54 ; resid.=  1.28569151747300E-05
(PID.TID 0000.0001)  cg2d: iter=    55 ; resid.=  1.21384019106173E-05
(PID.TID 0000.0001)  cg2d: iter=    56 ; resid.=  1.10586179964403E-05
(PID.TID 0000.0001)  cg2d: iter=    57 ; resid.=  9.92819664045427E-06
(PID.TID 0000.0001)  cg2d: iter=    58 ; resid.=  8.75294476306521E-06
(PID.TID 0000.0001)  cg2d: iter=    59 ; resid.=  6.76870326512008E-06
(PID.TID 0000.0001)  cg2d: iter=    60 ; resid.=  5.39758449290406E-06
(PID.TID 0000.0001)  cg2d: iter=    61 ; resid.=  4.28556496790778E-06
(PID.TID 0000.0001)  cg2d: iter=    62 ; resid.=  3.54400843925105E-06
(PID.TID 0000.0001)  cg2d: iter=    63 ; resid.=  2.70885174096447E-06
(PID.TID 0000.0001)  cg2d: iter=    64 ; resid.=  2.09147415936033E-06
(PID.TID 0000.0001)  cg2d: iter=    65 ; resid.=  1.62270531456960E-06
(PID.TID 0000.0001)  cg2d: iter=    66 ; resid.=  1.26985133593331E-06
(PID.TID 0000.0001)  cg2d: iter=    67 ; resid.=  1.11946618102928E-06
(PID.TID 0000.0001)  cg2d: iter=    68 ; resid.=  9.94724833395818E-07
(PID.TID 0000.0001)  cg2d: iter=    69 ; resid.=  8.10146898839942E-07
(PID.TID 0000.0001)  cg2d: iter=    70 ; resid.=  7.07231266291769E-07
(PID.TID 0000.0001)  cg2d: iter=    71 ; resid.=  6.29168437859518E-07
(PID.TID 0000.0001)  cg2d: iter=    72 ; resid.=  5.43972175033797E-07
(PID.TID 0000.0001)  cg2d: iter=    73 ; resid.=  4.81730473051229E-07
(PID.TID 0000.0001)  cg2d: iter=    74 ; resid.=  4.25883871538145E-07
(PID.TID 0000.0001)  cg2d: iter=    75 ; resid.=  3.31069578322642E-07
(PID.TID 0000.0001)  cg2d: iter=    76 ; resid.=  2.65663741384046E-07
(PID.TID 0000.0001)  cg2d: iter=    77 ; resid.=  2.18462329260274E-07
(PID.TID 0000.0001)  cg2d: iter=    78 ; resid.=  1.79685378808115E-07
(PID.TID 0000.0001)  cg2d: iter=    79 ; resid.=  1.53003135030248E-07
(PID.TID 0000.0001)  cg2d: iter=    80 ; resid.=  1.18045517847527E-07
(PID.TID 0000.0001)  cg2d: iter=    81 ; resid.=  9.80618485130618E-08
(PID.TID 0000.0001)  cg2d: iter=    82 ; resid.=  7.54849030503103E-08
(PID.TID 0000.0001)  cg2d: iter=    83 ; resid.=  5.60105464949799E-08
(PID.TID 0000.0001)  cg2d: iter=    84 ; resid.=  4.18226046379516E-08
(PID.TID 0000.0001)  cg2d: iter=    85 ; resid.=  3.02857189168274E-08
(PID.TID 0000.0001)  cg2d: iter=    86 ; resid.=  2.22596867669642E-08
(PID.TID 0000.0001)  cg2d: iter=    87 ; resid.=  1.49566404628059E-08
(PID.TID 0000.0001)  cg2d: iter=    88 ; resid.=  1.21365570136382E-08
(PID.TID 0000.0001)  cg2d: iter=    89 ; resid.=  1.09854721730516E-08
(PID.TID 0000.0001)  cg2d: iter=    90 ; resid.=  8.76881300152152E-09
(PID.TID 0000.0001)  cg2d: iter=    91 ; resid.=  7.33617652572011E-09
(PID.TID 0000.0001)  cg2d: iter=    92 ; resid.=  6.15685984690883E-09
(PID.TID 0000.0001)  cg2d: iter=    93 ; resid.=  4.95374179559518E-09
(PID.TID 0000.0001)  cg2d: iter=    94 ; resid.=  4.09159995478791E-09
(PID.TID 0000.0001)  cg2d: iter=    95 ; resid.=  3.85376317132157E-09
(PID.TID 0000.0001)  cg2d: iter=    96 ; resid.=  2.96258699412391E-09
(PID.TID 0000.0001)  cg2d: iter=    97 ; resid.=  2.32530029636985E-09
(PID.TID 0000.0001)  cg2d: iter=    98 ; resid.=  1.90373839753154E-09
(PID.TID 0000.0001)  cg2d: iter=    99 ; resid.=  1.65725440805986E-09
(PID.TID 0000.0001)  cg2d: iter=   100 ; resid.=  1.40060863681514E-09
(PID.TID 0000.0001)  cg2d: iter=   101 ; resid.=  9.99505515418733E-10
(PID.TID 0000.0001)  cg2d: iter=   102 ; resid.=  7.12427871477901E-10
(PID.TID 0000.0001)  cg2d: iter=   103 ; resid.=  4.86909711200319E-10
(PID.TID 0000.0001)  cg2d: iter=   104 ; resid.=  3.54388121274397E-10
(PID.TID 0000.0001)  cg2d: iter=   105 ; resid.=  2.53690715017165E-10
(PID.TID 0000.0001)  cg2d: iter=   106 ; resid.=  2.00135368456570E-10
(PID.TID 0000.0001)  cg2d: iter=   107 ; resid.=  1.52035984777740E-10
(PID.TID 0000.0001)  cg2d: iter=   108 ; resid.=  1.17901394388134E-10
(PID.TID 0000.0001)  cg2d: iter=   109 ; resid.=  9.42159558007927E-11
(PID.TID 0000.0001)  cg2d: iter=   110 ; resid.=  6.96407878255831E-11
(PID.TID 0000.0001)  cg2d: iter=   111 ; resid.=  5.69159562386556E-11
(PID.TID 0000.0001)  cg2d: iter=   112 ; resid.=  4.46442882407102E-11
(PID.TID 0000.0001)  cg2d: iter=   113 ; resid.=  3.36991959976717E-11
(PID.TID 0000.0001)  cg2d: iter=   114 ; resid.=  2.73363161526361E-11
(PID.TID 0000.0001)  cg2d: iter=   115 ; resid.=  1.91398145189078E-11
(PID.TID 0000.0001)  cg2d: iter=   116 ; resid.=  1.33601989326290E-11
(PID.TID 0000.0001)  cg2d: iter=   117 ; resid.=  1.01622874773154E-11
(PID.TID 0000.0001)  cg2d: iter=   118 ; resid.=  6.57436964744294E-12
(PID.TID 0000.0001)  cg2d: iter=   119 ; resid.=  5.12852543357753E-12
(PID.TID 0000.0001)  cg2d: iter=   120 ; resid.=  3.67565975430482E-12
(PID.TID 0000.0001)  cg2d: iter=   121 ; resid.=  2.41353520718662E-12
(PID.TID 0000.0001)  cg2d: iter=   122 ; resid.=  1.77493420531822E-12
(PID.TID 0000.0001)  cg2d: iter=   123 ; resid.=  1.36216666532421E-12
(PID.TID 0000.0001)  cg2d: iter=   124 ; resid.=  1.06975846584009E-12
(PID.TID 0000.0001)  cg2d: iter=   125 ; resid.=  8.93208780779916E-13
(PID.TID 0000.0001)  cg2d: iter=   126 ; resid.=  7.69930374945361E-13
(PID.TID 0000.0001)  cg2d: iter=   127 ; resid.=  5.59989071333874E-13
(PID.TID 0000.0001)  cg2d: iter=   128 ; resid.=  4.07345327423671E-13
(PID.TID 0000.0001)  cg2d: iter=   129 ; resid.=  3.23874426326588E-13
(PID.TID 0000.0001)  cg2d: iter=   130 ; resid.=  2.39584927344954E-13
(PID.TID 0000.0001)  cg2d: iter=   131 ; resid.=  1.63809802616088E-13
(PID.TID 0000.0001)  cg2d: iter=   132 ; resid.=  1.14724659334987E-13
(PID.TID 0000.0001)  cg2d: iter=   133 ; resid.=  8.84424424462177E-14
DEBUG_STATS_RL:    cg2d_x (SOLVE_FOR_PRESSURE)  min= -2.26752013661254E+01
DEBUG_STATS_RL:    cg2d_x (SOLVE_FOR_PRESSURE)  max=  1.25313949865367E+01
DEBUG_STATS_RL:    cg2d_x (SOLVE_FOR_PRESSURE) mean= -1.96158687916495E+00
DEBUG_STATS_RL:    cg2d_x (SOLVE_FOR_PRESSURE) S.D.=  8.85642083790891E+00
(PID.TID 0000.0001)      cg2d_init_res =   3.87846367392882E-01
(PID.TID 0000.0001)      cg2d_iters(min,last) =      -1     133
(PID.TID 0000.0001)      cg2d_last_res =   8.84424424462177E-14
(PID.TID 0000.0001) // =======================================================
(PID.TID 0000.0001) // Begin MONITOR dynamic field statistics
(PID.TID 0000.0001) // =======================================================
(PID.TID 0000.0001) %MON time_tsnumber                =                    46
(PID.TID 0000.0001) %MON time_secondsf                =   3.9744000000000E+06
(PID.TID 0000.0001) %MON dynstat_eta_max              =   1.2774102942444E+00
(PID.TID 0000.0001) %MON dynstat_eta_min              =  -2.3114374481269E+00
(PID.TID 0000.0001) %MON dynstat_eta_mean             =  -3.4726997136840E-03
(PID.TID 0000.0001) %MON dynstat_eta_sd               =   8.2082846942239E-01
(PID.TID 0000.0001) %MON dynstat_eta_del2             =   2.4009688494399E-03
(PID.TID 0000.0001) %MON dynstat_uvel_max             =   1.7712625305141E-01
(PID.TID 0000.0001) %MON dynstat_uvel_min             =  -1.7141686770813E-01
(PID.TID 0000.0001) %MON dynstat_uvel_mean            =  -6.9156853296708E-04
(PID.TID 0000.0001) %MON dynstat_uvel_sd              =   2.2364946036478E-02
(PID.TID 0000.0001) %MON dynstat_uvel_del2            =   1.2663711433887E-04
(PID.TID 0000.0001) %MON dynstat_vvel_max             =   1.5627922235941E-01
(PID.TID 0000.0001) %MON dynstat_vvel_min             =  -1.2477485024983E-01
(PID.TID 0000.0001) %MON dynstat_vvel_mean            =   1.7045095905417E-05
(PID.TID 0000.0001) %MON dynstat_vvel_sd              =   1.2416852225216E-02
(PID.TID 0000.0001) %MON dynstat_vvel_del2            =   1.0096425886757E-04
(PID.TID 0000.0001) %MON dynstat_wvel_max             =   1.4806043057203E-04
(PID.TID 0000.0001) %MON dynstat_wvel_min             =  -1.6738176892280E-04
(PID.TID 0000.0001) %MON dynstat_wvel_mean            =   8.1334328544090E-23
(PID.TID 0000.0001) %MON dynstat_wvel_sd              =   2.0229941842048E-05
(PID.TID 0000.0001) %MON dynstat_wvel_del2            =   1.9759206361228E-07
(PID.TID 0000.0001) %MON dynstat_theta_max            =   3.0362463801298E+01
(PID.TID 0000.0001) %MON dynstat_theta_min            =  -1.9934375584310E+00
(PID.TID 0000.0001) %MON dynstat_theta_mean           =   3.6520571005674E+00
(PID.TID 0000.0001) %MON dynstat_theta_sd             =   4.4202598977253E+00
(PID.TID 0000.0001) %MON dynstat_theta_del2           =   4.7834890284554E-03
(PID.TID 0000.0001) %MON dynstat_salt_max             =   3.7490636986940E+01
(PID.TID 0000.0001) %MON dynstat_salt_min             =   2.9858563525587E+01
(PID.TID 0000.0001) %MON dynstat_salt_mean            =   3.4748031355400E+01
(PID.TID 0000.0001) %MON dynstat_salt_sd              =   2.9643491124537E-01
(PID.TID 0000.0001) %MON dynstat_salt_del2            =   9.8786072052495E-04
(PID.TID 0000.0001) %MON dynstat_sst_max              =   3.0362463801298E+01
(PID.TID 0000.0001) %MON dynstat_sst_min              =  -1.9934375584310E+00
(PID.TID 0000.0001) %MON dynstat_sst_mean             =   1.8922548205858E+01
(PID.TID 0000.0001) %MON dynstat_sst_sd               =   9.0137881403847E+00
(PID.TID 0000.0001) %MON dynstat_sst_del2             =   2.7376739435735E-02
(PID.TID 0000.0001) %MON dynstat_sss_max              =   3.7459395247516E+01
(PID.TID 0000.0001) %MON dynstat_sss_min              =   2.9858563525587E+01
(PID.TID 0000.0001) %MON dynstat_sss_mean             =   3.4874627166664E+01
(PID.TID 0000.0001) %MON dynstat_sss_sd               =   9.7749836462986E-01
(PID.TID 0000.0001) %MON dynstat_sss_del2             =   7.8963511977057E-03
(PID.TID 0000.0001) %MON forcing_qnet_max             =   3.5845223999023E+02
(PID.TID 0000.0001) %MON forcing_qnet_min             =  -1.7283396911621E+02
(PID.TID 0000.0001) %MON forcing_qnet_mean            =  -1.3965250978943E+01
(PID.TID 0000.0001) %MON forcing_qnet_sd              =   7.9600844041117E+01
(PID.TID 0000.0001) %MON forcing_qnet_del2            =   9.4924046503394E-01
(PID.TID 0000.0001) %MON forcing_qsw_max              =   0.0000000000000E+00
(PID.TID 0000.0001) %MON forcing_qsw_min              =   0.0000000000000E+00
(PID.TID 0000.0001) %MON forcing_qsw_mean             =   0.0000000000000E+00
(PID.TID 0000.0001) %MON forcing_qsw_sd               =   0.0000000000000E+00
(PID.TID 0000.0001) %MON forcing_qsw_del2             =   0.0000000000000E+00
(PID.TID 0000.0001) %MON forcing_empmr_max            =   7.2751547008920E-05
(PID.TID 0000.0001) %MON forcing_empmr_min            =  -7.8545284054599E-05
(PID.TID 0000.0001) %MON forcing_empmr_mean           =   9.4340897990939E-07
(PID.TID 0000.0001) %MON forcing_empmr_sd             =   2.7981615340984E-05
(PID.TID 0000.0001) %MON forcing_empmr_del2           =   3.5607128030285E-07
(PID.TID 0000.0001) %MON forcing_fu_max               =   3.0463552474976E-01
(PID.TID 0000.0001) %MON forcing_fu_min               =  -2.1965765953064E-01
(PID.TID 0000.0001) %MON forcing_fu_mean              =   1.7630741616636E-02
(PID.TID 0000.0001) %MON forcing_fu_sd                =   9.3014374943535E-02
(PID.TID 0000.0001) %MON forcing_fu_del2              =   7.4725854650669E-04
(PID.TID 0000.0001) %MON forcing_fv_max               =   2.0158496499062E-01
(PID.TID 0000.0001) %MON forcing_fv_min               =  -1.9967925548553E-01
(PID.TID 0000.0001) %MON forcing_fv_mean              =  -7.2167249409603E-03
(PID.TID 0000.0001) %MON forcing_fv_sd                =   4.5051757763558E-02
(PID.TID 0000.0001) %MON forcing_fv_del2              =   5.4153881017288E-04
(PID.TID 0000.0001) %MON trAdv_CFL_u_max              =   4.6056054232797E-02
(PID.TID 0000.0001) %MON trAdv_CFL_v_max              =   3.2254062432945E-02
(PID.TID 0000.0001) %MON trAdv_CFL_w_max              =   7.6793002807425E-02
(PID.TID 0000.0001) %MON advcfl_uvel_max              =   4.6306976816014E-02
(PID.TID 0000.0001) %MON advcfl_vvel_max              =   3.0362546487043E-02
(PID.TID 0000.0001) %MON advcfl_wvel_max              =   6.9724041666372E-02
(PID.TID 0000.0001) %MON advcfl_W_hf_max              =   8.2174763392510E-02
(PID.TID 0000.0001) %MON pe_b_mean                    =   8.6217176375828E-04
(PID.TID 0000.0001) %MON ke_max                       =   1.7689343092573E-02
(PID.TID 0000.0001) %MON ke_mean                      =   2.9667903049965E-04
(PID.TID 0000.0001) %MON ke_vol                       =   1.3226782436723E+18
(PID.TID 0000.0001) %MON vort_r_min                   =  -5.2951947367624E-07
(PID.TID 0000.0001) %MON vort_r_max                   =   5.5909492939413E-07
(PID.TID 0000.0001) %MON vort_a_mean                  =  -2.5274806058935E-05
(PID.TID 0000.0001) %MON vort_a_sd                    =   7.3604179026509E-05
(PID.TID 0000.0001) %MON vort_p_mean                  =  -3.1845654112973E-05
(PID.TID 0000.0001) %MON vort_p_sd                    =   1.3162313043440E-04
(PID.TID 0000.0001) %MON surfExpan_theta_mean         =  -4.8210993952672E-08
(PID.TID 0000.0001) %MON surfExpan_salt_mean          =   2.4235166465924E-07
(PID.TID 0000.0001) // =======================================================
(PID.TID 0000.0001) // End MONITOR dynamic field statistics
(PID.TID 0000.0001) // =======================================================
 EXTERNAL_FIELDS_LOAD,        46 : iP,iLd,i0,i1=    2    3    2    3 ; Wght=  0.9666666667  0.0333333333
 EXTERNAL_FIELDS_LOAD: (fu0,1),fu,fv= -1.4435E-02 -2.7199E-02 -1.4860E-02 -1.7067E-02
 EXTERNAL_FIELDS_LOAD: SST,SSS,Q,E-P= -5.2026E-01  3.4426E+01  2.3964E+02  8.4007E-06
DEBUG_STATS_RL:          Uvel (THERMODYNAMICS)  min= -1.71416867708126E-01
DEBUG_STATS_RL:          Uvel (THERMODYNAMICS)  max=  1.77126253051407E-01
DEBUG_STATS_RL:          Uvel (THERMODYNAMICS) mean=  1.41987652154901E-03
DEBUG_STATS_RL:          Uvel (THERMODYNAMICS) S.D.=  2.88563981474320E-02
DEBUG_STATS_RL:          Vvel (THERMODYNAMICS)  min= -1.24774850249835E-01
DEBUG_STATS_RL:          Vvel (THERMODYNAMICS)  max=  1.56279222359411E-01
DEBUG_STATS_RL:          Vvel (THERMODYNAMICS) mean=  1.30128208819167E-03
DEBUG_STATS_RL:          Vvel (THERMODYNAMICS) S.D.=  1.75056821612459E-02
DEBUG_STATS_RL:          Wvel (THERMODYNAMICS)  min= -1.67381768922805E-04
DEBUG_STATS_RL:          Wvel (THERMODYNAMICS)  max=  1.48060430572035E-04
DEBUG_STATS_RL:          Wvel (THERMODYNAMICS) mean= -8.59521452146031E-08
DEBUG_STATS_RL:          Wvel (THERMODYNAMICS) S.D.=  1.75444886655507E-05
DEBUG_STATS_RL:         Theta (THERMODYNAMICS)  min= -1.99108798621411E+00
DEBUG_STATS_RL:         Theta (THERMODYNAMICS)  max=  3.03789550513061E+01
DEBUG_STATS_RL:         Theta (THERMODYNAMICS) mean=  3.24653285225077E+00
DEBUG_STATS_RL:         Theta (THERMODYNAMICS) S.D.=  5.86856035131995E+00
DEBUG_STATS_RL:          Salt (THERMODYNAMICS)  min=  3.00000000000000E-02
DEBUG_STATS_RL:          Salt (THERMODYNAMICS)  max=  3.74911185398705E+01
DEBUG_STATS_RL:          Salt (THERMODYNAMICS) mean=  1.88749405009687E+01
DEBUG_STATS_RL:          Salt (THERMODYNAMICS) S.D.=  1.73004572485203E+01
DEBUG_STATS_RL:         GtNm1 (THERMODYNAMICS)  min= -4.66942335751128E-06
DEBUG_STATS_RL:         GtNm1 (THERMODYNAMICS)  max=  3.32717972377030E-06
DEBUG_STATS_RL:         GtNm1 (THERMODYNAMICS) mean=  8.46781613822450E-09
DEBUG_STATS_RL:         GtNm1 (THERMODYNAMICS) S.D.=  2.12913629003182E-07
DEBUG_STATS_RL:         GsNm1 (THERMODYNAMICS)  min= -4.36145111564467E-07
DEBUG_STATS_RL:         GsNm1 (THERMODYNAMICS)  max=  3.23692179848163E-07
DEBUG_STATS_RL:         GsNm1 (THERMODYNAMICS) mean=  1.10047852325380E-10
DEBUG_STATS_RL:         GsNm1 (THERMODYNAMICS) S.D.=  2.00272563985458E-08
DEBUG_STATS_RL:                EtaN (DYNAMICS)  min= -2.31143744812690E+00
DEBUG_STATS_RL:                EtaN (DYNAMICS)  max=  1.27741029424437E+00
DEBUG_STATS_RL:                EtaN (DYNAMICS) mean= -1.99957887784396E-01
DEBUG_STATS_RL:                EtaN (DYNAMICS) S.D.=  9.02795192447390E-01
DEBUG_STATS_RL:                Uvel (DYNAMICS)  min= -1.71416867708126E-01
DEBUG_STATS_RL:                Uvel (DYNAMICS)  max=  1.77126253051407E-01
DEBUG_STATS_RL:                Uvel (DYNAMICS) mean=  1.41987652154901E-03
DEBUG_STATS_RL:                Uvel (DYNAMICS) S.D.=  2.88563981474320E-02
DEBUG_STATS_RL:                Vvel (DYNAMICS)  min= -1.24774850249835E-01
DEBUG_STATS_RL:                Vvel (DYNAMICS)  max=  1.56279222359411E-01
DEBUG_STATS_RL:                Vvel (DYNAMICS) mean=  1.30128208819167E-03
DEBUG_STATS_RL:                Vvel (DYNAMICS) S.D.=  1.75056821612459E-02
DEBUG_STATS_RL:                Wvel (DYNAMICS)  min= -1.67381768922805E-04
DEBUG_STATS_RL:                Wvel (DYNAMICS)  max=  1.48060430572035E-04
DEBUG_STATS_RL:                Wvel (DYNAMICS) mean= -8.59521452146031E-08
DEBUG_STATS_RL:                Wvel (DYNAMICS) S.D.=  1.75444886655507E-05
DEBUG_STATS_RL:               Theta (DYNAMICS)  min= -1.99108798621411E+00
DEBUG_STATS_RL:               Theta (DYNAMICS)  max=  3.03789550513061E+01
DEBUG_STATS_RL:               Theta (DYNAMICS) mean=  3.24653285225077E+00
DEBUG_STATS_RL:               Theta (DYNAMICS) S.D.=  5.86856035131995E+00
DEBUG_STATS_RL:                Salt (DYNAMICS)  min=  3.00000000000000E-02
DEBUG_STATS_RL:                Salt (DYNAMICS)  max=  3.74911185398705E+01
DEBUG_STATS_RL:                Salt (DYNAMICS) mean=  1.88749405009687E+01
DEBUG_STATS_RL:                Salt (DYNAMICS) S.D.=  1.73004572485203E+01
DEBUG_STATS_RL:                  Gu (DYNAMICS)  min= -1.70001204670835E-01
DEBUG_STATS_RL:                  Gu (DYNAMICS)  max=  1.84808135621569E-01
DEBUG_STATS_RL:                  Gu (DYNAMICS) mean=  1.29877410550784E-03
DEBUG_STATS_RL:                  Gu (DYNAMICS) S.D.=  2.88651929375429E-02
DEBUG_STATS_RL:                  Gv (DYNAMICS)  min= -1.23627801987710E-01
DEBUG_STATS_RL:                  Gv (DYNAMICS)  max=  1.38698661190257E-01
DEBUG_STATS_RL:                  Gv (DYNAMICS) mean=  3.30770724146644E-03
DEBUG_STATS_RL:                  Gv (DYNAMICS) S.D.=  1.83056670167070E-02
DEBUG_STATS_RL:               GuNm1 (DYNAMICS)  min= -9.80962477830087E-06
DEBUG_STATS_RL:               GuNm1 (DYNAMICS)  max=  8.76564819201123E-06
DEBUG_STATS_RL:               GuNm1 (DYNAMICS) mean= -2.58269436365372E-09
DEBUG_STATS_RL:               GuNm1 (DYNAMICS) S.D.=  1.19153782860669E-06
DEBUG_STATS_RL:               GvNm1 (DYNAMICS)  min= -9.63082532246301E-06
DEBUG_STATS_RL:               GvNm1 (DYNAMICS)  max=  1.64704808815831E-05
DEBUG_STATS_RL:               GvNm1 (DYNAMICS) mean=  7.40885682236250E-07
DEBUG_STATS_RL:               GvNm1 (DYNAMICS) S.D.=  2.60441261018630E-06
DEBUG_STATS_RL:               GtNm1 (DYNAMICS)  min= -4.66942335751128E-06
DEBUG_STATS_RL:               GtNm1 (DYNAMICS)  max=  3.32717972377030E-06
DEBUG_STATS_RL:               GtNm1 (DYNAMICS) mean=  8.46781613822450E-09
DEBUG_STATS_RL:               GtNm1 (DYNAMICS) S.D.=  2.12913629003182E-07
DEBUG_STATS_RL:               GsNm1 (DYNAMICS)  min= -4.36145111564467E-07
DEBUG_STATS_RL:               GsNm1 (DYNAMICS)  max=  3.23692179848163E-07
DEBUG_STATS_RL:               GsNm1 (DYNAMICS) mean=  1.10047852325380E-10
DEBUG_STATS_RL:               GsNm1 (DYNAMICS) S.D.=  2.00272563985458E-08
DEBUG_STATS_RL:    cg2d_b (SOLVE_FOR_PRESSURE)  min= -2.96808115478086E+04
DEBUG_STATS_RL:    cg2d_b (SOLVE_FOR_PRESSURE)  max=  1.73914681116826E+04
DEBUG_STATS_RL:    cg2d_b (SOLVE_FOR_PRESSURE) mean=  3.40276287361599E+00
DEBUG_STATS_RL:    cg2d_b (SOLVE_FOR_PRESSURE) S.D.=  3.89254431355370E+03
 cg2d: Sum(rhs),rhsMax =   2.65403661208327E-01  1.94951517062805E+00
(PID.TID 0000.0001)  cg2d: iter=     1 ; resid.=  2.55382722734500E-01
(PID.TID 0000.0001)  cg2d: iter=     2 ; resid.=  2.32966960080519E-01
(PID.TID 0000.0001)  cg2d: iter=     3 ; resid.=  2.17166091489430E-01
(PID.TID 0000.0001)  cg2d: iter=     4 ; resid.=  1.81035344205228E-01
(PID.TID 0000.0001)  cg2d: iter=     5 ; resid.=  1.60561448987698E-01
(PID.TID 0000.0001)  cg2d: iter=     6 ; resid.=  1.45961130885358E-01
(PID.TID 0000.0001)  cg2d: iter=     7 ; resid.=  1.22077177656482E-01
(PID.TID 0000.0001)  cg2d: iter=     8 ; resid.=  9.96109160672381E-02
(PID.TID 0000.0001)  cg2d: iter=     9 ; resid.=  8.05006407698732E-02
(PID.TID 0000.0001)  cg2d: iter=    10 ; resid.=  6.85267672201008E-02
(PID.TID 0000.0001)  cg2d: iter=    11 ; resid.=  5.89059088036037E-02
(PID.TID 0000.0001)  cg2d: iter=    12 ; resid.=  4.99242399191245E-02
(PID.TID 0000.0001)  cg2d: iter=    13 ; resid.=  3.74156730198861E-02
(PID.TID 0000.0001)  cg2d: iter=    14 ; resid.=  2.91713889973906E-02
(PID.TID 0000.0001)  cg2d: iter=    15 ; resid.=  2.37615254450690E-02
(PID.TID 0000.0001)  cg2d: iter=    16 ; resid.=  2.11561994699475E-02
(PID.TID 0000.0001)  cg2d: iter=    17 ; resid.=  1.82361542404425E-02
(PID.TID 0000.0001)  cg2d: iter=    18 ; resid.=  1.49191613360666E-02
(PID.TID 0000.0001)  cg2d: iter=    19 ; resid.=  1.25201335909287E-02
(PID.TID 0000.0001)  cg2d: iter=    20 ; resid.=  1.07733826797219E-02
(PID.TID 0000.0001)  cg2d: iter=    21 ; resid.=  9.35283997883781E-03
(PID.TID 0000.0001)  cg2d: iter=    22 ; resid.=  8.07774823617509E-03
(PID.TID 0000.0001)  cg2d: iter=    23 ; resid.=  6.54691180246713E-03
(PID.TID 0000.0001)  cg2d: iter=    24 ; resid.=  5.24957595150508E-03
(PID.TID 0000.0001)  cg2d: iter=    25 ; resid.=  4.06557400221891E-03
(PID.TID 0000.0001)  cg2d: iter=    26 ; resid.=  3.31599901967439E-03
(PID.TID 0000.0001)  cg2d: iter=    27 ; resid.=  2.85096049856352E-03
(PID.TID 0000.0001)  cg2d: iter=    28 ; resid.=  2.32864527815157E-03
(PID.TID 0000.0001)  cg2d: iter=    29 ; resid.=  1.83806605647299E-03
(PID.TID 0000.0001)  cg2d: iter=    30 ; resid.=  1.57354842912268E-03
(PID.TID 0000.0001)  cg2d: iter=    31 ; resid.=  1.26642764353129E-03
(PID.TID 0000.0001)  cg2d: iter=    32 ; resid.=  9.37351775938246E-04
(PID.TID 0000.0001)  cg2d: iter=    33 ; resid.=  7.46146708988403E-04
(PID.TID 0000.0001)  cg2d: iter=    34 ; resid.=  6.38549829742445E-04
(PID.TID 0000.0001)  cg2d: iter=    35 ; resid.=  5.19477895409705E-04
(PID.TID 0000.0001)  cg2d: iter=    36 ; resid.=  4.42245508318179E-04
(PID.TID 0000.0001)  cg2d: iter=    37 ; resid.=  3.56798007770405E-04
(PID.TID 0000.0001)  cg2d: iter=    38 ; resid.=  2.89501301732384E-04
(PID.TID 0000.0001)  cg2d: iter=    39 ; resid.=  2.36354108800480E-04
(PID.TID 0000.0001)  cg2d: iter=    40 ; resid.=  2.02046829160427E-04
(PID.TID 0000.0001)  cg2d: iter=    41 ; resid.=  1.73726322017437E-04
(PID.TID 0000.0001)  cg2d: iter=    42 ; resid.=  1.53020338111585E-04
(PID.TID 0000.0001)  cg2d: iter=    43 ; resid.=  1.34811419129110E-04
(PID.TID 0000.0001)  cg2d: iter=    44 ; resid.=  1.09691059511076E-04
(PID.TID 0000.0001)  cg2d: iter=    45 ; resid.=  9.04820424088606E-05
(PID.TID 0000.0001)  cg2d: iter=    46 ; resid.=  7.00246447903653E-05
(PID.TID 0000.0001)  cg2d: iter=    47 ; resid.=  6.08077913576942E-05
(PID.TID 0000.0001)  cg2d: iter=    48 ; resid.=  4.84854763544710E-05
(PID.TID 0000.0001)  cg2d: iter=    49 ; resid.=  4.07084601650456E-05
(PID.TID 0000.0001)  cg2d: iter=    50 ; resid.=  3.20514123005803E-05
(PID.TID 0000.0001)  cg2d: iter=    51 ; resid.=  2.71193649715218E-05
(PID.TID 0000.0001)  cg2d: iter=    52 ; resid.=  2.35876817553580E-05
(PID.TID 0000.0001)  cg2d: iter=    53 ; resid.=  2.06777349311243E-05
(PID.TID 0000.0001)  cg2d: iter=    54 ; resid.=  1.83254867001085E-05
(PID.TID 0000.0001)  cg2d: iter=    55 ; resid.=  1.72883914917110E-05
(PID.TID 0000.0001)  cg2d: iter=    56 ; resid.=  1.53152908697741E-05
(PID.TID 0000.0001)  cg2d: iter=    57 ; resid.=  1.29779479307063E-05
(PID.TID 0000.0001)  cg2d: iter=    58 ; resid.=  1.07483745504985E-05
(PID.TID 0000.0001)  cg2d: iter=    59 ; resid.=  8.00305052896996E-06
(PID.TID 0000.0001)  cg2d: iter=    60 ; resid.=  6.27465359462800E-06
(PID.TID 0000.0001)  cg2d: iter=    61 ; resid.=  5.02561155776384E-06
(PID.TID 0000.0001)  cg2d: iter=    62 ; resid.=  4.16730024352887E-06
(PID.TID 0000.0001)  cg2d: iter=    63 ; resid.=  3.23348337796342E-06
(PID.TID 0000.0001)  cg2d: iter=    64 ; resid.=  2.54026661815522E-06
(PID.TID 0000.0001)  cg2d: iter=    65 ; resid.=  2.01081608066872E-06
(PID.TID 0000.0001)  cg2d: iter=    66 ; resid.=  1.61557543567186E-06
(PID.TID 0000.0001)  cg2d: iter=    67 ; resid.=  1.48914683007387E-06
(PID.TID 0000.0001)  cg2d: iter=    68 ; resid.=  1.36093910356205E-06
(PID.TID 0000.0001)  cg2d: iter=    69 ; resid.=  1.13242984426228E-06
(PID.TID 0000.0001)  cg2d: iter=    70 ; resid.=  1.00072686598757E-06
(PID.TID 0000.0001)  cg2d: iter=    71 ; resid.=  8.59074721439894E-07
(PID.TID 0000.0001)  cg2d: iter=    72 ; resid.=  7.24452002225273E-07
(PID.TID 0000.0001)  cg2d: iter=    73 ; resid.=  6.24926935431209E-07
(PID.TID 0000.0001)  cg2d: iter=    74 ; resid.=  5.27229860118905E-07
(PID.TID 0000.0001)  cg2d: iter=    75 ; resid.=  3.95990663719195E-07
(PID.TID 0000.0001)  cg2d: iter=    76 ; resid.=  3.18785882786514E-07
(PID.TID 0000.0001)  cg2d: iter=    77 ; resid.=  2.56925351660183E-07
(PID.TID 0000.0001)  cg2d: iter=    78 ; resid.=  2.05002430608234E-07
(PID.TID 0000.0001)  cg2d: iter=    79 ; resid.=  1.68568950906908E-07
(PID.TID 0000.0001)  cg2d: iter=    80 ; resid.=  1.27538200313314E-07
(PID.TID 0000.0001)  cg2d: iter=    81 ; resid.=  1.06003209802726E-07
(PID.TID 0000.0001)  cg2d: iter=    82 ; resid.=  8.26846843681653E-08
(PID.TID 0000.0001)  cg2d: iter=    83 ; resid.=  6.13724020722627E-08
(PID.TID 0000.0001)  cg2d: iter=    84 ; resid.=  4.57362950775527E-08
(PID.TID 0000.0001)  cg2d: iter=    85 ; resid.=  3.39199623938436E-08
(PID.TID 0000.0001)  cg2d: iter=    86 ; resid.=  2.55880543582057E-08
(PID.TID 0000.0001)  cg2d: iter=    87 ; resid.=  1.82324085203165E-08
(PID.TID 0000.0001)  cg2d: iter=    88 ; resid.=  1.54465834618288E-08
(PID.TID 0000.0001)  cg2d: iter=    89 ; resid.=  1.41988217578835E-08
(PID.TID 0000.0001)  cg2d: iter=    90 ; resid.=  1.10719718711131E-08
(PID.TID 0000.0001)  cg2d: iter=    91 ; resid.=  9.17430336544874E-09
(PID.TID 0000.0001)  cg2d: iter=    92 ; resid.=  7.53769976161421E-09
(PID.TID 0000.0001)  cg2d: iter=    93 ; resid.=  5.86813296016648E-09
(PID.TID 0000.0001)  cg2d: iter=    94 ; resid.=  4.65773684914493E-09
(PID.TID 0000.0001)  cg2d: iter=    95 ; resid.=  4.17642754442362E-09
(PID.TID 0000.0001)  cg2d: iter=    96 ; resid.=  3.11054328950856E-09
(PID.TID 0000.0001)  cg2d: iter=    97 ; resid.=  2.47616850047975E-09
(PID.TID 0000.0001)  cg2d: iter=    98 ; resid.=  2.07995618688759E-09
(PID.TID 0000.0001)  cg2d: iter=    99 ; resid.=  1.83607711105447E-09
(PID.TID 0000.0001)  cg2d: iter=   100 ; resid.=  1.57061091460193E-09
(PID.TID 0000.0001)  cg2d: iter=   101 ; resid.=  1.16054140306958E-09
(PID.TID 0000.0001)  cg2d: iter=   102 ; resid.=  9.11073262824674E-10
(PID.TID 0000.0001)  cg2d: iter=   103 ; resid.=  6.83536610895635E-10
(PID.TID 0000.0001)  cg2d: iter=   104 ; resid.=  5.42079424692456E-10
(PID.TID 0000.0001)  cg2d: iter=   105 ; resid.=  4.33950036280416E-10
(PID.TID 0000.0001)  cg2d: iter=   106 ; resid.=  3.80031635185159E-10
(PID.TID 0000.0001)  cg2d: iter=   107 ; resid.=  3.04406387772158E-10
(PID.TID 0000.0001)  cg2d: iter=   108 ; resid.=  2.35532667994154E-10
(PID.TID 0000.0001)  cg2d: iter=   109 ; resid.=  1.82314958688190E-10
(PID.TID 0000.0001)  cg2d: iter=   110 ; resid.=  1.32158405358624E-10
(PID.TID 0000.0001)  cg2d: iter=   111 ; resid.=  1.01324346527085E-10
(PID.TID 0000.0001)  cg2d: iter=   112 ; resid.=  7.27854648234845E-11
(PID.TID 0000.0001)  cg2d: iter=   113 ; resid.=  5.15858681202535E-11
(PID.TID 0000.0001)  cg2d: iter=   114 ; resid.=  4.02290863507118E-11
(PID.TID 0000.0001)  cg2d: iter=   115 ; resid.=  2.79354922285522E-11
(PID.TID 0000.0001)  cg2d: iter=   116 ; resid.=  2.00874046205837E-11
(PID.TID 0000.0001)  cg2d: iter=   117 ; resid.=  1.57257194733873E-11
(PID.TID 0000.0001)  cg2d: iter=   118 ; resid.=  1.10341030485725E-11
(PID.TID 0000.0001)  cg2d: iter=   119 ; resid.=  9.43957805172110E-12
(PID.TID 0000.0001)  cg2d: iter=   120 ; resid.=  7.38712273140175E-12
(PID.TID 0000.0001)  cg2d: iter=   121 ; resid.=  5.49797527310696E-12
(PID.TID 0000.0001)  cg2d: iter=   122 ; resid.=  4.73014276344550E-12
(PID.TID 0000.0001)  cg2d: iter=   123 ; resid.=  3.84593011525986E-12
(PID.TID 0000.0001)  cg2d: iter=   124 ; resid.=  2.97843824831157E-12
(PID.TID 0000.0001)  cg2d: iter=   125 ; resid.=  2.28236732307774E-12
(PID.TID 0000.0001)  cg2d: iter=   126 ; resid.=  1.61953349797797E-12
(PID.TID 0000.0001)  cg2d: iter=   127 ; resid.=  1.03251760725399E-12
(PID.TID 0000.0001)  cg2d: iter=   128 ; resid.=  7.21431370607772E-13
(PID.TID 0000.0001)  cg2d: iter=   129 ; resid.=  5.33646606154973E-13
(PID.TID 0000.0001)  cg2d: iter=   130 ; resid.=  3.64143948162626E-13
(PID.TID 0000.0001)  cg2d: iter=   131 ; resid.=  2.42241826528211E-13
(PID.TID 0000.0001)  cg2d: iter=   132 ; resid.=  1.79542771426593E-13
(PID.TID 0000.0001)  cg2d: iter=   133 ; resid.=  1.51472075490183E-13
(PID.TID 0000.0001)  cg2d: iter=   134 ; resid.=  1.26813320332953E-13
(PID.TID 0000.0001)  cg2d: iter=   135 ; resid.=  9.74734157012794E-14
DEBUG_STATS_RL:    cg2d_x (SOLVE_FOR_PRESSURE)  min= -2.13009664061796E+01
DEBUG_STATS_RL:    cg2d_x (SOLVE_FOR_PRESSURE)  max=  1.20902702878432E+01
DEBUG_STATS_RL:    cg2d_x (SOLVE_FOR_PRESSURE) mean= -1.94688518051466E+00
DEBUG_STATS_RL:    cg2d_x (SOLVE_FOR_PRESSURE) S.D.=  8.52694711283889E+00
(PID.TID 0000.0001)      cg2d_init_res =   3.95050490360847E-01
(PID.TID 0000.0001)      cg2d_iters(min,last) =      -1     135
(PID.TID 0000.0001)      cg2d_last_res =   9.74734157012794E-14
(PID.TID 0000.0001) // =======================================================
(PID.TID 0000.0001) // Begin MONITOR dynamic field statistics
(PID.TID 0000.0001) // =======================================================
(PID.TID 0000.0001) %MON time_tsnumber                =                    47
(PID.TID 0000.0001) %MON time_secondsf                =   4.0608000000000E+06
(PID.TID 0000.0001) %MON dynstat_eta_max              =   1.2324434544182E+00
(PID.TID 0000.0001) %MON dynstat_eta_min              =  -2.1713523349827E+00
(PID.TID 0000.0001) %MON dynstat_eta_mean             =  -3.5503611299514E-03
(PID.TID 0000.0001) %MON dynstat_eta_sd               =   7.8467989595331E-01
(PID.TID 0000.0001) %MON dynstat_eta_del2             =   2.4075340030008E-03
(PID.TID 0000.0001) %MON dynstat_uvel_max             =   1.8057000547023E-01
(PID.TID 0000.0001) %MON dynstat_uvel_min             =  -1.6990158238833E-01
(PID.TID 0000.0001) %MON dynstat_uvel_mean            =  -7.8688143060956E-04
(PID.TID 0000.0001) %MON dynstat_uvel_sd              =   2.2175198079314E-02
(PID.TID 0000.0001) %MON dynstat_uvel_del2            =   1.2748558301766E-04
(PID.TID 0000.0001) %MON dynstat_vvel_max             =   1.4842762685682E-01
(PID.TID 0000.0001) %MON dynstat_vvel_min             =  -1.2387498823501E-01
(PID.TID 0000.0001) %MON dynstat_vvel_mean            =   2.9200730125849E-05
(PID.TID 0000.0001) %MON dynstat_vvel_sd              =   1.2348651267324E-02
(PID.TID 0000.0001) %MON dynstat_vvel_del2            =   1.0062440610368E-04
(PID.TID 0000.0001) %MON dynstat_wvel_max             =   1.4201392546444E-04
(PID.TID 0000.0001) %MON dynstat_wvel_min             =  -1.6922501800997E-04
(PID.TID 0000.0001) %MON dynstat_wvel_mean            =  -6.7388679431060E-23
(PID.TID 0000.0001) %MON dynstat_wvel_sd              =   2.0096488334537E-05
(PID.TID 0000.0001) %MON dynstat_wvel_del2            =   1.9640460947808E-07
(PID.TID 0000.0001) %MON dynstat_theta_max            =   3.0378955051306E+01
(PID.TID 0000.0001) %MON dynstat_theta_min            =  -1.9910879862141E+00
(PID.TID 0000.0001) %MON dynstat_theta_mean           =   3.6521371625417E+00
(PID.TID 0000.0001) %MON dynstat_theta_sd             =   4.4205241104017E+00
(PID.TID 0000.0001) %MON dynstat_theta_del2           =   4.7897659498210E-03
(PID.TID 0000.0001) %MON dynstat_salt_max             =   3.7491118539871E+01
(PID.TID 0000.0001) %MON dynstat_salt_min             =   2.9860943142994E+01
(PID.TID 0000.0001) %MON dynstat_salt_mean            =   3.4748026016788E+01
(PID.TID 0000.0001) %MON dynstat_salt_sd              =   2.9643192514164E-01
(PID.TID 0000.0001) %MON dynstat_salt_del2            =   9.8789288801324E-04
(PID.TID 0000.0001) %MON dynstat_sst_max              =   3.0378955051306E+01
(PID.TID 0000.0001) %MON dynstat_sst_min              =  -1.9910879862141E+00
(PID.TID 0000.0001) %MON dynstat_sst_mean             =   1.8931351601302E+01
(PID.TID 0000.0001) %MON dynstat_sst_sd               =   9.0157502781282E+00
(PID.TID 0000.0001) %MON dynstat_sst_del2             =   2.7404847014126E-02
(PID.TID 0000.0001) %MON dynstat_sss_max              =   3.7459290183848E+01
(PID.TID 0000.0001) %MON dynstat_sss_min              =   2.9860943142994E+01
(PID.TID 0000.0001) %MON dynstat_sss_mean             =   3.4874516851320E+01
(PID.TID 0000.0001) %MON dynstat_sss_sd               =   9.7762100291960E-01
(PID.TID 0000.0001) %MON dynstat_sss_del2             =   7.8979009415850E-03
(PID.TID 0000.0001) %MON forcing_qnet_max             =   3.5565408833822E+02
(PID.TID 0000.0001) %MON forcing_qnet_min             =  -1.7253468983968E+02
(PID.TID 0000.0001) %MON forcing_qnet_mean            =  -1.3741911479317E+01
(PID.TID 0000.0001) %MON forcing_qnet_sd              =   7.8173808417116E+01
(PID.TID 0000.0001) %MON forcing_qnet_del2            =   9.4361086901404E-01
(PID.TID 0000.0001) %MON forcing_qsw_max              =   0.0000000000000E+00
(PID.TID 0000.0001) %MON forcing_qsw_min              =   0.0000000000000E+00
(PID.TID 0000.0001) %MON forcing_qsw_mean             =   0.0000000000000E+00
(PID.TID 0000.0001) %MON forcing_qsw_sd               =   0.0000000000000E+00
(PID.TID 0000.0001) %MON forcing_qsw_del2             =   0.0000000000000E+00
(PID.TID 0000.0001) %MON forcing_empmr_max            =   7.1917854664131E-05
(PID.TID 0000.0001) %MON forcing_empmr_min            =  -7.7443707032406E-05
(PID.TID 0000.0001) %MON forcing_empmr_mean           =   9.3031904903503E-07
(PID.TID 0000.0001) %MON forcing_empmr_sd             =   2.7892298564578E-05
(PID.TID 0000.0001) %MON forcing_empmr_del2           =   3.5549806318694E-07
(PID.TID 0000.0001) %MON forcing_fu_max               =   3.0595987737179E-01
(PID.TID 0000.0001) %MON forcing_fu_min               =  -2.2111698041360E-01
(PID.TID 0000.0001) %MON forcing_fu_mean              =   1.7724941206094E-02
(PID.TID 0000.0001) %MON forcing_fu_sd                =   9.3018818826085E-02
(PID.TID 0000.0001) %MON forcing_fu_del2              =   7.3973840042027E-04
(PID.TID 0000.0001) %MON forcing_fv_max               =   1.9589827271799E-01
(PID.TID 0000.0001) %MON forcing_fv_min               =  -1.9819321930408E-01
(PID.TID 0000.0001) %MON forcing_fv_mean              =  -7.2271532909298E-03
(PID.TID 0000.0001) %MON forcing_fv_sd                =   4.4730626914368E-02
(PID.TID 0000.0001) %MON forcing_fv_del2              =   5.3371170048375E-04
(PID.TID 0000.0001) %MON trAdv_CFL_u_max              =   4.6316382094199E-02
(PID.TID 0000.0001) %MON trAdv_CFL_v_max              =   3.1447723251685E-02
(PID.TID 0000.0001) %MON trAdv_CFL_w_max              =   8.2174763392510E-02
(PID.TID 0000.0001) %MON advcfl_uvel_max              =   4.7207293740644E-02
(PID.TID 0000.0001) %MON advcfl_vvel_max              =   2.8837107405342E-02
(PID.TID 0000.0001) %MON advcfl_wvel_max              =   7.2357406944812E-02
(PID.TID 0000.0001) %MON advcfl_W_hf_max              =   8.5278372470672E-02
(PID.TID 0000.0001) %MON pe_b_mean                    =   7.8790733327500E-04
(PID.TID 0000.0001) %MON ke_max                       =   1.7866630203454E-02
(PID.TID 0000.0001) %MON ke_mean                      =   2.9214542323732E-04
(PID.TID 0000.0001) %MON ke_vol                       =   1.3226782436723E+18
(PID.TID 0000.0001) %MON vort_r_min                   =  -5.3451362128956E-07
(PID.TID 0000.0001) %MON vort_r_max                   =   5.2189969383487E-07
(PID.TID 0000.0001) %MON vort_a_mean                  =  -2.5274806171762E-05
(PID.TID 0000.0001) %MON vort_a_sd                    =   7.3604150664390E-05
(PID.TID 0000.0001) %MON vort_p_mean                  =  -3.1845654255133E-05
(PID.TID 0000.0001) %MON vort_p_sd                    =   1.3162309593484E-04
(PID.TID 0000.0001) %MON surfExpan_theta_mean         =  -1.8011313660519E-07
(PID.TID 0000.0001) %MON surfExpan_salt_mean          =   2.9882415658469E-07
(PID.TID 0000.0001) // =======================================================
(PID.TID 0000.0001) // End MONITOR dynamic field statistics
(PID.TID 0000.0001) // =======================================================
 EXTERNAL_FIELDS_LOAD,        47 : iP,iLd,i0,i1=    2    3    2    3 ; Wght=  0.9333333333  0.0666666667
 EXTERNAL_FIELDS_LOAD: (fu0,1),fu,fv= -1.4435E-02 -2.7199E-02 -1.5286E-02 -1.6498E-02
 EXTERNAL_FIELDS_LOAD: SST,SSS,Q,E-P= -5.0866E-01  3.4432E+01  2.3881E+02  8.4241E-06
DEBUG_STATS_RL:          Uvel (THERMODYNAMICS)  min= -1.69901582388330E-01
DEBUG_STATS_RL:          Uvel (THERMODYNAMICS)  max=  1.80570005470227E-01
DEBUG_STATS_RL:          Uvel (THERMODYNAMICS) mean=  1.50843252943622E-03
DEBUG_STATS_RL:          Uvel (THERMODYNAMICS) S.D.=  2.85049777445255E-02
DEBUG_STATS_RL:          Vvel (THERMODYNAMICS)  min= -1.23874988235008E-01
DEBUG_STATS_RL:          Vvel (THERMODYNAMICS)  max=  1.48427626856817E-01
DEBUG_STATS_RL:          Vvel (THERMODYNAMICS) mean=  1.42247783731976E-03
DEBUG_STATS_RL:          Vvel (THERMODYNAMICS) S.D.=  1.74235837877719E-02
DEBUG_STATS_RL:          Wvel (THERMODYNAMICS)  min= -1.69225018009965E-04
DEBUG_STATS_RL:          Wvel (THERMODYNAMICS)  max=  1.42013925464436E-04
DEBUG_STATS_RL:          Wvel (THERMODYNAMICS) mean= -5.30906743157651E-08
DEBUG_STATS_RL:          Wvel (THERMODYNAMICS) S.D.=  1.74407686989917E-05
DEBUG_STATS_RL:         Theta (THERMODYNAMICS)  min= -1.98906273675283E+00
DEBUG_STATS_RL:         Theta (THERMODYNAMICS)  max=  3.03930808735741E+01
DEBUG_STATS_RL:         Theta (THERMODYNAMICS) mean=  3.24686391800253E+00
DEBUG_STATS_RL:         Theta (THERMODYNAMICS) S.D.=  5.86938120848277E+00
DEBUG_STATS_RL:          Salt (THERMODYNAMICS)  min=  3.00000000000000E-02
DEBUG_STATS_RL:          Salt (THERMODYNAMICS)  max=  3.74916003245165E+01
DEBUG_STATS_RL:          Salt (THERMODYNAMICS) mean=  1.88749443142428E+01
DEBUG_STATS_RL:          Salt (THERMODYNAMICS) S.D.=  1.73004609291342E+01
DEBUG_STATS_RL:         GtNm1 (THERMODYNAMICS)  min= -4.84803134473142E-06
DEBUG_STATS_RL:         GtNm1 (THERMODYNAMICS)  max=  3.30104841883942E-06
DEBUG_STATS_RL:         GtNm1 (THERMODYNAMICS) mean=  7.63524122241610E-09
DEBUG_STATS_RL:         GtNm1 (THERMODYNAMICS) S.D.=  2.11124210918215E-07
DEBUG_STATS_RL:         GsNm1 (THERMODYNAMICS)  min= -4.51316789396535E-07
DEBUG_STATS_RL:         GsNm1 (THERMODYNAMICS)  max=  3.02775490322918E-07
DEBUG_STATS_RL:         GsNm1 (THERMODYNAMICS) mean=  5.54519641496570E-11
DEBUG_STATS_RL:         GsNm1 (THERMODYNAMICS) S.D.=  1.99797930503166E-08
DEBUG_STATS_RL:                EtaN (DYNAMICS)  min= -2.17135233498267E+00
DEBUG_STATS_RL:                EtaN (DYNAMICS)  max=  1.23244345441820E+00
DEBUG_STATS_RL:                EtaN (DYNAMICS) mean= -1.98459243681413E-01
DEBUG_STATS_RL:                EtaN (DYNAMICS) S.D.=  8.69209695498364E-01
DEBUG_STATS_RL:                Uvel (DYNAMICS)  min= -1.69901582388330E-01
DEBUG_STATS_RL:                Uvel (DYNAMICS)  max=  1.80570005470227E-01
DEBUG_STATS_RL:                Uvel (DYNAMICS) mean=  1.50843252943622E-03
DEBUG_STATS_RL:                Uvel (DYNAMICS) S.D.=  2.85049777445255E-02
DEBUG_STATS_RL:                Vvel (DYNAMICS)  min= -1.23874988235008E-01
DEBUG_STATS_RL:                Vvel (DYNAMICS)  max=  1.48427626856817E-01
DEBUG_STATS_RL:                Vvel (DYNAMICS) mean=  1.42247783731976E-03
DEBUG_STATS_RL:                Vvel (DYNAMICS) S.D.=  1.74235837877719E-02
DEBUG_STATS_RL:                Wvel (DYNAMICS)  min= -1.69225018009965E-04
DEBUG_STATS_RL:                Wvel (DYNAMICS)  max=  1.42013925464436E-04
DEBUG_STATS_RL:                Wvel (DYNAMICS) mean= -5.30906743157651E-08
DEBUG_STATS_RL:                Wvel (DYNAMICS) S.D.=  1.74407686989917E-05
DEBUG_STATS_RL:               Theta (DYNAMICS)  min= -1.98906273675283E+00
DEBUG_STATS_RL:               Theta (DYNAMICS)  max=  3.03930808735741E+01
DEBUG_STATS_RL:               Theta (DYNAMICS) mean=  3.24686391800253E+00
DEBUG_STATS_RL:               Theta (DYNAMICS) S.D.=  5.86938120848277E+00
DEBUG_STATS_RL:                Salt (DYNAMICS)  min=  3.00000000000000E-02
DEBUG_STATS_RL:                Salt (DYNAMICS)  max=  3.74916003245165E+01
DEBUG_STATS_RL:                Salt (DYNAMICS) mean=  1.88749443142428E+01
DEBUG_STATS_RL:                Salt (DYNAMICS) S.D.=  1.73004609291342E+01
DEBUG_STATS_RL:                  Gu (DYNAMICS)  min= -1.68206056814949E-01
DEBUG_STATS_RL:                  Gu (DYNAMICS)  max=  1.87790125284786E-01
DEBUG_STATS_RL:                  Gu (DYNAMICS) mean=  1.49097715407660E-03
DEBUG_STATS_RL:                  Gu (DYNAMICS) S.D.=  2.84907240333498E-02
DEBUG_STATS_RL:                  Gv (DYNAMICS)  min= -1.22694051033080E-01
DEBUG_STATS_RL:                  Gv (DYNAMICS)  max=  1.31341156670169E-01
DEBUG_STATS_RL:                  Gv (DYNAMICS) mean=  3.39591763381199E-03
DEBUG_STATS_RL:                  Gv (DYNAMICS) S.D.=  1.83594665411195E-02
DEBUG_STATS_RL:               GuNm1 (DYNAMICS)  min= -9.80643210929021E-06
DEBUG_STATS_RL:               GuNm1 (DYNAMICS)  max=  8.81803380430912E-06
DEBUG_STATS_RL:               GuNm1 (DYNAMICS) mean= -2.16413125477069E-10
DEBUG_STATS_RL:               GuNm1 (DYNAMICS) S.D.=  1.19355537210333E-06
DEBUG_STATS_RL:               GvNm1 (DYNAMICS)  min= -9.50551450473493E-06
DEBUG_STATS_RL:               GvNm1 (DYNAMICS)  max=  1.64941229004951E-05
DEBUG_STATS_RL:               GvNm1 (DYNAMICS) mean=  7.41178161476396E-07
DEBUG_STATS_RL:               GvNm1 (DYNAMICS) S.D.=  2.60672643926005E-06
DEBUG_STATS_RL:               GtNm1 (DYNAMICS)  min= -4.84803134473142E-06
DEBUG_STATS_RL:               GtNm1 (DYNAMICS)  max=  3.30104841883942E-06
DEBUG_STATS_RL:               GtNm1 (DYNAMICS) mean=  7.63524122241610E-09
DEBUG_STATS_RL:               GtNm1 (DYNAMICS) S.D.=  2.11124210918215E-07
DEBUG_STATS_RL:               GsNm1 (DYNAMICS)  min= -4.51316789396535E-07
DEBUG_STATS_RL:               GsNm1 (DYNAMICS)  max=  3.02775490322918E-07
DEBUG_STATS_RL:               GsNm1 (DYNAMICS) mean=  5.54519641496570E-11
DEBUG_STATS_RL:               GsNm1 (DYNAMICS) S.D.=  1.99797930503166E-08
DEBUG_STATS_RL:    cg2d_b (SOLVE_FOR_PRESSURE)  min= -2.89652121145308E+04
DEBUG_STATS_RL:    cg2d_b (SOLVE_FOR_PRESSURE)  max=  1.77344544952925E+04
DEBUG_STATS_RL:    cg2d_b (SOLVE_FOR_PRESSURE) mean=  3.47614839456216E+00
DEBUG_STATS_RL:    cg2d_b (SOLVE_FOR_PRESSURE) S.D.=  3.89171454974942E+03
 cg2d: Sum(rhs),rhsMax =   2.77825810547897E-01  1.90251268388604E+00
(PID.TID 0000.0001)  cg2d: iter=     1 ; resid.=  2.72305915110741E-01
(PID.TID 0000.0001)  cg2d: iter=     2 ; resid.=  2.62468441519046E-01
(PID.TID 0000.0001)  cg2d: iter=     3 ; resid.=  2.45710913028078E-01
(PID.TID 0000.0001)  cg2d: iter=     4 ; resid.=  2.09718494618891E-01
(PID.TID 0000.0001)  cg2d: iter=     5 ; resid.=  1.97227144341538E-01
(PID.TID 0000.0001)  cg2d: iter=     6 ; resid.=  1.78891424120346E-01
(PID.TID 0000.0001)  cg2d: iter=     7 ; resid.=  1.44675192325421E-01
(PID.TID 0000.0001)  cg2d: iter=     8 ; resid.=  1.12210297052665E-01
(PID.TID 0000.0001)  cg2d: iter=     9 ; resid.=  8.88393985364113E-02
(PID.TID 0000.0001)  cg2d: iter=    10 ; resid.=  7.54715939626979E-02
(PID.TID 0000.0001)  cg2d: iter=    11 ; resid.=  6.42101191492782E-02
(PID.TID 0000.0001)  cg2d: iter=    12 ; resid.=  5.41057347955633E-02
(PID.TID 0000.0001)  cg2d: iter=    13 ; resid.=  4.17993730231013E-02
(PID.TID 0000.0001)  cg2d: iter=    14 ; resid.=  3.32200161354801E-02
(PID.TID 0000.0001)  cg2d: iter=    15 ; resid.=  2.70640138139204E-02
(PID.TID 0000.0001)  cg2d: iter=    16 ; resid.=  2.45040229042737E-02
(PID.TID 0000.0001)  cg2d: iter=    17 ; resid.=  2.13312767077020E-02
(PID.TID 0000.0001)  cg2d: iter=    18 ; resid.=  1.76209384413820E-02
(PID.TID 0000.0001)  cg2d: iter=    19 ; resid.=  1.45629659160830E-02
(PID.TID 0000.0001)  cg2d: iter=    20 ; resid.=  1.23269302168111E-02
(PID.TID 0000.0001)  cg2d: iter=    21 ; resid.=  1.06013578508202E-02
(PID.TID 0000.0001)  cg2d: iter=    22 ; resid.=  9.10235784352984E-03
(PID.TID 0000.0001)  cg2d: iter=    23 ; resid.=  7.36834736287804E-03
(PID.TID 0000.0001)  cg2d: iter=    24 ; resid.=  5.93550715033949E-03
(PID.TID 0000.0001)  cg2d: iter=    25 ; resid.=  4.58621182635371E-03
(PID.TID 0000.0001)  cg2d: iter=    26 ; resid.=  3.72578015350813E-03
(PID.TID 0000.0001)  cg2d: iter=    27 ; resid.=  3.18162770239965E-03
(PID.TID 0000.0001)  cg2d: iter=    28 ; resid.=  2.55720424603284E-03
(PID.TID 0000.0001)  cg2d: iter=    29 ; resid.=  2.00318393448922E-03
(PID.TID 0000.0001)  cg2d: iter=    30 ; resid.=  1.73103669967402E-03
(PID.TID 0000.0001)  cg2d: iter=    31 ; resid.=  1.39521153620476E-03
(PID.TID 0000.0001)  cg2d: iter=    32 ; resid.=  1.03365007385069E-03
(PID.TID 0000.0001)  cg2d: iter=    33 ; resid.=  8.21380577307256E-04
(PID.TID 0000.0001)  cg2d: iter=    34 ; resid.=  7.07572947346513E-04
(PID.TID 0000.0001)  cg2d: iter=    35 ; resid.=  5.82973562394354E-04
(PID.TID 0000.0001)  cg2d: iter=    36 ; resid.=  5.05099331415260E-04
(PID.TID 0000.0001)  cg2d: iter=    37 ; resid.=  4.15202560025333E-04
(PID.TID 0000.0001)  cg2d: iter=    38 ; resid.=  3.44544800495153E-04
(PID.TID 0000.0001)  cg2d: iter=    39 ; resid.=  2.82735682717044E-04
(PID.TID 0000.0001)  cg2d: iter=    40 ; resid.=  2.39192357188397E-04
(PID.TID 0000.0001)  cg2d: iter=    41 ; resid.=  2.05728148670218E-04
(PID.TID 0000.0001)  cg2d: iter=    42 ; resid.=  1.79997611425211E-04
(PID.TID 0000.0001)  cg2d: iter=    43 ; resid.=  1.54354122432273E-04
(PID.TID 0000.0001)  cg2d: iter=    44 ; resid.=  1.26078408074857E-04
(PID.TID 0000.0001)  cg2d: iter=    45 ; resid.=  1.05284422093853E-04
(PID.TID 0000.0001)  cg2d: iter=    46 ; resid.=  8.20308384000264E-05
(PID.TID 0000.0001)  cg2d: iter=    47 ; resid.=  7.10381583820875E-05
(PID.TID 0000.0001)  cg2d: iter=    48 ; resid.=  5.64878234562151E-05
(PID.TID 0000.0001)  cg2d: iter=    49 ; resid.=  4.83248558848982E-05
(PID.TID 0000.0001)  cg2d: iter=    50 ; resid.=  3.90499669235041E-05
(PID.TID 0000.0001)  cg2d: iter=    51 ; resid.=  3.40234223604163E-05
(PID.TID 0000.0001)  cg2d: iter=    52 ; resid.=  3.00777492320032E-05
(PID.TID 0000.0001)  cg2d: iter=    53 ; resid.=  2.59072366621093E-05
(PID.TID 0000.0001)  cg2d: iter=    54 ; resid.=  2.28011214060513E-05
(PID.TID 0000.0001)  cg2d: iter=    55 ; resid.=  2.12920469706593E-05
(PID.TID 0000.0001)  cg2d: iter=    56 ; resid.=  1.84579485780243E-05
(PID.TID 0000.0001)  cg2d: iter=    57 ; resid.=  1.49471104733040E-05
(PID.TID 0000.0001)  cg2d: iter=    58 ; resid.=  1.20091261665085E-05
(PID.TID 0000.0001)  cg2d: iter=    59 ; resid.=  8.88649467588369E-06
(PID.TID 0000.0001)  cg2d: iter=    60 ; resid.=  6.92942807334549E-06
(PID.TID 0000.0001)  cg2d: iter=    61 ; resid.=  5.67608328910372E-06
(PID.TID 0000.0001)  cg2d: iter=    62 ; resid.=  4.79856432602576E-06
(PID.TID 0000.0001)  cg2d: iter=    63 ; resid.=  3.83987444467388E-06
(PID.TID 0000.0001)  cg2d: iter=    64 ; resid.=  3.07447462501254E-06
(PID.TID 0000.0001)  cg2d: iter=    65 ; resid.=  2.46423208634321E-06
(PID.TID 0000.0001)  cg2d: iter=    66 ; resid.=  2.01447422466614E-06
(PID.TID 0000.0001)  cg2d: iter=    67 ; resid.=  1.87750749031711E-06
(PID.TID 0000.0001)  cg2d: iter=    68 ; resid.=  1.70048549060402E-06
(PID.TID 0000.0001)  cg2d: iter=    69 ; resid.=  1.40599020678938E-06
(PID.TID 0000.0001)  cg2d: iter=    70 ; resid.=  1.22336062286228E-06
(PID.TID 0000.0001)  cg2d: iter=    71 ; resid.=  1.00822333683646E-06
(PID.TID 0000.0001)  cg2d: iter=    72 ; resid.=  8.34644013861037E-07
(PID.TID 0000.0001)  cg2d: iter=    73 ; resid.=  7.19701270830872E-07
(PID.TID 0000.0001)  cg2d: iter=    74 ; resid.=  6.08565218535045E-07
(PID.TID 0000.0001)  cg2d: iter=    75 ; resid.=  4.62296857521435E-07
(PID.TID 0000.0001)  cg2d: iter=    76 ; resid.=  3.83684632443993E-07
(PID.TID 0000.0001)  cg2d: iter=    77 ; resid.=  3.16921351041786E-07
(PID.TID 0000.0001)  cg2d: iter=    78 ; resid.=  2.49340698411033E-07
(PID.TID 0000.0001)  cg2d: iter=    79 ; resid.=  2.03240516610337E-07
(PID.TID 0000.0001)  cg2d: iter=    80 ; resid.=  1.52788193925705E-07
(PID.TID 0000.0001)  cg2d: iter=    81 ; resid.=  1.24569537527825E-07
(PID.TID 0000.0001)  cg2d: iter=    82 ; resid.=  9.63228103841133E-08
(PID.TID 0000.0001)  cg2d: iter=    83 ; resid.=  6.99327231678597E-08
(PID.TID 0000.0001)  cg2d: iter=    84 ; resid.=  5.15550947426408E-08
(PID.TID 0000.0001)  cg2d: iter=    85 ; resid.=  3.85106135435909E-08
(PID.TID 0000.0001)  cg2d: iter=    86 ; resid.=  2.90951693399312E-08
(PID.TID 0000.0001)  cg2d: iter=    87 ; resid.=  2.16395459261504E-08
(PID.TID 0000.0001)  cg2d: iter=    88 ; resid.=  1.85597989830594E-08
(PID.TID 0000.0001)  cg2d: iter=    89 ; resid.=  1.69147856876253E-08
(PID.TID 0000.0001)  cg2d: iter=    90 ; resid.=  1.28608485932860E-08
(PID.TID 0000.0001)  cg2d: iter=    91 ; resid.=  1.04170868728464E-08
(PID.TID 0000.0001)  cg2d: iter=    92 ; resid.=  8.31926446657322E-09
(PID.TID 0000.0001)  cg2d: iter=    93 ; resid.=  6.35329921483260E-09
(PID.TID 0000.0001)  cg2d: iter=    94 ; resid.=  4.90327859402434E-09
(PID.TID 0000.0001)  cg2d: iter=    95 ; resid.=  4.21871338023275E-09
(PID.TID 0000.0001)  cg2d: iter=    96 ; resid.=  3.09717496026224E-09
(PID.TID 0000.0001)  cg2d: iter=    97 ; resid.=  2.50280553009866E-09
(PID.TID 0000.0001)  cg2d: iter=    98 ; resid.=  2.13389446994299E-09
(PID.TID 0000.0001)  cg2d: iter=    99 ; resid.=  1.89886713940165E-09
(PID.TID 0000.0001)  cg2d: iter=   100 ; resid.=  1.66539837131626E-09
(PID.TID 0000.0001)  cg2d: iter=   101 ; resid.=  1.26645406660479E-09
(PID.TID 0000.0001)  cg2d: iter=   102 ; resid.=  1.05261173307511E-09
(PID.TID 0000.0001)  cg2d: iter=   103 ; resid.=  8.20606248893871E-10
(PID.TID 0000.0001)  cg2d: iter=   104 ; resid.=  6.60682062751609E-10
(PID.TID 0000.0001)  cg2d: iter=   105 ; resid.=  5.32023392685555E-10
(PID.TID 0000.0001)  cg2d: iter=   106 ; resid.=  4.60878217387450E-10
(PID.TID 0000.0001)  cg2d: iter=   107 ; resid.=  3.56732320265801E-10
(PID.TID 0000.0001)  cg2d: iter=   108 ; resid.=  2.62447178597619E-10
(PID.TID 0000.0001)  cg2d: iter=   109 ; resid.=  1.98411398835088E-10
(PID.TID 0000.0001)  cg2d: iter=   110 ; resid.=  1.44681571111303E-10
(PID.TID 0000.0001)  cg2d: iter=   111 ; resid.=  1.08595415528740E-10
(PID.TID 0000.0001)  cg2d: iter=   112 ; resid.=  7.73246171726481E-11
(PID.TID 0000.0001)  cg2d: iter=   113 ; resid.=  5.49232925812642E-11
(PID.TID 0000.0001)  cg2d: iter=   114 ; resid.=  4.32897884875486E-11
(PID.TID 0000.0001)  cg2d: iter=   115 ; resid.=  3.08691773941010E-11
(PID.TID 0000.0001)  cg2d: iter=   116 ; resid.=  2.26291253951935E-11
(PID.TID 0000.0001)  cg2d: iter=   117 ; resid.=  1.80645290626986E-11
(PID.TID 0000.0001)  cg2d: iter=   118 ; resid.=  1.32806144875197E-11
(PID.TID 0000.0001)  cg2d: iter=   119 ; resid.=  1.13461743857783E-11
(PID.TID 0000.0001)  cg2d: iter=   120 ; resid.=  9.07151719958565E-12
(PID.TID 0000.0001)  cg2d: iter=   121 ; resid.=  6.93954786731034E-12
(PID.TID 0000.0001)  cg2d: iter=   122 ; resid.=  5.98789291996326E-12
(PID.TID 0000.0001)  cg2d: iter=   123 ; resid.=  4.63947273814656E-12
(PID.TID 0000.0001)  cg2d: iter=   124 ; resid.=  3.49437908223219E-12
(PID.TID 0000.0001)  cg2d: iter=   125 ; resid.=  2.58876928975144E-12
(PID.TID 0000.0001)  cg2d: iter=   126 ; resid.=  1.75770976113502E-12
(PID.TID 0000.0001)  cg2d: iter=   127 ; resid.=  1.11093600460848E-12
(PID.TID 0000.0001)  cg2d: iter=   128 ; resid.=  7.79259643837956E-13
(PID.TID 0000.0001)  cg2d: iter=   129 ; resid.=  5.46788542613582E-13
(PID.TID 0000.0001)  cg2d: iter=   130 ; resid.=  3.50266301408272E-13
(PID.TID 0000.0001)  cg2d: iter=   131 ; resid.=  2.16409177625781E-13
(PID.TID 0000.0001)  cg2d: iter=   132 ; resid.=  1.45625638280760E-13
(PID.TID 0000.0001)  cg2d: iter=   133 ; resid.=  1.11372447366019E-13
(PID.TID 0000.0001)  cg2d: iter=   134 ; resid.=  8.73035883058456E-14
DEBUG_STATS_RL:    cg2d_x (SOLVE_FOR_PRESSURE)  min= -2.05910308686884E+01
DEBUG_STATS_RL:    cg2d_x (SOLVE_FOR_PRESSURE)  max=  1.14536521964058E+01
DEBUG_STATS_RL:    cg2d_x (SOLVE_FOR_PRESSURE) mean= -1.92320777104616E+00
DEBUG_STATS_RL:    cg2d_x (SOLVE_FOR_PRESSURE) S.D.=  8.13534338278843E+00
(PID.TID 0000.0001)      cg2d_init_res =   4.07628309365469E-01
(PID.TID 0000.0001)      cg2d_iters(min,last) =      -1     134
(PID.TID 0000.0001)      cg2d_last_res =   8.73035883058456E-14
(PID.TID 0000.0001) // =======================================================
(PID.TID 0000.0001) // Begin MONITOR dynamic field statistics
(PID.TID 0000.0001) // =======================================================
(PID.TID 0000.0001) %MON time_tsnumber                =                    48
(PID.TID 0000.0001) %MON time_secondsf                =   4.1472000000000E+06
(PID.TID 0000.0001) %MON dynstat_eta_max              =   1.1675486438742E+00
(PID.TID 0000.0001) %MON dynstat_eta_min              =  -2.0989837786630E+00
(PID.TID 0000.0001) %MON dynstat_eta_mean             =  -3.6269298215542E-03
(PID.TID 0000.0001) %MON dynstat_eta_sd               =   7.4212550873203E-01
(PID.TID 0000.0001) %MON dynstat_eta_del2             =   2.4128575925565E-03
(PID.TID 0000.0001) %MON dynstat_uvel_max             =   1.8188830154224E-01
(PID.TID 0000.0001) %MON dynstat_uvel_min             =  -1.6806275345581E-01
(PID.TID 0000.0001) %MON dynstat_uvel_mean            =  -8.0203010713183E-04
(PID.TID 0000.0001) %MON dynstat_uvel_sd              =   2.1981967770309E-02
(PID.TID 0000.0001) %MON dynstat_uvel_del2            =   1.2815649512779E-04
(PID.TID 0000.0001) %MON dynstat_vvel_max             =   1.3703889855488E-01
(PID.TID 0000.0001) %MON dynstat_vvel_min             =  -1.2234884438299E-01
(PID.TID 0000.0001) %MON dynstat_vvel_mean            =   4.0936078900151E-05
(PID.TID 0000.0001) %MON dynstat_vvel_sd              =   1.2286773535803E-02
(PID.TID 0000.0001) %MON dynstat_vvel_del2            =   1.0023200139621E-04
(PID.TID 0000.0001) %MON dynstat_wvel_max             =   1.4135449203732E-04
(PID.TID 0000.0001) %MON dynstat_wvel_min             =  -1.7129165949819E-04
(PID.TID 0000.0001) %MON dynstat_wvel_mean            =  -2.8409672683223E-22
(PID.TID 0000.0001) %MON dynstat_wvel_sd              =   1.9941111594707E-05
(PID.TID 0000.0001) %MON dynstat_wvel_del2            =   1.9509123532095E-07
(PID.TID 0000.0001) %MON dynstat_theta_max            =   3.0393080873574E+01
(PID.TID 0000.0001) %MON dynstat_theta_min            =  -1.9890627367528E+00
(PID.TID 0000.0001) %MON dynstat_theta_mean           =   3.6522188445681E+00
(PID.TID 0000.0001) %MON dynstat_theta_sd             =   4.4207947247092E+00
(PID.TID 0000.0001) %MON dynstat_theta_del2           =   4.7991693290111E-03
(PID.TID 0000.0001) %MON dynstat_salt_max             =   3.7491600324517E+01
(PID.TID 0000.0001) %MON dynstat_salt_min             =   2.9863214428539E+01
(PID.TID 0000.0001) %MON dynstat_salt_mean            =   3.4748019482408E+01
(PID.TID 0000.0001) %MON dynstat_salt_sd              =   2.9642708292652E-01
(PID.TID 0000.0001) %MON dynstat_salt_del2            =   9.8812208705416E-04
(PID.TID 0000.0001) %MON dynstat_sst_max              =   3.0393080873574E+01
(PID.TID 0000.0001) %MON dynstat_sst_min              =  -1.9890627367528E+00
(PID.TID 0000.0001) %MON dynstat_sst_mean             =   1.8939666022709E+01
(PID.TID 0000.0001) %MON dynstat_sst_sd               =   9.0181916600880E+00
(PID.TID 0000.0001) %MON dynstat_sst_del2             =   2.7435406110890E-02
(PID.TID 0000.0001) %MON dynstat_sss_max              =   3.7459229325757E+01
(PID.TID 0000.0001) %MON dynstat_sss_min              =   2.9863214428539E+01
(PID.TID 0000.0001) %MON dynstat_sss_mean             =   3.4874372358805E+01
(PID.TID 0000.0001) %MON dynstat_sss_sd               =   9.7775373931345E-01
(PID.TID 0000.0001) %MON dynstat_sss_del2             =   7.9003286640949E-03
(PID.TID 0000.0001) %MON forcing_qnet_max             =   3.5285593668620E+02
(PID.TID 0000.0001) %MON forcing_qnet_min             =  -1.7223541056315E+02
(PID.TID 0000.0001) %MON forcing_qnet_mean            =  -1.3518571979690E+01
(PID.TID 0000.0001) %MON forcing_qnet_sd              =   7.6758869987334E+01
(PID.TID 0000.0001) %MON forcing_qnet_del2            =   9.3812538915250E-01
(PID.TID 0000.0001) %MON forcing_qsw_max              =   0.0000000000000E+00
(PID.TID 0000.0001) %MON forcing_qsw_min              =   0.0000000000000E+00
(PID.TID 0000.0001) %MON forcing_qsw_mean             =   0.0000000000000E+00
(PID.TID 0000.0001) %MON forcing_qsw_sd               =   0.0000000000000E+00
(PID.TID 0000.0001) %MON forcing_qsw_del2             =   0.0000000000000E+00
(PID.TID 0000.0001) %MON forcing_empmr_max            =   7.1084162319342E-05
(PID.TID 0000.0001) %MON forcing_empmr_min            =  -7.6342130010213E-05
(PID.TID 0000.0001) %MON forcing_empmr_mean           =   9.1722911816067E-07
(PID.TID 0000.0001) %MON forcing_empmr_sd             =   2.7805085834175E-05
(PID.TID 0000.0001) %MON forcing_empmr_del2           =   3.5498793147611E-07
(PID.TID 0000.0001) %MON forcing_fu_max               =   3.0728422999382E-01
(PID.TID 0000.0001) %MON forcing_fu_min               =  -2.2650160988172E-01
(PID.TID 0000.0001) %MON forcing_fu_mean              =   1.7819140795553E-02
(PID.TID 0000.0001) %MON forcing_fu_sd                =   9.3044945573839E-02
(PID.TID 0000.0001) %MON forcing_fu_del2              =   7.3292093358534E-04
(PID.TID 0000.0001) %MON forcing_fv_max               =   1.9021158044537E-01
(PID.TID 0000.0001) %MON forcing_fv_min               =  -1.9670718312263E-01
(PID.TID 0000.0001) %MON forcing_fv_mean              =  -7.2375816408993E-03
(PID.TID 0000.0001) %MON forcing_fv_sd                =   4.4424183443592E-02
(PID.TID 0000.0001) %MON forcing_fv_del2              =   5.2624207752019E-04
(PID.TID 0000.0001) %MON trAdv_CFL_u_max              =   4.7216881879635E-02
(PID.TID 0000.0001) %MON trAdv_CFL_v_max              =   3.1601577203192E-02
(PID.TID 0000.0001) %MON trAdv_CFL_w_max              =   8.5278372470672E-02
(PID.TID 0000.0001) %MON advcfl_uvel_max              =   4.7551942287042E-02
(PID.TID 0000.0001) %MON advcfl_vvel_max              =   2.6624460149518E-02
(PID.TID 0000.0001) %MON advcfl_wvel_max              =   7.3048307348331E-02
(PID.TID 0000.0001) %MON advcfl_W_hf_max              =   8.6092647946247E-02
(PID.TID 0000.0001) %MON pe_b_mean                    =   7.0476818778539E-04
(PID.TID 0000.0001) %MON ke_max                       =   1.8009880070420E-02
(PID.TID 0000.0001) %MON ke_mean                      =   2.8759592004646E-04
(PID.TID 0000.0001) %MON ke_vol                       =   1.3226782436723E+18
(PID.TID 0000.0001) %MON vort_r_min                   =  -5.3758703988541E-07
(PID.TID 0000.0001) %MON vort_r_max                   =   5.6386933573486E-07
(PID.TID 0000.0001) %MON vort_a_mean                  =  -2.5274806323481E-05
(PID.TID 0000.0001) %MON vort_a_sd                    =   7.3604133354246E-05
(PID.TID 0000.0001) %MON vort_p_mean                  =  -3.1845654446296E-05
(PID.TID 0000.0001) %MON vort_p_sd                    =   1.3162309986611E-04
(PID.TID 0000.0001) %MON surfExpan_theta_mean         =  -3.0269614996880E-07
(PID.TID 0000.0001) %MON surfExpan_salt_mean          =   3.4717668932083E-07
(PID.TID 0000.0001) // =======================================================
(PID.TID 0000.0001) // End MONITOR dynamic field statistics
(PID.TID 0000.0001) // =======================================================
 EXTERNAL_FIELDS_LOAD,        48 : iP,iLd,i0,i1=    2    3    2    3 ; Wght=  0.9000000000  0.1000000000
 EXTERNAL_FIELDS_LOAD: (fu0,1),fu,fv= -1.4435E-02 -2.7199E-02 -1.5711E-02 -1.5930E-02
 EXTERNAL_FIELDS_LOAD: SST,SSS,Q,E-P= -4.9706E-01  3.4437E+01  2.3797E+02  8.4476E-06
DEBUG_STATS_RL:          Uvel (THERMODYNAMICS)  min= -1.68062753455813E-01
DEBUG_STATS_RL:          Uvel (THERMODYNAMICS)  max=  1.81888301542236E-01
DEBUG_STATS_RL:          Uvel (THERMODYNAMICS) mean=  1.68868989958449E-03
DEBUG_STATS_RL:          Uvel (THERMODYNAMICS) S.D.=  2.81631697465149E-02
DEBUG_STATS_RL:          Vvel (THERMODYNAMICS)  min= -1.22348844382992E-01
DEBUG_STATS_RL:          Vvel (THERMODYNAMICS)  max=  1.37038898554882E-01
DEBUG_STATS_RL:          Vvel (THERMODYNAMICS) mean=  1.51525330507330E-03
DEBUG_STATS_RL:          Vvel (THERMODYNAMICS) S.D.=  1.73515092825300E-02
DEBUG_STATS_RL:          Wvel (THERMODYNAMICS)  min= -1.71291659498192E-04
DEBUG_STATS_RL:          Wvel (THERMODYNAMICS)  max=  1.41354492037318E-04
DEBUG_STATS_RL:          Wvel (THERMODYNAMICS) mean= -2.58627629930504E-08
DEBUG_STATS_RL:          Wvel (THERMODYNAMICS) S.D.=  1.73191635607355E-05
DEBUG_STATS_RL:         Theta (THERMODYNAMICS)  min= -1.98703271674653E+00
DEBUG_STATS_RL:         Theta (THERMODYNAMICS)  max=  3.04048669544817E+01
DEBUG_STATS_RL:         Theta (THERMODYNAMICS) mean=  3.24715628806570E+00
DEBUG_STATS_RL:         Theta (THERMODYNAMICS) S.D.=  5.87018279412692E+00
DEBUG_STATS_RL:          Salt (THERMODYNAMICS)  min=  3.00000000000000E-02
DEBUG_STATS_RL:          Salt (THERMODYNAMICS)  max=  3.74920778786485E+01
DEBUG_STATS_RL:          Salt (THERMODYNAMICS) mean=  1.88749446592868E+01
DEBUG_STATS_RL:          Salt (THERMODYNAMICS) S.D.=  1.73004613767966E+01
DEBUG_STATS_RL:         GtNm1 (THERMODYNAMICS)  min= -5.02041686926287E-06
DEBUG_STATS_RL:         GtNm1 (THERMODYNAMICS)  max=  3.21393713309041E-06
DEBUG_STATS_RL:         GtNm1 (THERMODYNAMICS) mean=  6.84334774849951E-09
DEBUG_STATS_RL:         GtNm1 (THERMODYNAMICS) S.D.=  2.10259120379250E-07
DEBUG_STATS_RL:         GsNm1 (THERMODYNAMICS)  min= -4.69146266425949E-07
DEBUG_STATS_RL:         GsNm1 (THERMODYNAMICS)  max=  3.08406979294387E-07
DEBUG_STATS_RL:         GsNm1 (THERMODYNAMICS) mean= -9.61262878094988E-12
DEBUG_STATS_RL:         GsNm1 (THERMODYNAMICS) S.D.=  2.00886930757258E-08
DEBUG_STATS_RL:                EtaN (DYNAMICS)  min= -2.09898377866297E+00
DEBUG_STATS_RL:                EtaN (DYNAMICS)  max=  1.16754864387421E+00
DEBUG_STATS_RL:                EtaN (DYNAMICS) mean= -1.96045644347213E-01
DEBUG_STATS_RL:                EtaN (DYNAMICS) S.D.=  8.29290864708303E-01
DEBUG_STATS_RL:                Uvel (DYNAMICS)  min= -1.68062753455813E-01
DEBUG_STATS_RL:                Uvel (DYNAMICS)  max=  1.81888301542236E-01
DEBUG_STATS_RL:                Uvel (DYNAMICS) mean=  1.68868989958449E-03
DEBUG_STATS_RL:                Uvel (DYNAMICS) S.D.=  2.81631697465149E-02
DEBUG_STATS_RL:                Vvel (DYNAMICS)  min= -1.22348844382992E-01
DEBUG_STATS_RL:                Vvel (DYNAMICS)  max=  1.37038898554882E-01
DEBUG_STATS_RL:                Vvel (DYNAMICS) mean=  1.51525330507330E-03
DEBUG_STATS_RL:                Vvel (DYNAMICS) S.D.=  1.73515092825300E-02
DEBUG_STATS_RL:                Wvel (DYNAMICS)  min= -1.71291659498192E-04
DEBUG_STATS_RL:                Wvel (DYNAMICS)  max=  1.41354492037318E-04
DEBUG_STATS_RL:                Wvel (DYNAMICS) mean= -2.58627629930504E-08
DEBUG_STATS_RL:                Wvel (DYNAMICS) S.D.=  1.73191635607355E-05
DEBUG_STATS_RL:               Theta (DYNAMICS)  min= -1.98703271674653E+00
DEBUG_STATS_RL:               Theta (DYNAMICS)  max=  3.04048669544817E+01
DEBUG_STATS_RL:               Theta (DYNAMICS) mean=  3.24715628806570E+00
DEBUG_STATS_RL:               Theta (DYNAMICS) S.D.=  5.87018279412692E+00
DEBUG_STATS_RL:                Salt (DYNAMICS)  min=  3.00000000000000E-02
DEBUG_STATS_RL:                Salt (DYNAMICS)  max=  3.74920778786485E+01
DEBUG_STATS_RL:                Salt (DYNAMICS) mean=  1.88749446592868E+01
DEBUG_STATS_RL:                Salt (DYNAMICS) S.D.=  1.73004613767966E+01
DEBUG_STATS_RL:                  Gu (DYNAMICS)  min= -1.66096474538394E-01
DEBUG_STATS_RL:                  Gu (DYNAMICS)  max=  1.88644349712950E-01
DEBUG_STATS_RL:                  Gu (DYNAMICS) mean=  1.76624855573275E-03
DEBUG_STATS_RL:                  Gu (DYNAMICS) S.D.=  2.81425285576204E-02
DEBUG_STATS_RL:                  Gv (DYNAMICS)  min= -1.21144574650617E-01
DEBUG_STATS_RL:                  Gv (DYNAMICS)  max=  1.33259573952136E-01
DEBUG_STATS_RL:                  Gv (DYNAMICS) mean=  3.46547946270190E-03
DEBUG_STATS_RL:                  Gv (DYNAMICS) S.D.=  1.84058399182609E-02
DEBUG_STATS_RL:               GuNm1 (DYNAMICS)  min= -9.80107792817052E-06
DEBUG_STATS_RL:               GuNm1 (DYNAMICS)  max=  8.87535274276159E-06
DEBUG_STATS_RL:               GuNm1 (DYNAMICS) mean=  1.99980185631140E-09
DEBUG_STATS_RL:               GuNm1 (DYNAMICS) S.D.=  1.19591332566423E-06
DEBUG_STATS_RL:               GvNm1 (DYNAMICS)  min= -9.39712618593381E-06
DEBUG_STATS_RL:               GvNm1 (DYNAMICS)  max=  1.65054100249630E-05
DEBUG_STATS_RL:               GvNm1 (DYNAMICS) mean=  7.41604686715204E-07
DEBUG_STATS_RL:               GvNm1 (DYNAMICS) S.D.=  2.60999462996379E-06
DEBUG_STATS_RL:               GtNm1 (DYNAMICS)  min= -5.02041686926287E-06
DEBUG_STATS_RL:               GtNm1 (DYNAMICS)  max=  3.21393713309041E-06
DEBUG_STATS_RL:               GtNm1 (DYNAMICS) mean=  6.84334774849951E-09
DEBUG_STATS_RL:               GtNm1 (DYNAMICS) S.D.=  2.10259120379250E-07
DEBUG_STATS_RL:               GsNm1 (DYNAMICS)  min= -4.69146266425949E-07
DEBUG_STATS_RL:               GsNm1 (DYNAMICS)  max=  3.08406979294387E-07
DEBUG_STATS_RL:               GsNm1 (DYNAMICS) mean= -9.61262878094988E-12
DEBUG_STATS_RL:               GsNm1 (DYNAMICS) S.D.=  2.00886930757258E-08
DEBUG_STATS_RL:    cg2d_b (SOLVE_FOR_PRESSURE)  min= -2.80822143862690E+04
DEBUG_STATS_RL:    cg2d_b (SOLVE_FOR_PRESSURE)  max=  1.86135391087165E+04
DEBUG_STATS_RL:    cg2d_b (SOLVE_FOR_PRESSURE) mean=  3.54848661840697E+00
DEBUG_STATS_RL:    cg2d_b (SOLVE_FOR_PRESSURE) S.D.=  3.89304218566285E+03
 cg2d: Sum(rhs),rhsMax =   2.92524884562838E-01  1.84451502893299E+00
(PID.TID 0000.0001)  cg2d: iter=     1 ; resid.=  2.92546061136073E-01
(PID.TID 0000.0001)  cg2d: iter=     2 ; resid.=  2.94829930268289E-01
(PID.TID 0000.0001)  cg2d: iter=     3 ; resid.=  2.75684637844169E-01
(PID.TID 0000.0001)  cg2d: iter=     4 ; resid.=  2.40111433098232E-01
(PID.TID 0000.0001)  cg2d: iter=     5 ; resid.=  2.35931274812351E-01
(PID.TID 0000.0001)  cg2d: iter=     6 ; resid.=  2.09413624249975E-01
(PID.TID 0000.0001)  cg2d: iter=     7 ; resid.=  1.62986775090514E-01
(PID.TID 0000.0001)  cg2d: iter=     8 ; resid.=  1.21080351546268E-01
(PID.TID 0000.0001)  cg2d: iter=     9 ; resid.=  9.44404970836000E-02
(PID.TID 0000.0001)  cg2d: iter=    10 ; resid.=  8.00520503635889E-02
(PID.TID 0000.0001)  cg2d: iter=    11 ; resid.=  6.83204112627851E-02
(PID.TID 0000.0001)  cg2d: iter=    12 ; resid.=  5.81293813580029E-02
(PID.TID 0000.0001)  cg2d: iter=    13 ; resid.=  4.67341261808464E-02
(PID.TID 0000.0001)  cg2d: iter=    14 ; resid.=  3.77302699159625E-02
(PID.TID 0000.0001)  cg2d: iter=    15 ; resid.=  3.05195486823335E-02
(PID.TID 0000.0001)  cg2d: iter=    16 ; resid.=  2.78717249281147E-02
(PID.TID 0000.0001)  cg2d: iter=    17 ; resid.=  2.41158633757692E-02
(PID.TID 0000.0001)  cg2d: iter=    18 ; resid.=  1.99731623389190E-02
(PID.TID 0000.0001)  cg2d: iter=    19 ; resid.=  1.62139048801533E-02
(PID.TID 0000.0001)  cg2d: iter=    20 ; resid.=  1.35074189178167E-02
(PID.TID 0000.0001)  cg2d: iter=    21 ; resid.=  1.15628559080124E-02
(PID.TID 0000.0001)  cg2d: iter=    22 ; resid.=  9.93716906640551E-03
(PID.TID 0000.0001)  cg2d: iter=    23 ; resid.=  8.08557900516805E-03
(PID.TID 0000.0001)  cg2d: iter=    24 ; resid.=  6.62871472257473E-03
(PID.TID 0000.0001)  cg2d: iter=    25 ; resid.=  5.14521042929624E-03
(PID.TID 0000.0001)  cg2d: iter=    26 ; resid.=  4.15225851405761E-03
(PID.TID 0000.0001)  cg2d: iter=    27 ; resid.=  3.51539159806374E-03
(PID.TID 0000.0001)  cg2d: iter=    28 ; resid.=  2.77993787615505E-03
(PID.TID 0000.0001)  cg2d: iter=    29 ; resid.=  2.16486223881077E-03
(PID.TID 0000.0001)  cg2d: iter=    30 ; resid.=  1.87939809928027E-03
(PID.TID 0000.0001)  cg2d: iter=    31 ; resid.=  1.51839314442988E-03
(PID.TID 0000.0001)  cg2d: iter=    32 ; resid.=  1.13368929096390E-03
(PID.TID 0000.0001)  cg2d: iter=    33 ; resid.=  9.04511319157465E-04
(PID.TID 0000.0001)  cg2d: iter=    34 ; resid.=  7.81504971138571E-04
(PID.TID 0000.0001)  cg2d: iter=    35 ; resid.=  6.47566947811216E-04
(PID.TID 0000.0001)  cg2d: iter=    36 ; resid.=  5.66702714446125E-04
(PID.TID 0000.0001)  cg2d: iter=    37 ; resid.=  4.71238662538059E-04
(PID.TID 0000.0001)  cg2d: iter=    38 ; resid.=  3.98936050620276E-04
(PID.TID 0000.0001)  cg2d: iter=    39 ; resid.=  3.27284682147488E-04
(PID.TID 0000.0001)  cg2d: iter=    40 ; resid.=  2.72970576192607E-04
(PID.TID 0000.0001)  cg2d: iter=    41 ; resid.=  2.35322320199288E-04
(PID.TID 0000.0001)  cg2d: iter=    42 ; resid.=  2.05126959086432E-04
(PID.TID 0000.0001)  cg2d: iter=    43 ; resid.=  1.71841043998324E-04
(PID.TID 0000.0001)  cg2d: iter=    44 ; resid.=  1.41943691998137E-04
(PID.TID 0000.0001)  cg2d: iter=    45 ; resid.=  1.19689935632343E-04
(PID.TID 0000.0001)  cg2d: iter=    46 ; resid.=  9.37725341324596E-05
(PID.TID 0000.0001)  cg2d: iter=    47 ; resid.=  8.10113078118339E-05
(PID.TID 0000.0001)  cg2d: iter=    48 ; resid.=  6.39443695279352E-05
(PID.TID 0000.0001)  cg2d: iter=    49 ; resid.=  5.52657081374596E-05
(PID.TID 0000.0001)  cg2d: iter=    50 ; resid.=  4.56449692370237E-05
(PID.TID 0000.0001)  cg2d: iter=    51 ; resid.=  4.06664382818850E-05
(PID.TID 0000.0001)  cg2d: iter=    52 ; resid.=  3.64230022887160E-05
(PID.TID 0000.0001)  cg2d: iter=    53 ; resid.=  3.07291523626900E-05
(PID.TID 0000.0001)  cg2d: iter=    54 ; resid.=  2.67198782051535E-05
(PID.TID 0000.0001)  cg2d: iter=    55 ; resid.=  2.46445111377262E-05
(PID.TID 0000.0001)  cg2d: iter=    56 ; resid.=  2.10159381579306E-05
(PID.TID 0000.0001)  cg2d: iter=    57 ; resid.=  1.64254781491799E-05
(PID.TID 0000.0001)  cg2d: iter=    58 ; resid.=  1.30214394756407E-05
(PID.TID 0000.0001)  cg2d: iter=    59 ; resid.=  9.64551799265292E-06
(PID.TID 0000.0001)  cg2d: iter=    60 ; resid.=  7.44343941026018E-06
(PID.TID 0000.0001)  cg2d: iter=    61 ; resid.=  6.24752286921638E-06
(PID.TID 0000.0001)  cg2d: iter=    62 ; resid.=  5.40430408937450E-06
(PID.TID 0000.0001)  cg2d: iter=    63 ; resid.=  4.46145676542208E-06
(PID.TID 0000.0001)  cg2d: iter=    64 ; resid.=  3.62250125901862E-06
(PID.TID 0000.0001)  cg2d: iter=    65 ; resid.=  2.90230761077243E-06
(PID.TID 0000.0001)  cg2d: iter=    66 ; resid.=  2.39057197172922E-06
(PID.TID 0000.0001)  cg2d: iter=    67 ; resid.=  2.19804447468352E-06
(PID.TID 0000.0001)  cg2d: iter=    68 ; resid.=  1.95255763951131E-06
(PID.TID 0000.0001)  cg2d: iter=    69 ; resid.=  1.61591304048950E-06
(PID.TID 0000.0001)  cg2d: iter=    70 ; resid.=  1.39250045433344E-06
(PID.TID 0000.0001)  cg2d: iter=    71 ; resid.=  1.11898776366837E-06
(PID.TID 0000.0001)  cg2d: iter=    72 ; resid.=  9.25925584934924E-07
(PID.TID 0000.0001)  cg2d: iter=    73 ; resid.=  8.09333447168180E-07
(PID.TID 0000.0001)  cg2d: iter=    74 ; resid.=  6.95773759662597E-07
(PID.TID 0000.0001)  cg2d: iter=    75 ; resid.=  5.37935245408091E-07
(PID.TID 0000.0001)  cg2d: iter=    76 ; resid.=  4.54251369922994E-07
(PID.TID 0000.0001)  cg2d: iter=    77 ; resid.=  3.76032290849844E-07
(PID.TID 0000.0001)  cg2d: iter=    78 ; resid.=  2.85791874690457E-07
(PID.TID 0000.0001)  cg2d: iter=    79 ; resid.=  2.28216819112538E-07
(PID.TID 0000.0001)  cg2d: iter=    80 ; resid.=  1.68963908915384E-07
(PID.TID 0000.0001)  cg2d: iter=    81 ; resid.=  1.34835134546434E-07
(PID.TID 0000.0001)  cg2d: iter=    82 ; resid.=  1.03224711432418E-07
(PID.TID 0000.0001)  cg2d: iter=    83 ; resid.=  7.44247098458349E-08
(PID.TID 0000.0001)  cg2d: iter=    84 ; resid.=  5.49048375862618E-08
(PID.TID 0000.0001)  cg2d: iter=    85 ; resid.=  4.14068303523604E-08
(PID.TID 0000.0001)  cg2d: iter=    86 ; resid.=  3.11835198411870E-08
(PID.TID 0000.0001)  cg2d: iter=    87 ; resid.=  2.41157217288008E-08
(PID.TID 0000.0001)  cg2d: iter=    88 ; resid.=  2.06914251467914E-08
(PID.TID 0000.0001)  cg2d: iter=    89 ; resid.=  1.86133590686339E-08
(PID.TID 0000.0001)  cg2d: iter=    90 ; resid.=  1.40489424462447E-08
(PID.TID 0000.0001)  cg2d: iter=    91 ; resid.=  1.11326213414920E-08
(PID.TID 0000.0001)  cg2d: iter=    92 ; resid.=  8.62374083941701E-09
(PID.TID 0000.0001)  cg2d: iter=    93 ; resid.=  6.54816592178062E-09
(PID.TID 0000.0001)  cg2d: iter=    94 ; resid.=  5.00110868999539E-09
(PID.TID 0000.0001)  cg2d: iter=    95 ; resid.=  4.16053067842115E-09
(PID.TID 0000.0001)  cg2d: iter=    96 ; resid.=  3.01714432397618E-09
(PID.TID 0000.0001)  cg2d: iter=    97 ; resid.=  2.45133012103146E-09
(PID.TID 0000.0001)  cg2d: iter=    98 ; resid.=  2.09958550187437E-09
(PID.TID 0000.0001)  cg2d: iter=    99 ; resid.=  1.86236696025867E-09
(PID.TID 0000.0001)  cg2d: iter=   100 ; resid.=  1.67392169239079E-09
(PID.TID 0000.0001)  cg2d: iter=   101 ; resid.=  1.29966485430443E-09
(PID.TID 0000.0001)  cg2d: iter=   102 ; resid.=  1.10875002999070E-09
(PID.TID 0000.0001)  cg2d: iter=   103 ; resid.=  8.71463821061182E-10
(PID.TID 0000.0001)  cg2d: iter=   104 ; resid.=  7.03629666769884E-10
(PID.TID 0000.0001)  cg2d: iter=   105 ; resid.=  5.63118054648993E-10
(PID.TID 0000.0001)  cg2d: iter=   106 ; resid.=  4.75646238145117E-10
(PID.TID 0000.0001)  cg2d: iter=   107 ; resid.=  3.59666091189909E-10
(PID.TID 0000.0001)  cg2d: iter=   108 ; resid.=  2.59742847713267E-10
(PID.TID 0000.0001)  cg2d: iter=   109 ; resid.=  1.95564317115084E-10
(PID.TID 0000.0001)  cg2d: iter=   110 ; resid.=  1.45656087583202E-10
(PID.TID 0000.0001)  cg2d: iter=   111 ; resid.=  1.10776677226838E-10
(PID.TID 0000.0001)  cg2d: iter=   112 ; resid.=  8.12371351204669E-11
(PID.TID 0000.0001)  cg2d: iter=   113 ; resid.=  5.94716681973313E-11
(PID.TID 0000.0001)  cg2d: iter=   114 ; resid.=  4.77865208555840E-11
(PID.TID 0000.0001)  cg2d: iter=   115 ; resid.=  3.53010503619436E-11
(PID.TID 0000.0001)  cg2d: iter=   116 ; resid.=  2.65500304337539E-11
(PID.TID 0000.0001)  cg2d: iter=   117 ; resid.=  2.13981376747553E-11
(PID.TID 0000.0001)  cg2d: iter=   118 ; resid.=  1.62384649751087E-11
(PID.TID 0000.0001)  cg2d: iter=   119 ; resid.=  1.34578460718006E-11
(PID.TID 0000.0001)  cg2d: iter=   120 ; resid.=  1.06235424307260E-11
(PID.TID 0000.0001)  cg2d: iter=   121 ; resid.=  8.13710377799483E-12
(PID.TID 0000.0001)  cg2d: iter=   122 ; resid.=  6.83953101269611E-12
(PID.TID 0000.0001)  cg2d: iter=   123 ; resid.=  5.04726408475653E-12
(PID.TID 0000.0001)  cg2d: iter=   124 ; resid.=  3.74603136847055E-12
(PID.TID 0000.0001)  cg2d: iter=   125 ; resid.=  2.70304740300075E-12
(PID.TID 0000.0001)  cg2d: iter=   126 ; resid.=  1.79038846207639E-12
(PID.TID 0000.0001)  cg2d: iter=   127 ; resid.=  1.14749921687532E-12
(PID.TID 0000.0001)  cg2d: iter=   128 ; resid.=  8.18300812804181E-13
(PID.TID 0000.0001)  cg2d: iter=   129 ; resid.=  5.68023342077301E-13
(PID.TID 0000.0001)  cg2d: iter=   130 ; resid.=  3.69430239048764E-13
(PID.TID 0000.0001)  cg2d: iter=   131 ; resid.=  2.38440060050070E-13
(PID.TID 0000.0001)  cg2d: iter=   132 ; resid.=  1.71510508554020E-13
(PID.TID 0000.0001)  cg2d: iter=   133 ; resid.=  1.43501433964918E-13
(PID.TID 0000.0001)  cg2d: iter=   134 ; resid.=  1.21463504308883E-13
(PID.TID 0000.0001)  cg2d: iter=   135 ; resid.=  9.67578677618979E-14
DEBUG_STATS_RL:    cg2d_x (SOLVE_FOR_PRESSURE)  min= -2.06989804675546E+01
DEBUG_STATS_RL:    cg2d_x (SOLVE_FOR_PRESSURE)  max=  1.06496700088888E+01
DEBUG_STATS_RL:    cg2d_x (SOLVE_FOR_PRESSURE) mean= -1.89198329400731E+00
DEBUG_STATS_RL:    cg2d_x (SOLVE_FOR_PRESSURE) S.D.=  7.71305447018799E+00
(PID.TID 0000.0001)      cg2d_init_res =   4.23584032148363E-01
(PID.TID 0000.0001)      cg2d_iters(min,last) =      -1     135
(PID.TID 0000.0001)      cg2d_last_res =   9.67578677618979E-14
(PID.TID 0000.0001) // =======================================================
(PID.TID 0000.0001) // Begin MONITOR dynamic field statistics
(PID.TID 0000.0001) // =======================================================
(PID.TID 0000.0001) %MON time_tsnumber                =                    49
(PID.TID 0000.0001) %MON time_secondsf                =   4.2336000000000E+06
(PID.TID 0000.0001) %MON dynstat_eta_max              =   1.0855932730773E+00
(PID.TID 0000.0001) %MON dynstat_eta_min              =  -2.1099878152451E+00
(PID.TID 0000.0001) %MON dynstat_eta_mean             =  -3.7024057884930E-03
(PID.TID 0000.0001) %MON dynstat_eta_sd               =   6.9633403643658E-01
(PID.TID 0000.0001) %MON dynstat_eta_del2             =   2.4172606978550E-03
(PID.TID 0000.0001) %MON dynstat_uvel_max             =   1.8286178617647E-01
(PID.TID 0000.0001) %MON dynstat_uvel_min             =  -1.6714740935254E-01
(PID.TID 0000.0001) %MON dynstat_uvel_mean            =  -7.4310962259137E-04
(PID.TID 0000.0001) %MON dynstat_uvel_sd              =   2.1790404153588E-02
(PID.TID 0000.0001) %MON dynstat_uvel_del2            =   1.2861597006914E-04
(PID.TID 0000.0001) %MON dynstat_vvel_max             =   1.3801733707891E-01
(PID.TID 0000.0001) %MON dynstat_vvel_min             =  -1.2023683620053E-01
(PID.TID 0000.0001) %MON dynstat_vvel_mean            =   5.4348699266159E-05
(PID.TID 0000.0001) %MON dynstat_vvel_sd              =   1.2231551111030E-02
(PID.TID 0000.0001) %MON dynstat_vvel_del2            =   9.9738757415427E-05
(PID.TID 0000.0001) %MON dynstat_wvel_max             =   1.3888393329121E-04
(PID.TID 0000.0001) %MON dynstat_wvel_min             =  -1.6995685946321E-04
(PID.TID 0000.0001) %MON dynstat_wvel_mean            =  -9.4786833815131E-23
(PID.TID 0000.0001) %MON dynstat_wvel_sd              =   1.9764670207597E-05
(PID.TID 0000.0001) %MON dynstat_wvel_del2            =   1.9353065766186E-07
(PID.TID 0000.0001) %MON dynstat_theta_max            =   3.0404866954482E+01
(PID.TID 0000.0001) %MON dynstat_theta_min            =  -1.9870327167465E+00
(PID.TID 0000.0001) %MON dynstat_theta_mean           =   3.6523018898603E+00
(PID.TID 0000.0001) %MON dynstat_theta_sd             =   4.4210704040570E+00
(PID.TID 0000.0001) %MON dynstat_theta_del2           =   4.8094818760878E-03
(PID.TID 0000.0001) %MON dynstat_salt_max             =   3.7492077878649E+01
(PID.TID 0000.0001) %MON dynstat_salt_min             =   2.9865444739336E+01
(PID.TID 0000.0001) %MON dynstat_salt_mean            =   3.4748011958020E+01
(PID.TID 0000.0001) %MON dynstat_salt_sd              =   2.9642052612635E-01
(PID.TID 0000.0001) %MON dynstat_salt_del2            =   9.8811781314647E-04
(PID.TID 0000.0001) %MON dynstat_sst_max              =   3.0404866954482E+01
(PID.TID 0000.0001) %MON dynstat_sst_min              =  -1.9870327167465E+00
(PID.TID 0000.0001) %MON dynstat_sst_mean             =   1.8947586729973E+01
(PID.TID 0000.0001) %MON dynstat_sst_sd               =   9.0210695531499E+00
(PID.TID 0000.0001) %MON dynstat_sst_del2             =   2.7446808066145E-02
(PID.TID 0000.0001) %MON dynstat_sss_max              =   3.7460171465794E+01
(PID.TID 0000.0001) %MON dynstat_sss_min              =   2.9865444739336E+01
(PID.TID 0000.0001) %MON dynstat_sss_mean             =   3.4874189900446E+01
(PID.TID 0000.0001) %MON dynstat_sss_sd               =   9.7789572899268E-01
(PID.TID 0000.0001) %MON dynstat_sss_del2             =   7.9001480941362E-03
(PID.TID 0000.0001) %MON forcing_qnet_max             =   3.5005778503418E+02
(PID.TID 0000.0001) %MON forcing_qnet_min             =  -1.7193613128662E+02
(PID.TID 0000.0001) %MON forcing_qnet_mean            =  -1.3295232480064E+01
(PID.TID 0000.0001) %MON forcing_qnet_sd              =   7.5356710185275E+01
(PID.TID 0000.0001) %MON forcing_qnet_del2            =   9.3278656798389E-01
(PID.TID 0000.0001) %MON forcing_qsw_max              =   0.0000000000000E+00
(PID.TID 0000.0001) %MON forcing_qsw_min              =   0.0000000000000E+00
(PID.TID 0000.0001) %MON forcing_qsw_mean             =   0.0000000000000E+00
(PID.TID 0000.0001) %MON forcing_qsw_sd               =   0.0000000000000E+00
(PID.TID 0000.0001) %MON forcing_qsw_del2             =   0.0000000000000E+00
(PID.TID 0000.0001) %MON forcing_empmr_max            =   7.0250469974553E-05
(PID.TID 0000.0001) %MON forcing_empmr_min            =  -7.5240552988021E-05
(PID.TID 0000.0001) %MON forcing_empmr_mean           =   9.0413918728631E-07
(PID.TID 0000.0001) %MON forcing_empmr_sd             =   2.7719997009048E-05
(PID.TID 0000.0001) %MON forcing_empmr_del2           =   3.5454115748184E-07
(PID.TID 0000.0001) %MON forcing_fu_max               =   3.0860858261585E-01
(PID.TID 0000.0001) %MON forcing_fu_min               =  -2.3188623934984E-01
(PID.TID 0000.0001) %MON forcing_fu_mean              =   1.7913340385011E-02
(PID.TID 0000.0001) %MON forcing_fu_sd                =   9.3092736930720E-02
(PID.TID 0000.0001) %MON forcing_fu_del2              =   7.2682591920009E-04
(PID.TID 0000.0001) %MON forcing_fv_max               =   1.8452488817275E-01
(PID.TID 0000.0001) %MON forcing_fv_min               =  -1.9522114694119E-01
(PID.TID 0000.0001) %MON forcing_fv_mean              =  -7.2480099908687E-03
(PID.TID 0000.0001) %MON forcing_fv_sd                =   4.4132733305549E-02
(PID.TID 0000.0001) %MON forcing_fv_del2              =   5.1914537239774E-04
(PID.TID 0000.0001) %MON trAdv_CFL_u_max              =   4.7561600426618E-02
(PID.TID 0000.0001) %MON trAdv_CFL_v_max              =   3.1916222741979E-02
(PID.TID 0000.0001) %MON trAdv_CFL_w_max              =   8.6092647946247E-02
(PID.TID 0000.0001) %MON advcfl_uvel_max              =   4.7806445104166E-02
(PID.TID 0000.0001) %MON advcfl_vvel_max              =   2.6814555062470E-02
(PID.TID 0000.0001) %MON advcfl_wvel_max              =   7.1839872778226E-02
(PID.TID 0000.0001) %MON advcfl_W_hf_max              =   8.4668421488624E-02
(PID.TID 0000.0001) %MON pe_b_mean                    =   6.2048133992271E-04
(PID.TID 0000.0001) %MON ke_max                       =   1.8121582906480E-02
(PID.TID 0000.0001) %MON ke_mean                      =   2.8313775971983E-04
(PID.TID 0000.0001) %MON ke_vol                       =   1.3226782436723E+18
(PID.TID 0000.0001) %MON vort_r_min                   =  -5.3869274492791E-07
(PID.TID 0000.0001) %MON vort_r_max                   =   5.9467844519527E-07
(PID.TID 0000.0001) %MON vort_a_mean                  =  -2.5274806506880E-05
(PID.TID 0000.0001) %MON vort_a_sd                    =   7.3604126796410E-05
(PID.TID 0000.0001) %MON vort_p_mean                  =  -3.1845654677374E-05
(PID.TID 0000.0001) %MON vort_p_sd                    =   1.3162313117969E-04
(PID.TID 0000.0001) %MON surfExpan_theta_mean         =  -4.1122817931744E-07
(PID.TID 0000.0001) %MON surfExpan_salt_mean          =   3.8576536442924E-07
(PID.TID 0000.0001) // =======================================================
(PID.TID 0000.0001) // End MONITOR dynamic field statistics
(PID.TID 0000.0001) // =======================================================
 EXTERNAL_FIELDS_LOAD,        49 : iP,iLd,i0,i1=    2    3    2    3 ; Wght=  0.8666666667  0.1333333333
 EXTERNAL_FIELDS_LOAD: (fu0,1),fu,fv= -1.4435E-02 -2.7199E-02 -1.6137E-02 -1.5361E-02
 EXTERNAL_FIELDS_LOAD: SST,SSS,Q,E-P= -4.8546E-01  3.4442E+01  2.3714E+02  8.4710E-06
DEBUG_STATS_RL:          Uvel (THERMODYNAMICS)  min= -1.67147409352542E-01
DEBUG_STATS_RL:          Uvel (THERMODYNAMICS)  max=  1.82861786176470E-01
DEBUG_STATS_RL:          Uvel (THERMODYNAMICS) mean=  1.94865023613690E-03
DEBUG_STATS_RL:          Uvel (THERMODYNAMICS) S.D.=  2.78405330752285E-02
DEBUG_STATS_RL:          Vvel (THERMODYNAMICS)  min= -1.20236836200530E-01
DEBUG_STATS_RL:          Vvel (THERMODYNAMICS)  max=  1.38017337078911E-01
DEBUG_STATS_RL:          Vvel (THERMODYNAMICS) mean=  1.57917827541161E-03
DEBUG_STATS_RL:          Vvel (THERMODYNAMICS) S.D.=  1.72911004173895E-02
DEBUG_STATS_RL:          Wvel (THERMODYNAMICS)  min= -1.69956859463207E-04
DEBUG_STATS_RL:          Wvel (THERMODYNAMICS)  max=  1.38883933291208E-04
DEBUG_STATS_RL:          Wvel (THERMODYNAMICS) mean= -5.18105847637909E-09
DEBUG_STATS_RL:          Wvel (THERMODYNAMICS) S.D.=  1.71785797445923E-05
DEBUG_STATS_RL:         Theta (THERMODYNAMICS)  min= -1.98500320105584E+00
DEBUG_STATS_RL:         Theta (THERMODYNAMICS)  max=  3.04143927951619E+01
DEBUG_STATS_RL:         Theta (THERMODYNAMICS) mean=  3.24741884215093E+00
DEBUG_STATS_RL:         Theta (THERMODYNAMICS) S.D.=  5.87096067901041E+00
DEBUG_STATS_RL:          Salt (THERMODYNAMICS)  min=  3.00000000000000E-02
DEBUG_STATS_RL:          Salt (THERMODYNAMICS)  max=  3.74925453612591E+01
DEBUG_STATS_RL:          Salt (THERMODYNAMICS) mean=  1.88749422294698E+01
DEBUG_STATS_RL:          Salt (THERMODYNAMICS) S.D.=  1.73004592296708E+01
DEBUG_STATS_RL:         GtNm1 (THERMODYNAMICS)  min= -5.06073134010533E-06
DEBUG_STATS_RL:         GtNm1 (THERMODYNAMICS)  max=  3.06841811492501E-06
DEBUG_STATS_RL:         GtNm1 (THERMODYNAMICS) mean=  6.14041526043014E-09
DEBUG_STATS_RL:         GtNm1 (THERMODYNAMICS) S.D.=  2.09648311392193E-07
DEBUG_STATS_RL:         GsNm1 (THERMODYNAMICS)  min= -4.71096258146204E-07
DEBUG_STATS_RL:         GsNm1 (THERMODYNAMICS)  max=  3.11599162590554E-07
DEBUG_STATS_RL:         GsNm1 (THERMODYNAMICS) mean= -7.54926689883458E-11
DEBUG_STATS_RL:         GsNm1 (THERMODYNAMICS) S.D.=  2.02054632099598E-08
DEBUG_STATS_RL:                EtaN (DYNAMICS)  min= -2.10998781524511E+00
DEBUG_STATS_RL:                EtaN (DYNAMICS)  max=  1.08559327307733E+00
DEBUG_STATS_RL:                EtaN (DYNAMICS) mean= -1.92862721101664E-01
DEBUG_STATS_RL:                EtaN (DYNAMICS) S.D.=  7.86244084626707E-01
DEBUG_STATS_RL:                Uvel (DYNAMICS)  min= -1.67147409352542E-01
DEBUG_STATS_RL:                Uvel (DYNAMICS)  max=  1.82861786176470E-01
DEBUG_STATS_RL:                Uvel (DYNAMICS) mean=  1.94865023613690E-03
DEBUG_STATS_RL:                Uvel (DYNAMICS) S.D.=  2.78405330752285E-02
DEBUG_STATS_RL:                Vvel (DYNAMICS)  min= -1.20236836200530E-01
DEBUG_STATS_RL:                Vvel (DYNAMICS)  max=  1.38017337078911E-01
DEBUG_STATS_RL:                Vvel (DYNAMICS) mean=  1.57917827541161E-03
DEBUG_STATS_RL:                Vvel (DYNAMICS) S.D.=  1.72911004173895E-02
DEBUG_STATS_RL:                Wvel (DYNAMICS)  min= -1.69956859463207E-04
DEBUG_STATS_RL:                Wvel (DYNAMICS)  max=  1.38883933291208E-04
DEBUG_STATS_RL:                Wvel (DYNAMICS) mean= -5.18105847637909E-09
DEBUG_STATS_RL:                Wvel (DYNAMICS) S.D.=  1.71785797445923E-05
DEBUG_STATS_RL:               Theta (DYNAMICS)  min= -1.98500320105584E+00
DEBUG_STATS_RL:               Theta (DYNAMICS)  max=  3.04143927951619E+01
DEBUG_STATS_RL:               Theta (DYNAMICS) mean=  3.24741884215093E+00
DEBUG_STATS_RL:               Theta (DYNAMICS) S.D.=  5.87096067901041E+00
DEBUG_STATS_RL:                Salt (DYNAMICS)  min=  3.00000000000000E-02
DEBUG_STATS_RL:                Salt (DYNAMICS)  max=  3.74925453612591E+01
DEBUG_STATS_RL:                Salt (DYNAMICS) mean=  1.88749422294698E+01
DEBUG_STATS_RL:                Salt (DYNAMICS) S.D.=  1.73004592296708E+01
DEBUG_STATS_RL:                  Gu (DYNAMICS)  min= -1.65104950546445E-01
DEBUG_STATS_RL:                  Gu (DYNAMICS)  max=  1.87386674098079E-01
DEBUG_STATS_RL:                  Gu (DYNAMICS) mean=  2.10851358549696E-03
DEBUG_STATS_RL:                  Gu (DYNAMICS) S.D.=  2.78275354500479E-02
DEBUG_STATS_RL:                  Gv (DYNAMICS)  min= -1.19019272869210E-01
DEBUG_STATS_RL:                  Gv (DYNAMICS)  max=  1.35825790297140E-01
DEBUG_STATS_RL:                  Gv (DYNAMICS) mean=  3.51720413995350E-03
DEBUG_STATS_RL:                  Gv (DYNAMICS) S.D.=  1.84429846003694E-02
DEBUG_STATS_RL:               GuNm1 (DYNAMICS)  min= -9.79488612849045E-06
DEBUG_STATS_RL:               GuNm1 (DYNAMICS)  max=  8.93723059151161E-06
DEBUG_STATS_RL:               GuNm1 (DYNAMICS) mean=  4.03189778746041E-09
DEBUG_STATS_RL:               GuNm1 (DYNAMICS) S.D.=  1.19848194666291E-06
DEBUG_STATS_RL:               GvNm1 (DYNAMICS)  min= -9.30814406291163E-06
DEBUG_STATS_RL:               GvNm1 (DYNAMICS)  max=  1.65035733199085E-05
DEBUG_STATS_RL:               GvNm1 (DYNAMICS) mean=  7.42123500913361E-07
DEBUG_STATS_RL:               GvNm1 (DYNAMICS) S.D.=  2.61404039405213E-06
DEBUG_STATS_RL:               GtNm1 (DYNAMICS)  min= -5.06073134010533E-06
DEBUG_STATS_RL:               GtNm1 (DYNAMICS)  max=  3.06841811492501E-06
DEBUG_STATS_RL:               GtNm1 (DYNAMICS) mean=  6.14041526043014E-09
DEBUG_STATS_RL:               GtNm1 (DYNAMICS) S.D.=  2.09648311392193E-07
DEBUG_STATS_RL:               GsNm1 (DYNAMICS)  min= -4.71096258146204E-07
DEBUG_STATS_RL:               GsNm1 (DYNAMICS)  max=  3.11599162590554E-07
DEBUG_STATS_RL:               GsNm1 (DYNAMICS) mean= -7.54926689883458E-11
DEBUG_STATS_RL:               GsNm1 (DYNAMICS) S.D.=  2.02054632099598E-08
DEBUG_STATS_RL:    cg2d_b (SOLVE_FOR_PRESSURE)  min= -2.81527257080214E+04
DEBUG_STATS_RL:    cg2d_b (SOLVE_FOR_PRESSURE)  max=  1.96935245264832E+04
DEBUG_STATS_RL:    cg2d_b (SOLVE_FOR_PRESSURE) mean=  3.61977754515124E+00
DEBUG_STATS_RL:    cg2d_b (SOLVE_FOR_PRESSURE) S.D.=  3.89688358841768E+03
 cg2d: Sum(rhs),rhsMax =   2.97654483048445E-01  1.84914640133451E+00
(PID.TID 0000.0001)  cg2d: iter=     1 ; resid.=  3.01907968606992E-01
(PID.TID 0000.0001)  cg2d: iter=     2 ; resid.=  3.13548470145332E-01
(PID.TID 0000.0001)  cg2d: iter=     3 ; resid.=  2.92078631122318E-01
(PID.TID 0000.0001)  cg2d: iter=     4 ; resid.=  2.58850401753749E-01
(PID.TID 0000.0001)  cg2d: iter=     5 ; resid.=  2.61906289709869E-01
(PID.TID 0000.0001)  cg2d: iter=     6 ; resid.=  2.26060609807904E-01
(PID.TID 0000.0001)  cg2d: iter=     7 ; resid.=  1.70636083638674E-01
(PID.TID 0000.0001)  cg2d: iter=     8 ; resid.=  1.22742254765112E-01
(PID.TID 0000.0001)  cg2d: iter=     9 ; resid.=  9.49072315618349E-02
(PID.TID 0000.0001)  cg2d: iter=    10 ; resid.=  8.02760731373929E-02
(PID.TID 0000.0001)  cg2d: iter=    11 ; resid.=  6.93496269047342E-02
(PID.TID 0000.0001)  cg2d: iter=    12 ; resid.=  6.00253406944127E-02
(PID.TID 0000.0001)  cg2d: iter=    13 ; resid.=  5.00587031063069E-02
(PID.TID 0000.0001)  cg2d: iter=    14 ; resid.=  4.06891507165519E-02
(PID.TID 0000.0001)  cg2d: iter=    15 ; resid.=  3.24578619880019E-02
(PID.TID 0000.0001)  cg2d: iter=    16 ; resid.=  2.96128652741676E-02
(PID.TID 0000.0001)  cg2d: iter=    17 ; resid.=  2.51705691026818E-02
(PID.TID 0000.0001)  cg2d: iter=    18 ; resid.=  2.09584130773760E-02
(PID.TID 0000.0001)  cg2d: iter=    19 ; resid.=  1.68192107008378E-02
(PID.TID 0000.0001)  cg2d: iter=    20 ; resid.=  1.38680071527192E-02
(PID.TID 0000.0001)  cg2d: iter=    21 ; resid.=  1.18888425233353E-02
(PID.TID 0000.0001)  cg2d: iter=    22 ; resid.=  1.03010255776653E-02
(PID.TID 0000.0001)  cg2d: iter=    23 ; resid.=  8.42705696830316E-03
(PID.TID 0000.0001)  cg2d: iter=    24 ; resid.=  7.05269952558501E-03
(PID.TID 0000.0001)  cg2d: iter=    25 ; resid.=  5.49887327058308E-03
(PID.TID 0000.0001)  cg2d: iter=    26 ; resid.=  4.37876652352338E-03
(PID.TID 0000.0001)  cg2d: iter=    27 ; resid.=  3.65469184630781E-03
(PID.TID 0000.0001)  cg2d: iter=    28 ; resid.=  2.83651418134212E-03
(PID.TID 0000.0001)  cg2d: iter=    29 ; resid.=  2.19747949111231E-03
(PID.TID 0000.0001)  cg2d: iter=    30 ; resid.=  1.91012803897792E-03
(PID.TID 0000.0001)  cg2d: iter=    31 ; resid.=  1.55817853353862E-03
(PID.TID 0000.0001)  cg2d: iter=    32 ; resid.=  1.18607547849235E-03
(PID.TID 0000.0001)  cg2d: iter=    33 ; resid.=  9.56194114711759E-04
(PID.TID 0000.0001)  cg2d: iter=    34 ; resid.=  8.25041314775947E-04
(PID.TID 0000.0001)  cg2d: iter=    35 ; resid.=  6.83717220671084E-04
(PID.TID 0000.0001)  cg2d: iter=    36 ; resid.=  6.00018462214203E-04
(PID.TID 0000.0001)  cg2d: iter=    37 ; resid.=  5.00388341445031E-04
(PID.TID 0000.0001)  cg2d: iter=    38 ; resid.=  4.31656673153581E-04
(PID.TID 0000.0001)  cg2d: iter=    39 ; resid.=  3.54463889901741E-04
(PID.TID 0000.0001)  cg2d: iter=    40 ; resid.=  2.93098070417229E-04
(PID.TID 0000.0001)  cg2d: iter=    41 ; resid.=  2.54414548422297E-04
(PID.TID 0000.0001)  cg2d: iter=    42 ; resid.=  2.21071749167183E-04
(PID.TID 0000.0001)  cg2d: iter=    43 ; resid.=  1.81637883189267E-04
(PID.TID 0000.0001)  cg2d: iter=    44 ; resid.=  1.52070849355866E-04
(PID.TID 0000.0001)  cg2d: iter=    45 ; resid.=  1.28391832705848E-04
(PID.TID 0000.0001)  cg2d: iter=    46 ; resid.=  1.00963407205065E-04
(PID.TID 0000.0001)  cg2d: iter=    47 ; resid.=  8.72070981432167E-05
(PID.TID 0000.0001)  cg2d: iter=    48 ; resid.=  6.80527761057857E-05
(PID.TID 0000.0001)  cg2d: iter=    49 ; resid.=  5.91582180028958E-05
(PID.TID 0000.0001)  cg2d: iter=    50 ; resid.=  4.99890655757846E-05
(PID.TID 0000.0001)  cg2d: iter=    51 ; resid.=  4.54165794746299E-05
(PID.TID 0000.0001)  cg2d: iter=    52 ; resid.=  4.11929620835923E-05
(PID.TID 0000.0001)  cg2d: iter=    53 ; resid.=  3.40626968681301E-05
(PID.TID 0000.0001)  cg2d: iter=    54 ; resid.=  2.90492557632639E-05
(PID.TID 0000.0001)  cg2d: iter=    55 ; resid.=  2.62813315554942E-05
(PID.TID 0000.0001)  cg2d: iter=    56 ; resid.=  2.20730820641754E-05
(PID.TID 0000.0001)  cg2d: iter=    57 ; resid.=  1.68457419750869E-05
(PID.TID 0000.0001)  cg2d: iter=    58 ; resid.=  1.33567044847155E-05
(PID.TID 0000.0001)  cg2d: iter=    59 ; resid.=  9.92603671241946E-06
(PID.TID 0000.0001)  cg2d: iter=    60 ; resid.=  7.54964504620446E-06
(PID.TID 0000.0001)  cg2d: iter=    61 ; resid.=  6.50009925966231E-06
(PID.TID 0000.0001)  cg2d: iter=    62 ; resid.=  5.73927354395285E-06
(PID.TID 0000.0001)  cg2d: iter=    63 ; resid.=  4.85976129266574E-06
(PID.TID 0000.0001)  cg2d: iter=    64 ; resid.=  3.99561289860220E-06
(PID.TID 0000.0001)  cg2d: iter=    65 ; resid.=  3.17175244300419E-06
(PID.TID 0000.0001)  cg2d: iter=    66 ; resid.=  2.60685294350049E-06
(PID.TID 0000.0001)  cg2d: iter=    67 ; resid.=  2.33547708863383E-06
(PID.TID 0000.0001)  cg2d: iter=    68 ; resid.=  2.03152766385159E-06
(PID.TID 0000.0001)  cg2d: iter=    69 ; resid.=  1.70588104869621E-06
(PID.TID 0000.0001)  cg2d: iter=    70 ; resid.=  1.46793897856112E-06
(PID.TID 0000.0001)  cg2d: iter=    71 ; resid.=  1.16863061143599E-06
(PID.TID 0000.0001)  cg2d: iter=    72 ; resid.=  9.77573001333238E-07
(PID.TID 0000.0001)  cg2d: iter=    73 ; resid.=  8.59810293529465E-07
(PID.TID 0000.0001)  cg2d: iter=    74 ; resid.=  7.40162118838201E-07
(PID.TID 0000.0001)  cg2d: iter=    75 ; resid.=  5.77591214304508E-07
(PID.TID 0000.0001)  cg2d: iter=    76 ; resid.=  4.90899858162870E-07
(PID.TID 0000.0001)  cg2d: iter=    77 ; resid.=  4.02198936594666E-07
(PID.TID 0000.0001)  cg2d: iter=    78 ; resid.=  2.95068595729313E-07
(PID.TID 0000.0001)  cg2d: iter=    79 ; resid.=  2.29538123153967E-07
(PID.TID 0000.0001)  cg2d: iter=    80 ; resid.=  1.68328432914199E-07
(PID.TID 0000.0001)  cg2d: iter=    81 ; resid.=  1.32344072003109E-07
(PID.TID 0000.0001)  cg2d: iter=    82 ; resid.=  1.00707089412880E-07
(PID.TID 0000.0001)  cg2d: iter=    83 ; resid.=  7.34616715946550E-08
(PID.TID 0000.0001)  cg2d: iter=    84 ; resid.=  5.44763161589729E-08
(PID.TID 0000.0001)  cg2d: iter=    85 ; resid.=  4.13538412089859E-08
(PID.TID 0000.0001)  cg2d: iter=    86 ; resid.=  3.10840961317766E-08
(PID.TID 0000.0001)  cg2d: iter=    87 ; resid.=  2.49016104903425E-08
(PID.TID 0000.0001)  cg2d: iter=    88 ; resid.=  2.11822866584685E-08
(PID.TID 0000.0001)  cg2d: iter=    89 ; resid.=  1.87358382652044E-08
(PID.TID 0000.0001)  cg2d: iter=    90 ; resid.=  1.42197445046408E-08
(PID.TID 0000.0001)  cg2d: iter=    91 ; resid.=  1.10032617139106E-08
(PID.TID 0000.0001)  cg2d: iter=    92 ; resid.=  8.22042100678120E-09
(PID.TID 0000.0001)  cg2d: iter=    93 ; resid.=  6.26690700479954E-09
(PID.TID 0000.0001)  cg2d: iter=    94 ; resid.=  4.80547345484727E-09
(PID.TID 0000.0001)  cg2d: iter=    95 ; resid.=  3.89525260406432E-09
(PID.TID 0000.0001)  cg2d: iter=    96 ; resid.=  2.80735312462967E-09
(PID.TID 0000.0001)  cg2d: iter=    97 ; resid.=  2.28566949726101E-09
(PID.TID 0000.0001)  cg2d: iter=    98 ; resid.=  1.96288369142839E-09
(PID.TID 0000.0001)  cg2d: iter=    99 ; resid.=  1.72828474099474E-09
(PID.TID 0000.0001)  cg2d: iter=   100 ; resid.=  1.59071086037144E-09
(PID.TID 0000.0001)  cg2d: iter=   101 ; resid.=  1.26028820554988E-09
(PID.TID 0000.0001)  cg2d: iter=   102 ; resid.=  1.08346647325749E-09
(PID.TID 0000.0001)  cg2d: iter=   103 ; resid.=  8.42735782882380E-10
(PID.TID 0000.0001)  cg2d: iter=   104 ; resid.=  6.80365235249841E-10
(PID.TID 0000.0001)  cg2d: iter=   105 ; resid.=  5.41271108542444E-10
(PID.TID 0000.0001)  cg2d: iter=   106 ; resid.=  4.43461166401506E-10
(PID.TID 0000.0001)  cg2d: iter=   107 ; resid.=  3.28305881604798E-10
(PID.TID 0000.0001)  cg2d: iter=   108 ; resid.=  2.35303443751895E-10
(PID.TID 0000.0001)  cg2d: iter=   109 ; resid.=  1.76494830033376E-10
(PID.TID 0000.0001)  cg2d: iter=   110 ; resid.=  1.34017724583622E-10
(PID.TID 0000.0001)  cg2d: iter=   111 ; resid.=  1.05799633332879E-10
(PID.TID 0000.0001)  cg2d: iter=   112 ; resid.=  8.20849341620455E-11
(PID.TID 0000.0001)  cg2d: iter=   113 ; resid.=  6.29370729658460E-11
(PID.TID 0000.0001)  cg2d: iter=   114 ; resid.=  5.14521395767855E-11
(PID.TID 0000.0001)  cg2d: iter=   115 ; resid.=  3.90831510847284E-11
(PID.TID 0000.0001)  cg2d: iter=   116 ; resid.=  2.95820912966382E-11
(PID.TID 0000.0001)  cg2d: iter=   117 ; resid.=  2.32380495139601E-11
(PID.TID 0000.0001)  cg2d: iter=   118 ; resid.=  1.76151124987583E-11
(PID.TID 0000.0001)  cg2d: iter=   119 ; resid.=  1.37538820244616E-11
(PID.TID 0000.0001)  cg2d: iter=   120 ; resid.=  1.05179929136726E-11
(PID.TID 0000.0001)  cg2d: iter=   121 ; resid.=  7.96633295579489E-12
(PID.TID 0000.0001)  cg2d: iter=   122 ; resid.=  6.56352573162748E-12
(PID.TID 0000.0001)  cg2d: iter=   123 ; resid.=  4.78497877118719E-12
(PID.TID 0000.0001)  cg2d: iter=   124 ; resid.=  3.60756254616049E-12
(PID.TID 0000.0001)  cg2d: iter=   125 ; resid.=  2.57594418934074E-12
(PID.TID 0000.0001)  cg2d: iter=   126 ; resid.=  1.70500060827398E-12
(PID.TID 0000.0001)  cg2d: iter=   127 ; resid.=  1.13234202636438E-12
(PID.TID 0000.0001)  cg2d: iter=   128 ; resid.=  8.24664615103152E-13
(PID.TID 0000.0001)  cg2d: iter=   129 ; resid.=  5.89275360174667E-13
(PID.TID 0000.0001)  cg2d: iter=   130 ; resid.=  4.12859078960297E-13
(PID.TID 0000.0001)  cg2d: iter=   131 ; resid.=  2.95161497369653E-13
(PID.TID 0000.0001)  cg2d: iter=   132 ; resid.=  2.38399361930430E-13
(PID.TID 0000.0001)  cg2d: iter=   133 ; resid.=  2.15777423942292E-13
(PID.TID 0000.0001)  cg2d: iter=   134 ; resid.=  1.82572264879511E-13
(PID.TID 0000.0001)  cg2d: iter=   135 ; resid.=  1.37105927667199E-13
(PID.TID 0000.0001)  cg2d: iter=   136 ; resid.=  9.30417468892796E-14
DEBUG_STATS_RL:    cg2d_x (SOLVE_FOR_PRESSURE)  min= -2.11927031073192E+01
DEBUG_STATS_RL:    cg2d_x (SOLVE_FOR_PRESSURE)  max=  9.71608121281400E+00
DEBUG_STATS_RL:    cg2d_x (SOLVE_FOR_PRESSURE) mean= -1.85489995419007E+00
DEBUG_STATS_RL:    cg2d_x (SOLVE_FOR_PRESSURE) S.D.=  7.29694459603177E+00
(PID.TID 0000.0001)      cg2d_init_res =   4.24698419213919E-01
(PID.TID 0000.0001)      cg2d_iters(min,last) =      -1     136
(PID.TID 0000.0001)      cg2d_last_res =   9.30417468892796E-14
(PID.TID 0000.0001) // =======================================================
(PID.TID 0000.0001) // Begin MONITOR dynamic field statistics
(PID.TID 0000.0001) // =======================================================
(PID.TID 0000.0001) %MON time_tsnumber                =                    50
(PID.TID 0000.0001) %MON time_secondsf                =   4.3200000000000E+06
(PID.TID 0000.0001) %MON dynstat_eta_max              =   9.9042621945081E-01
(PID.TID 0000.0001) %MON dynstat_eta_min              =  -2.1603163208276E+00
(PID.TID 0000.0001) %MON dynstat_eta_mean             =  -3.7767890307677E-03
(PID.TID 0000.0001) %MON dynstat_eta_sd               =   6.5118629278337E-01
(PID.TID 0000.0001) %MON dynstat_eta_del2             =   2.4210702393259E-03
(PID.TID 0000.0001) %MON dynstat_uvel_max             =   1.8169544445026E-01
(PID.TID 0000.0001) %MON dynstat_uvel_min             =  -1.6659738981565E-01
(PID.TID 0000.0001) %MON dynstat_uvel_mean            =  -6.1868861839414E-04
(PID.TID 0000.0001) %MON dynstat_uvel_sd              =   2.1604209668787E-02
(PID.TID 0000.0001) %MON dynstat_uvel_del2            =   1.2882683769237E-04
(PID.TID 0000.0001) %MON dynstat_vvel_max             =   1.3729181046879E-01
(PID.TID 0000.0001) %MON dynstat_vvel_min             =  -1.1758843190838E-01
(PID.TID 0000.0001) %MON dynstat_vvel_mean            =   7.1169625719217E-05
(PID.TID 0000.0001) %MON dynstat_vvel_sd              =   1.2182431740337E-02
(PID.TID 0000.0001) %MON dynstat_vvel_del2            =   9.9109625853526E-05
(PID.TID 0000.0001) %MON dynstat_wvel_max             =   1.3608833858792E-04
(PID.TID 0000.0001) %MON dynstat_wvel_min             =  -1.6564552533154E-04
(PID.TID 0000.0001) %MON dynstat_wvel_mean            =  -3.0229574158243E-22
(PID.TID 0000.0001) %MON dynstat_wvel_sd              =   1.9567949018113E-05
(PID.TID 0000.0001) %MON dynstat_wvel_del2            =   1.9161673044344E-07
(PID.TID 0000.0001) %MON dynstat_theta_max            =   3.0414392795162E+01
(PID.TID 0000.0001) %MON dynstat_theta_min            =  -1.9850032010558E+00
(PID.TID 0000.0001) %MON dynstat_theta_mean           =   3.6523859061808E+00
(PID.TID 0000.0001) %MON dynstat_theta_sd             =   4.4213493664646E+00
(PID.TID 0000.0001) %MON dynstat_theta_del2           =   4.8208701407375E-03
(PID.TID 0000.0001) %MON dynstat_salt_max             =   3.7492545361259E+01
(PID.TID 0000.0001) %MON dynstat_salt_min             =   2.9867736253634E+01
(PID.TID 0000.0001) %MON dynstat_salt_mean            =   3.4748003685932E+01
(PID.TID 0000.0001) %MON dynstat_salt_sd              =   2.9641236385739E-01
(PID.TID 0000.0001) %MON dynstat_salt_del2            =   9.8806970934932E-04
(PID.TID 0000.0001) %MON dynstat_sst_max              =   3.0414392795162E+01
(PID.TID 0000.0001) %MON dynstat_sst_min              =  -1.9850032010558E+00
(PID.TID 0000.0001) %MON dynstat_sst_mean             =   1.8955203269436E+01
(PID.TID 0000.0001) %MON dynstat_sst_sd               =   9.0241777557452E+00
(PID.TID 0000.0001) %MON dynstat_sst_del2             =   2.7446304564804E-02
(PID.TID 0000.0001) %MON dynstat_sss_max              =   3.7461202656461E+01
(PID.TID 0000.0001) %MON dynstat_sss_min              =   2.9867736253634E+01
(PID.TID 0000.0001) %MON dynstat_sss_mean             =   3.4873989329010E+01
(PID.TID 0000.0001) %MON dynstat_sss_sd               =   9.7804183335983E-01
(PID.TID 0000.0001) %MON dynstat_sss_del2             =   7.8985356842943E-03
(PID.TID 0000.0001) %MON forcing_qnet_max             =   3.4725963338216E+02
(PID.TID 0000.0001) %MON forcing_qnet_min             =  -1.7163685201009E+02
(PID.TID 0000.0001) %MON forcing_qnet_mean            =  -1.3071892980437E+01
(PID.TID 0000.0001) %MON forcing_qnet_sd              =   7.3968055720569E+01
(PID.TID 0000.0001) %MON forcing_qnet_del2            =   9.2759693781153E-01
(PID.TID 0000.0001) %MON forcing_qsw_max              =   0.0000000000000E+00
(PID.TID 0000.0001) %MON forcing_qsw_min              =   0.0000000000000E+00
(PID.TID 0000.0001) %MON forcing_qsw_mean             =   0.0000000000000E+00
(PID.TID 0000.0001) %MON forcing_qsw_sd               =   0.0000000000000E+00
(PID.TID 0000.0001) %MON forcing_qsw_del2             =   0.0000000000000E+00
(PID.TID 0000.0001) %MON forcing_empmr_max            =   6.9416777629764E-05
(PID.TID 0000.0001) %MON forcing_empmr_min            =  -7.4816678363732E-05
(PID.TID 0000.0001) %MON forcing_empmr_mean           =   8.9104925641196E-07
(PID.TID 0000.0001) %MON forcing_empmr_sd             =   2.7637051706411E-05
(PID.TID 0000.0001) %MON forcing_empmr_del2           =   3.5415798098348E-07
(PID.TID 0000.0001) %MON forcing_fu_max               =   3.0993293523788E-01
(PID.TID 0000.0001) %MON forcing_fu_min               =  -2.3727086881797E-01
(PID.TID 0000.0001) %MON forcing_fu_mean              =   1.8007539974469E-02
(PID.TID 0000.0001) %MON forcing_fu_sd                =   9.3162159555480E-02
(PID.TID 0000.0001) %MON forcing_fu_del2              =   7.2147166739709E-04
(PID.TID 0000.0001) %MON forcing_fv_max               =   1.7883819590012E-01
(PID.TID 0000.0001) %MON forcing_fv_min               =  -1.9373511075974E-01
(PID.TID 0000.0001) %MON forcing_fv_mean              =  -7.2584383408382E-03
(PID.TID 0000.0001) %MON forcing_fv_sd                =   4.3856575417137E-02
(PID.TID 0000.0001) %MON forcing_fv_del2              =   5.1243707888960E-04
(PID.TID 0000.0001) %MON trAdv_CFL_u_max              =   4.7816154935084E-02
(PID.TID 0000.0001) %MON trAdv_CFL_v_max              =   3.2059486657382E-02
(PID.TID 0000.0001) %MON trAdv_CFL_w_max              =   8.4668421488624E-02
(PID.TID 0000.0001) %MON advcfl_uvel_max              =   4.7501522720585E-02
(PID.TID 0000.0001) %MON advcfl_vvel_max              =   2.6673596878170E-02
(PID.TID 0000.0001) %MON advcfl_wvel_max              =   6.8822971485262E-02
(PID.TID 0000.0001) %MON advcfl_W_hf_max              =   8.1112787821916E-02
(PID.TID 0000.0001) %MON pe_b_mean                    =   5.4263313458404E-04
(PID.TID 0000.0001) %MON ke_max                       =   1.8203263284221E-02
(PID.TID 0000.0001) %MON ke_mean                      =   2.7885256434045E-04
(PID.TID 0000.0001) %MON ke_vol                       =   1.3226782436723E+18
(PID.TID 0000.0001) %MON vort_r_min                   =  -5.3781810564329E-07
(PID.TID 0000.0001) %MON vort_r_max                   =   6.1338538280230E-07
(PID.TID 0000.0001) %MON vort_a_mean                  =  -2.5274806713423E-05
(PID.TID 0000.0001) %MON vort_a_sd                    =   7.3604130353521E-05
(PID.TID 0000.0001) %MON vort_p_mean                  =  -3.1845654937613E-05
(PID.TID 0000.0001) %MON vort_p_sd                    =   1.3162317927886E-04
(PID.TID 0000.0001) %MON surfExpan_theta_mean         =  -5.0132189100743E-07
(PID.TID 0000.0001) %MON surfExpan_salt_mean          =   4.1320426633965E-07
(PID.TID 0000.0001) // =======================================================
(PID.TID 0000.0001) // End MONITOR dynamic field statistics
(PID.TID 0000.0001) // =======================================================
(PID.TID 0000.0001) // =======================================================
(PID.TID 0000.0001) // Field Current uVel   at iteration         50
(PID.TID 0000.0001) // CMIN =         -1.665973898156475E-01
(PID.TID 0000.0001) // CMAX =          1.816954444502569E-01
(PID.TID 0000.0001) // CINT =          1.289973460244091E-02
(PID.TID 0000.0001) // SYMBOLS (CMIN->CMAX): -abcdefghijklmnopqrstuvwxyz+
(PID.TID 0000.0001) //                  0.0: .
(PID.TID 0000.0001) // RANGE I (Lo:Hi:Step):(     1:    90:     1)
(PID.TID 0000.0001) // RANGE J (Lo:Hi:Step):(    40:     1:    -1)
(PID.TID 0000.0001) // RANGE K (Lo:Hi:Step):(   1:   1:   1)
(PID.TID 0000.0001) // =======================================================
(PID.TID 0000.0001) K =   1
(PID.TID 0000.0001)                I=10      I=20      I=30      I=40      I=50      I=60      I=70      I=80      I=90
(PID.TID 0000.0001) |--J--|123456789|123456789|123456789|123456789|123456789|123456789|123456789|123456789|123456789|
(PID.TID 0000.0001)     40 lmmlm..mmmmmmnnmmmm...................................................................llkl
(PID.TID 0000.0001)     39 nopppoonnnnnnm....m......................................................mmm.........kklkl
(PID.TID 0000.0001)     38 oooonmmmmmmmm............................................................mmml.......llmnnn
(PID.TID 0000.0001)     37 pon...................................................................m....ll....klkl..npp
(PID.TID 0000.0001)     36 qo..........................................mmm.....................nmmnnnmkll..kmlnpooqrr
(PID.TID 0000.0001)     35 pn..................................mmm...mmmnnl....lllm............lm.....nnllmnnopppqssp
(PID.TID 0000.0001)     34 ....................................lll..mmmmmmm..mnnnonm...................nppqqqrqrrrp..
(PID.TID 0000.0001)     33 .....................................mmmllmmnnopooopqqqqomm..................ooqssssrqqom.
(PID.TID 0000.0001)     32 .....................................nmmlmnoopppppqqrsrrqpo.................rppssssrpooon.
(PID.TID 0000.0001)     31 .....................................nnnnoppqqqqqqrrssrrqpo...............orrqttsqqoonnn..
(PID.TID 0000.0001)     30 ....................................qqrrrsssrrrrrrrrrrqqppo.............psssrrrrqponnnnn..
(PID.TID 0000.0001)     29 ..................................mpqrsttssssrqqqqqqpppooonm............qqqponnnnnnnmmno..
(PID.TID 0000.0001)     28 ................................mnopoopqpppppppooooooooonnnnm..........monmmlmmmmnnnmmno..
(PID.TID 0000.0001)     27 ...............l...............oqponmnonnnnnnoonnoopppoooonnnm....llm..ooonnnnnooooonm....
(PID.TID 0000.0001)     26 ...............no............mprsqponnnnonnnnoonopopppoooonmmnmm..llonoqqqpoooppppponm....
(PID.TID 0000.0001)     25 ...............nom....nm....nmnnqomlkkjklllkllllmmmmmmllkkkkklmmm....moonomllmmmmllkkk....
(PID.TID 0000.0001)     24 .............mljjkl..mml....lk..jhfeddeefffffggghiiihggfeffghiijjjkl..jhihghgghhiggghj....
(PID.TID 0000.0001)     23 .............efefhi..hii....jm...ebba--abcbbcceffghggghgfgfgggggffghk.....fddeeffeffgk....
(PID.TID 0000.0001)     22 l............ccbcdffdefh....l..kcfgfecdeedeeefghhjjikkmmlljjiijjihiijj.......jifeegiklnnol
(PID.TID 0000.0001)     21 lll.........hggfeeghhjknm......nkmnnkjjjkjjklkllkkkkmlnnmmkllmnnmllkjl.........jhgjmnmnnnm
(PID.TID 0000.0001)     20 mml........kknnmlklmmoopm.........ponomlnnpppoonmmmknlllllkkmmnmmllkjk..........khjlmmmmmm
(PID.TID 0000.0001)     19 mom........jjmonmmmmlmmllmm....ip......nmpsrqpppopolnmkkkjiiiiihijjihi............jjkklkjk
(PID.TID 0000.0001)     18 jmm........gdggeeghjiiihilmnonmhl....opnkorpoponmoonmljjjihgfeddeghgfgj...........kiiiiigh
(PID.TID 0000.0001)     17 fhk..........hfccfghjhhiijkmnom......oolloolkmnlklmmlljiiigfeedddeggfef..........nkihgedee
(PID.TID 0000.0001)     16 egi.......n..kigghhklkijjklmmm........mjmnmjjmnljklllmlkjjiihggfghhhgghj.........olihfeeee
(PID.TID 0000.0001)     15 iiij.....lm..mkkjijlmmklmmmmm..........klmlklnnnklmmmmlkkklkjjjjjjjjjiijl.......jmlkjjiihh
(PID.TID 0000.0001)     14 kkkj.....nmmknmlmllnnnlmmnnmm..........nlmlloooomnoonnmlmmmlklmmlllllllll......noomllkkkkk
(PID.TID 0000.0001)     13 mmlk.....nmmmnmmmmmoomlmnonlk..........pnnnoppppopppooooppoooppnnnoonnnnm.....ppponnmmmnnm
(PID.TID 0000.0001)     12 ppomlonpppponnnnnoooonopppnmlmmmml.....pponmnppqpppooooppppqrrqopqqqponm......pqqqqqqqqqqq
(PID.TID 0000.0001)     11 srrppoprtuuutttsssssrrrsrqppoooonlk...pppol..nooooooonnnoopqqqpppqrrqpnl.....ppqstttttssss
(PID.TID 0000.0001)     10 ttsssuvwwxyyy++yxxxwvuuuttsrrqqqponl..noonl..ijmmmmmnnnnmmnppppqqqqqqpnm...qopqrsuuuvvuvuu
(PID.TID 0000.0001)      9 utttuvwvwwxwvwxwussuuuuttttssssrrrpommnonm..khkmnnnnnnnoonnoooppppppoonk..kjmprrrstuuuuvvv
(PID.TID 0000.0001)      8 ssstttsssssssrrqoigmqssrrrrrrrsssttttssqpmeeikmoppqpppppppppopppppoooonl..lilnpqppqrrrrrrs
(PID.TID 0000.0001)      7 ppppppoppooopppnmjefknppooooopqrrsstuutsrqponoopppqqrrrqqqppppqqqppppoonmmonooopponooooooo
(PID.TID 0000.0001)      6 nnnnnnnnnnnnnnnnnmkjklmmmnnnnooppppppqqrrsrrqqppppppqrrrrqppppqqqqqqqqrstuttsrrqoonnnnnmmn
(PID.TID 0000.0001)      5 mmmmmmnnnmmmmmmmnnnmmmmmmlmmmmmmmmnnnnooprrrqpppooooooppqqqqqqqqqqqqqrrsssqpqqponnnnnnnmmm
(PID.TID 0000.0001)      4 lllllmmmmmmmmmmmnnnmmmmnpppooonnnnnnnmmmnnoooooonnnnnnnooppqqqqqqpppppppon...nnmmnnnnnnmmm
(PID.TID 0000.0001)      3 llllllllmm.............................mmnnnoooonnnnnnnnnooooooonnnnnnmmm...mlnonnmmmmmlll
(PID.TID 0000.0001)      2 ...........................................mnnnmmmllllllllllklll...mmm......mmmmmllllll...
(PID.TID 0000.0001)      1 ..........................................................................................
(PID.TID 0000.0001) // =======================================================
(PID.TID 0000.0001) // END OF FIELD                                          =
(PID.TID 0000.0001) // =======================================================
(PID.TID 0000.0001) 
(PID.TID 0000.0001) // =======================================================
(PID.TID 0000.0001) // Field Current vVel   at iteration         50
(PID.TID 0000.0001) // CMIN =         -1.175884319083785E-01
(PID.TID 0000.0001) // CMAX =          1.344670119801924E-01
(PID.TID 0000.0001) // CINT =          9.335386810687811E-03
(PID.TID 0000.0001) // SYMBOLS (CMIN->CMAX): -abcdefghijklmnopqrstuvwxyz+
(PID.TID 0000.0001) //                  0.0: .
(PID.TID 0000.0001) // RANGE I (Lo:Hi:Step):(     1:    90:     1)
(PID.TID 0000.0001) // RANGE J (Lo:Hi:Step):(    40:     1:    -1)
(PID.TID 0000.0001) // RANGE K (Lo:Hi:Step):(   1:   1:   1)
(PID.TID 0000.0001) // =======================================================
(PID.TID 0000.0001) K =   1
(PID.TID 0000.0001)                I=10      I=20      I=30      I=40      I=50      I=60      I=70      I=80      I=90
(PID.TID 0000.0001) |--J--|123456789|123456789|123456789|123456789|123456789|123456789|123456789|123456789|123456789|
(PID.TID 0000.0001)     40 lmpqp.onmllllm...ll..................................................................jkkll
(PID.TID 0000.0001)     39 mmmnnlkjjjkkm...........................................................mlkl........ikllmm
(PID.TID 0000.0001)     38 mmm.......................................................................ljm......kj.onmm
(PID.TID 0000.0001)     37 no...................................................................ll...kjl...hkpoo.ooml
(PID.TID 0000.0001)     36 on.........................................oonm....................nkm....hgjl.gglnnnnnpon
(PID.TID 0000.0001)     35 ...................................mllm..mnoprrq...iilnp...................hhghijkllllnr..
(PID.TID 0000.0001)     34 ....................................khh.mmnoppoo.mllllmno...................leggfgiiiiln..
(PID.TID 0000.0001)     33 ....................................ngfhjkklmnmmmlkllllllnn.................xmkiffghgghjm.
(PID.TID 0000.0001)     32 ....................................qkghijkkklkkllllmmmmllm................usmijhhhihhil..
(PID.TID 0000.0001)     31 ....................................oljjjjkkkllklllmooonmkm..............qomkiiiiijjjjkn..
(PID.TID 0000.0001)     30 ...................................oomlklllkklmlllmnppponmm............qsppnmlkkkkkkllmn..
(PID.TID 0000.0001)     29 .................................pqpnlkklmmllllkkklmnonnmmml...........nponmlkjjkjjklmoo..
(PID.TID 0000.0001)     28 ...............................looonlkjjkllkkkjjkkklmmlllmmll.........knnmllljjkkjkkln....
(PID.TID 0000.0001)     27 ..............lm..............ppppnmlkkklkkllkjkkkllllllmmmmlk...mmoo.mmmmmnnmmllmmmmn....
(PID.TID 0000.0001)     26 ..............oop...........nqrttttrppqponnnoooononnoppqqqppolkl....pqoopopqrqqqqrqqqp....
(PID.TID 0000.0001)     25 ..............qqrn...nlm...ppq.wxyyxxxxxvuutttttttttuvwwxxwuspnlm....stwuwwvuvwwvuttts....
(PID.TID 0000.0001)     24 ............osttsoi.nmkk...nnl..styyzz+++yxwwwwwxxwwxxxxyyxvusqppqqp.....uxyxxyzxvuuvt....
(PID.TID 0000.0001)     23 ............kmqssqm.gjnp...ko...aioqrstvvutsssrrrrststsstutrqpnnnopqo.......oqsuuutsss....
(PID.TID 0000.0001)     22 n...........gjnpponliknp......jg-befhikmnnnmlllmnoqrrstuuutspmllmmnoom........ppqstrqommno
(PID.TID 0000.0001)     21 mkj........kkmmllllkjlprq......i.ccfhgiklllllmnpqqrsrsuwwvutrqpppoonnm.........knstttrpoom
(PID.TID 0000.0001)     20 ihi.......notuspmklmnnopm......g......vqqonopprssrqrsrsttssstttsrqoonl...........wtsrrqqol
(PID.TID 0000.0001)     19 gfj.......npwwupkhjklllkjjj...fej.....rqpomnnnnonnlmoooomllnommnmlkmml...........tqooonmlj
(PID.TID 0000.0001)     18 hij.......i.xuoheddedghggjlnnlf.....npqrnkjjjihiklllmmkjihijiiiihhikmmn..........omkklkhii
(PID.TID 0000.0001)     17 ikk.......k.nrmigghgfehhhikmnn.......oqpljihgffgjmnmmlihihgggghhgfhikkk.........lnmkkkhfgh
(PID.TID 0000.0001)     16 ikm......kk.jomklljmkjklkkkkl.........lljiihggghloonmmllkjkkjjjihhiikklm........inmkkjighi
(PID.TID 0000.0001)     15 mnon....jnk.gjjkkijmmkkmnmmll.........jkjjjihiijlmnmllmlllnmmmllkklllmnon......fimmlklmlml
(PID.TID 0000.0001)     14 opro....lkkifijjjhikkkknooonm.........jkjjjhiijkkkljijkjijjjkmllllmmmmopm.....kijlmkjklmnn
(PID.TID 0000.0001)     13 noop....gfihghjkkjijkkjlnnnnl.........lihhijjjjjjjjihiiihhhhijjklllmmmpq.....qkjikkjijjkmm
(PID.TID 0000.0001)     12 nonnnlgfcehhggjjkkjjjkkmnnnmlkllln....lhhgg.lkkkkjiiijjkjiiiiiiknnmmmnop.....mkjjkkiiijklm
(PID.TID 0000.0001)     11 pponmlkiggjlkjmnonmmmmmnopponmmlllo..nlllki.olnmmlkkkkklmmlmlkjmqrponnno....llnmmlmllmmmop
(PID.TID 0000.0001)     10 ssrrrqpmlkmonoqrssqooqqrrrrrqpoommpt.llnno..wpnmnnmlmllmopqqpnnqttsqpppo..vtoprrrqqqppqqrs
(PID.TID 0000.0001)      9 uuuvvvtrqqprrsspqvsprtuutttttrrrqprtrpppop.orpooppoopppqrsusrqqsuutsrrpt.jttrstvvuutssttuu
(PID.TID 0000.0001)      8 stuuuutttsrsssronrsqrttuttssrrssrstutrponmprrqqrsrqqqqrtttttrqrrtttssrrx.gnprrtuuutssttsss
(PID.TID 0000.0001)      7 qqqpopqrrqppqqponqtrpopqqqpppqqrqqrsqonmmnqssrrsssrrqppqrqqqppqqrrrrqqppststtsrrrrqpqrrrqq
(PID.TID 0000.0001)      6 onmmmmnoponnnnnnnopqomnnnmmnoopponoonmlllmoqqqrrqppponlmmnoppooopqqqpqqqsssronnooooooppppo
(PID.TID 0000.0001)      5 mmlllllmmlllllllmmmmmllkjijkllmmlllmmmlkkmnnnnppooonnmlllmnoonnnoopppppppp..likmmmnmnnnnmm
(PID.TID 0000.0001)      4 kjjjkkjkkk............................ljijkllmnnnnnmmllmmnnnmmmllmmnnmlkk...mkklmmnnmmllkk
(PID.TID 0000.0001)      3 ..........................................jjlmmmmmmmlllmmmlkkjij..llll.....lnmmmmmllkji...
(PID.TID 0000.0001)      2 ..........................................................................................
(PID.TID 0000.0001)      1 ..........................................................................................
(PID.TID 0000.0001) // =======================================================
(PID.TID 0000.0001) // END OF FIELD                                          =
(PID.TID 0000.0001) // =======================================================
(PID.TID 0000.0001) 
(PID.TID 0000.0001) // =======================================================
(PID.TID 0000.0001) // Field Current theta  at iteration         50
(PID.TID 0000.0001) // CMIN =         -1.985003201055838E+00
(PID.TID 0000.0001) // CMAX =          3.041439279516190E+01
(PID.TID 0000.0001) // CINT =          1.199977629489546E+00
(PID.TID 0000.0001) // SYMBOLS (CMIN->CMAX): -abcdefghijklmnopqrstuvwxyz+
(PID.TID 0000.0001) //                  0.0: .
(PID.TID 0000.0001) // RANGE I (Lo:Hi:Step):(     1:    90:     1)
(PID.TID 0000.0001) // RANGE J (Lo:Hi:Step):(    40:     1:    -1)
(PID.TID 0000.0001) // RANGE K (Lo:Hi:Step):(   1:   1:   1)
(PID.TID 0000.0001) // =======================================================
(PID.TID 0000.0001) K =   1
(PID.TID 0000.0001)                I=10      I=20      I=30      I=40      I=50      I=60      I=70      I=80      I=90
(PID.TID 0000.0001) |--J--|123456789|123456789|123456789|123456789|123456789|123456789|123456789|123456789|123456789|
(PID.TID 0000.0001)     40 -bbccbaa------abdddbbbbbbbbbbbbbbbbbbbbbbbbbbbbbbbbbbbbbbbbbbbbbbbbbbbbbbbbbbbbbbbbbbaaa--
(PID.TID 0000.0001)     39 bbcdcccbba----bbbddbbbbbbbbbbbbbbbbbbbbbbbbbbbbbbbbbbbbbbbbbbbbbbbbbbbbb----bbbbbbbbbaaaab
(PID.TID 0000.0001)     38 eeefeeccccbaabbbbbbbbbbbbbbbbbbbbbbbbbbbbbbbbbbbbbbbbbbbbbbbbbbbbbbbbbbb-----bbbbbbb---bcd
(PID.TID 0000.0001)     37 fggbbbbbbbbbbbbbbbbbbbbbbbbbbbbbbbbbbbbbbbbbbbbbbbbbbbbbbbbbbbbbbbbbbbbbbba-bbbbcbcdebcdee
(PID.TID 0000.0001)     36 ggbbbbbbbbbbbbbbbbbbbbbbbbbbbbbbbbbbbbbbbbbca--bbbbbbbbbbbbbbbbbbbbccccbababbdbcefgghhhhgg
(PID.TID 0000.0001)     35 fgbbbbbbbbbbbbbbbbbbbbbbbbbbbbbbbbb----bbbbcccbabbbedeffbbbbbbbbbbbbbbbbbbbcdedeefghiiiihg
(PID.TID 0000.0001)     34 bbbbbbbbbbbbbbbbbbbbbbbbbbbbbbbbbbb----bbccccdddbcddeefffbbbbbbbbbbbbbbbbbbbacdefghiijjibb
(PID.TID 0000.0001)     33 bbbbbbbbbbbbbbbbbbbbbbbbbbbbbbbbbbbb--abccddddddeeeefffgggibbbbbbbbbbbbbbbbbaacgiijkkkkkjb
(PID.TID 0000.0001)     32 bbbbbbbbbbbbbbbbbbbbbbbbbbbbbbbbbbbb-abbcddeeeeffgggghhhhiibbbbbbbbbbbbbbbbcbacjklllllkkkb
(PID.TID 0000.0001)     31 bbbbbbbbbbbbbbbbbbbbbbbbbbbbbbbbbbbbdefggghhiiiiiiiijjkkkjkbbbbbbbbbbbbbbgjkjikmnnnmmmlmbb
(PID.TID 0000.0001)     30 bbbbbbbbbbbbbbbbbbbbbbbbbbbbbbbbbbblkkkkkklllllllllllmmmmllbbbbbbbbbbbbmnoppppppppooonnnbb
(PID.TID 0000.0001)     29 bbbbbbbbbbbbbbbbbbbbbbbbbbbbbbbbbnonoonnnnnnnnnnnnnnooooonmmbbbbbbbbbbbpqqqqqqqqpqpppooobb
(PID.TID 0000.0001)     28 bbbbbbbbbbbbbbbbbbbbbbbbbbbbbbbnpppqpppppqqqpqqpqqqqqqqqpponnbbbbbbbbbrrrrrrrrqqrrqqppppbb
(PID.TID 0000.0001)     27 bbbbbbbbbbbbbbuubbbbbbbbbbbbbbqrrrrssssrssssssssssssssrrrqppppbbbsrstbtttttttttsssrrrqbbbb
(PID.TID 0000.0001)     26 bbbbbbbbbbbbbbutubbbbbbbbbbbttttttuuuuuuuuuuuuuuuuutttsssrrqrrsubttuvvvvvvvuuuuuttssrqbbbb
(PID.TID 0000.0001)     25 bbbbbbbbbbbbbbuuvwbbbwvwbbbuuvvwvvwwwwwwwwvvvvvvvvvuuutttsssttuvwbbbwwvvvvvuuvuuttsrqpbbbb
(PID.TID 0000.0001)     24 bbbbbbbbbbbbvvvvxxybwwwxbbbwwvbxwwxxxwwwwwwwwwwwwvvvvvvvuuuvvvwwwvvvbwvvvvvvvvvuuuttsrbbbb
(PID.TID 0000.0001)     23 bbbbbbbbbbbbwwwxxyybwwxxbbbxwwbbxxxxxxxxxxxxxxwwwwwwwxwwwwwwwwwwwwwwvbbbbwwwwwwvvvvvvvbbbb
(PID.TID 0000.0001)     22 wbbbbbbbbbbbwwxxxyyyxxyybbbxxbyyyyyyyyyyyyyyxxxxxxxxxxxwwwwwxwwwwwwwvwbbbbbbxxwwwwxxxyyxww
(PID.TID 0000.0001)     21 wwwbbbbbbbbxxxxxyyyyyzz++bbbbbyyzzzzzzzzzzzzyyyyyyyyyyxxwwxxxwwwwwvvvwbbbbbbbbyxxyyyyzyyxw
(PID.TID 0000.0001)     20 xwvbbbbbbbyyyyyyyzzzzzzz+bbbbbbzbzzzzz+++++zzzzzzzyzyyyyxxxxxxxxwwwwvvbbbbbbbbbyyyyyyyyxyx
(PID.TID 0000.0001)     19 wwvbbbbbbbzzzzzzzzyzzzzzzzybbbzzzbbbbb++z+++zzzzzzzzyyyyxxxxxxwwwwwwvvbbbbbbbbbbbyyxxxwwwx
(PID.TID 0000.0001)     18 vutbbbbbbbzzyyxyyxyyyyyyzzzyzz+zzbbb++zzz++zzzzzzzzzzyyyyyxxxwwwvvvvvvubbbbbbbbbbyyxxwwwww
(PID.TID 0000.0001)     17 uusbbbbbbbzbyyxxxxxyyyyxyyyyyzzbbbbbzzzzzz+zzzzzzzzzzyyyyyxxxwwvuuvuutvbbbbbbbbbyyyyxwuvvv
(PID.TID 0000.0001)     16 utsbbbbbbyzbyyxxxxxxxxxwwxxxyybbbbbbbyyyyzyzzzzzyyyyyyyyxxyxxxwwvvvuutttbbbbbbbbyyyyxwvvvu
(PID.TID 0000.0001)     15 tsrrbbbbxxybxxxxxwwwwwwwvvvwxbbbbbbbbbwxxxxxxxyxxxxxyyxyyyyyxwwwwvvuttssrbbbbbbxxyxxyxxwvu
(PID.TID 0000.0001)     14 utrqbbbbxyxwwxwvwxwvvuuuuuuuubbbbbbbbbwwwwwwwwwwwwxxxxxwxxxxxwwwvvvvtssssbbbbbwwxxxxxxwwvu
(PID.TID 0000.0001)     13 uutrbbbbwxwwwwuuuvvvvuuttttttbbbbbbbbbvvvvvvvvvvvvuuvvvvvwwxxwwvvuuuusssqbbbbvwwwwwwwwwvvu
(PID.TID 0000.0001)     12 tstsssstuvuttutssssstutrrsssrqqrrqbbbbuuuutttttssssstsssstuvuutttsttssrrbbbbbuvvvutuuuuttt
(PID.TID 0000.0001)     11 qppqrrssssrrrsrqqqppqrrpqqqppqqqqqqbbtttsssbrrrqrrrrrrrrrrssqqrrrrrssrqpbbbbprttssrrsrrqqq
(PID.TID 0000.0001)     10 mmmmnooppppppponnnnnnnnmmnmmmnooopppbqrrqqqbpqqqqqqpppppppppoopppooppppobboopppppoooopponn
(PID.TID 0000.0001)      9 jjiijjjkkkkkkkkjjijjkjjiijjjjjkllnnmmnooopbnnnooooooooooonnmmmnnmmlmmnnmbmnnnnmmmllkkllkjj
(PID.TID 0000.0001)      8 ggggggghgghhiihhggghhihgghhhhijjjjkkkklmmmmllllllllmmmllllkkkkkllkkkkklkbkllkkkjiiihhhggff
(PID.TID 0000.0001)      7 eeeeeeffggfffggfffffffeeffggggghhhhhhiijkkjjjjkkkjjiiiiiijjiiiiiiiiijjjjijjiiihhgfffffeeee
(PID.TID 0000.0001)      6 cdddeeeeeeeeeefeeeeeeeeffeeedeffffffggghhiiihhiiihgfffgfgggggffghhhhhhhhhhhhggffeedddddddd
(PID.TID 0000.0001)      5 dddeeeddddeeeeeeeeeeeeeedddeeeeeeeeeeeffffggfffffeddddeeeeeeeeeffffffffffffeeeddddddcccccd
(PID.TID 0000.0001)      4 ddddddccccccccccccdcccccbbbcccccccccccddddddddccddddddddddddddddddddddddddbbbbbccccdcccccd
(PID.TID 0000.0001)      3 ccccbbbaaabbbbbbbbbbbbbbbbbbbbbbbbbbbbbbbbbcccccccccccccbbbbbbbbbbbbbbbbbbbbbaaabbcccccbbb
(PID.TID 0000.0001)      2 bbbbbbbbbbbbbbbbbbbbbbbbbbbbbbbbbbbbbbbbbbbcccccbbbbbaaaaaaaaababbaaaabbbbbaaaaabbbbbbbbbb
(PID.TID 0000.0001)      1 bbbbbbbbbbbbbbbbbbbbbbbbbbbbbbbbbbbbbbbbbbbbbbbbbbbbbbbbbbbbbbbbbbbbbbbbbbbbbbbbbbbbbbbbbb
(PID.TID 0000.0001) // =======================================================
(PID.TID 0000.0001) // END OF FIELD                                          =
(PID.TID 0000.0001) // =======================================================
(PID.TID 0000.0001) 
(PID.TID 0000.0001) // =======================================================
(PID.TID 0000.0001) // Field Current etaN   at iteration         50
(PID.TID 0000.0001) // CMIN =         -2.160316320827569E+00
(PID.TID 0000.0001) // CMAX =          9.904262194508077E-01
(PID.TID 0000.0001) // CINT =          1.166941681584584E-01
(PID.TID 0000.0001) // SYMBOLS (CMIN->CMAX): -abcdefghijklmnopqrstuvwxyz+
(PID.TID 0000.0001) //                  0.0: .
(PID.TID 0000.0001) // RANGE I (Lo:Hi:Step):(    -1:    92:     1)
(PID.TID 0000.0001) // RANGE J (Lo:Hi:Step):(    42:    -1:    -1)
(PID.TID 0000.0001) // RANGE K (Lo:Hi:Step):(   1:   1:   1)
(PID.TID 0000.0001) // =======================================================
(PID.TID 0000.0001) K =   1
(PID.TID 0000.0001)                I=8       I=18      I=28      I=38      I=48      I=58      I=68      I=78      I=88
(PID.TID 0000.0001) |--J--|101234567|901234567|901234567|901234567|901234567|901234567|901234567|901234567|901234567|9012
(PID.TID 0000.0001)     42 ............................................gggggggggggggggfffffff..hhhh.....feedddddcccc.....
(PID.TID 0000.0001)     41 ..............................................................................................
(PID.TID 0000.0001)     40 fffffgh.jiiihhggggggg..................................................................fffffff
(PID.TID 0000.0001)     39 ffffgghiiihhggff...gg.....................................................a---........eeeeffff
(PID.TID 0000.0001)     38 ffgghhhhhiihhhh...........................................................bbba-......geeefffgg
(PID.TID 0000.0001)     37 ggghi..................................................................hg...ccb...ddded.fggggh
(PID.TID 0000.0001)     36 ghhi.........................................ooon....................kjihgfecccb.dccdefgggghhi
(PID.TID 0000.0001)     35 iiii.................................tsss..nooooon...poopp...........mlk....dccccccdeffghhiiii
(PID.TID 0000.0001)     34 .....................................tssr.pooooooo.poooopqr..................ffeeeeefghijl....
(PID.TID 0000.0001)     33 k.....................................tsrqpppoopppppppppqrsst.................jhhhhhiijkkkk...
(PID.TID 0000.0001)     32 l.....................................utsqqqqqqqqqqqqqqrrsstt................ilkjkkkkllllll...
(PID.TID 0000.0001)     31 ......................................utssrrrrrrsrrsssssttttu..............oooonmmmmlllllm....
(PID.TID 0000.0001)     30 .....................................vvvutttttttttttttttuuuuu............nqppqqppoonnmmmmm....
(PID.TID 0000.0001)     29 ...................................vxxyxxwwwwvvvvvvvuuuvvvvvut...........prrrrrqppoonnnnnn....
(PID.TID 0000.0001)     28 .................................vwxyzzzyyxxxxxwwwwwvvvvvvvvvuu.........qqrrrrqqpppoonnnnn....
(PID.TID 0000.0001)     27 ................pp..............xxxyzzzzzyyyyyyxxxxxxwwwwvvvvvuu...ooop.qrrrrrqqpppoonnn......
(PID.TID 0000.0001)     26 ................pqq...........xxyyyzzz+zzzzzzyyyxxxxxxxwwwvvvvuuuv.oopqrrrrrrrqqpppooonn......
(PID.TID 0000.0001)     25 ................qqrs...tss...yxxxzzzzzzyzzzzyyyyxxxxxxwwwwvvvvvvvvv...rrsssrrqqqqpppooon......
(PID.TID 0000.0001)     24 ..............rrrrsst.tttt...zyy.+zzyyyyyyyyyyyxxxxwwwwwwvvvvvvvwwwwvv.srrrrqqqqqppppooo......
(PID.TID 0000.0001)     23 ..............srrrsss.uttt...zzy..zzyxxxxyyxxxxxxxxxxwwwwwvvvvvvvvvvvvv....qqqrrqqpppppp......
(PID.TID 0000.0001)     22 qqq...........ssrrsssttttt...zz.yyzzyyyyyyyyyyyyyyyxxxxxxwwwwvvvvvvvvvvw......srrqqqqqrqqqqqq.
(PID.TID 0000.0001)     21 qqqqq........ssssssssttuuuu.....yzzzyyzyzzzzyyyyyyxxxxxxxxwwwwwwwwvvvvvw........rrrrrrrrqqqqqq
(PID.TID 0000.0001)     20 qqqqq.......ttttsttttuuuuuv......y.yyyyyzzzzzyyyyyyxxxxxxxwwwwwwwwvvvvvv.........rrrrrrqqqqqqq
(PID.TID 0000.0001)     19 qqqqp.......ttttttuutuuuuuuuu...vxx.....+yyyyyyyyyyyxxxxxxwwwwwwwwvvvvvv...........ssrrqqqqqqq
(PID.TID 0000.0001)     18 qpppp.......uuutttttttuuttuuuuuuuww...zzyxxyxxyyyyyyyyyxxxxwwwwwvvvvvvvvu..........tsrrqqqqppp
(PID.TID 0000.0001)     17 qpppo.......u.wuuttttuuuuuuuuuuuu.....zyxxxxxxxxxxxyyyyxxxxxxxwwwwvvvvvvv.........vtssrqqqqppp
(PID.TID 0000.0001)     16 qqqpo......wu.xvvuuuvvuuuuuttttt.......yxxxxxxxxxxxyyyyyxxxxxxxxwwwwwvvuuu........utsssrrqqqqp
(PID.TID 0000.0001)     15 rrqqpo....uut.wvvuuuvuuuuuttsst.........wvvwwwxxxxxxyyyyyyyyyyyyxxwwwwvvutt......stttttsssrrqq
(PID.TID 0000.0001)     14 ssrqpp....tttsuuuuuuuutttttsrrq.........uuuuvvwwwwwxxxxxxyyyyyyyyxxxxwwvutt.....qrstttttttssrq
(PID.TID 0000.0001)     13 tssrqp....sttttuttttutttuutsrqp.........sttuuuuvvvvvvvwwxxxxyyzyyyxxxwwvutt....qrsstttttuutssr
(PID.TID 0000.0001)     12 tsrrqqomoprttttuttttttttttssrrqqqqqq....rsssttttuuuuuuvvvwwwxxxxxxxxwwvvut.....ssssssstttttsrr
(PID.TID 0000.0001)     11 srrqppppqqrstttuttsssssstsssrrqqqqrrs..qrrrrr.sttuttuuuvvvvvwwwwxxxwwvvutt....rsssssrrrrsssrrq
(PID.TID 0000.0001)     10 qppooononoopqqqrrrqppqqrrrrrqqpqqqqrss.rrrqqq.qsttttuuuvvvvvvvvvwxwwvuuttt..sqssrqqpppppqqqppo
(PID.TID 0000.0001)      9 nnmmmmllkkllmmmmmmmllmnoooooooooppqrssrrrrrr.vttttuuuuuuvvvvvuuvvvvuutttts.xvtssrqonnmmnnmnnmm
(PID.TID 0000.0001)      8 iijjjiihhhhhijjjjjljijkllllllmmmnnooqqqqqrstwutsssssttuuuuuuttttuuutttttux.xusqponlkkjjjjjiijj
(PID.TID 0000.0001)      7 gggffffffggggghhiijkihhhiiijjjkkkkllllllmoprrrrqqqpppppqrrrqrqrrsssssssstvvusrpnmljihhhhgggggf
(PID.TID 0000.0001)      6 eedddeeffffffggghijjjihhhhhiiiijiiiiiiiijkmnooonnnmlllllmnnoooooppppppppqqqpnmljihhggggfffeedd
(PID.TID 0000.0001)      5 dddddeeefffffffgghhhhhhhhhhhhhhhhhhhhhhhhiijkkkkkjiiiiiiijkllllllmmmllllllkjiggfffffeeeeeddddd
(PID.TID 0000.0001)      4 dddeeeeeffffggghhhhhhhhhhiiiiiiihhhhgggggghhhhhhhhhgggghhiiiiiiiijjjjiiiiiii..cddeeeddddddddde
(PID.TID 0000.0001)      3 eeeffffffggg............................hghhhhhhhggggggggggggggggghhhhhhhih..feeeeddddddddeeef
(PID.TID 0000.0001)      2 ............................................gggggggggggggggfffffff..hhhh.....feedddddcccc.....
(PID.TID 0000.0001)      1 ..............................................................................................
(PID.TID 0000.0001)      0 fffffgh.jiiihhggggggg..................................................................fffffff
(PID.TID 0000.0001)     -1 ffffgghiiihhggff...gg.....................................................a---........eeeeffff
(PID.TID 0000.0001) // =======================================================
(PID.TID 0000.0001) // END OF FIELD                                          =
(PID.TID 0000.0001) // =======================================================
(PID.TID 0000.0001) 
(PID.TID 0000.0001)  MDS_WRITE_FIELD: it,rec,kS,kL,kH=      50     1  15   1  15 file=U.0000000050
(PID.TID 0000.0001)  MDS_WRITE_FIELD: it,rec,kS,kL,kH=      50     1  15   1  15 file=V.0000000050
(PID.TID 0000.0001)  MDS_WRITE_FIELD: it,rec,kS,kL,kH=      50     1  15   1  15 file=T.0000000050
(PID.TID 0000.0001)  MDS_WRITE_FIELD: it,rec,kS,kL,kH=      50     1  15   1  15 file=S.0000000050
(PID.TID 0000.0001)  MDS_WRITE_FIELD: it,rec,kS,kL,kH=      50     1   1   1   1 file=Eta.0000000050
(PID.TID 0000.0001)  MDS_WRITE_FIELD: it,rec,kS,kL,kH=      50     1  15   1  15 file=W.0000000050
(PID.TID 0000.0001)  MDS_WRITE_FIELD: it,rec,kS,kL,kH=      50     1  15   1  15 file=PH.0000000050
(PID.TID 0000.0001)  MDS_WRITE_FIELD: it,rec,kS,kL,kH=      50     1   1   1   1 file=PHL.0000000050
(PID.TID 0000.0001)  MDS_WRITE_FIELD: it,rec,kS,kL,kH=      50     1   1   1   1 file=ETAtave.0000000050
(PID.TID 0000.0001)  MDS_WRITE_FIELD: it,rec,kS,kL,kH=      50     1  15   1  15 file=Ttave.0000000050
(PID.TID 0000.0001)  MDS_WRITE_FIELD: it,rec,kS,kL,kH=      50     1  15   1  15 file=Stave.0000000050
(PID.TID 0000.0001)  MDS_WRITE_FIELD: it,rec,kS,kL,kH=      50     1  15   1  15 file=uVeltave.0000000050
(PID.TID 0000.0001)  MDS_WRITE_FIELD: it,rec,kS,kL,kH=      50     1  15   1  15 file=vVeltave.0000000050
(PID.TID 0000.0001)  MDS_WRITE_FIELD: it,rec,kS,kL,kH=      50     1  15   1  15 file=wVeltave.0000000050
(PID.TID 0000.0001)  MDS_WRITE_FIELD: it,rec,kS,kL,kH=      50     1   1   1   1 file=Eta2tave.0000000050
(PID.TID 0000.0001)  MDS_WRITE_FIELD: it,rec,kS,kL,kH=      50     1  15   1  15 file=UTtave.0000000050
(PID.TID 0000.0001)  MDS_WRITE_FIELD: it,rec,kS,kL,kH=      50     1  15   1  15 file=VTtave.0000000050
(PID.TID 0000.0001)  MDS_WRITE_FIELD: it,rec,kS,kL,kH=      50     1  15   1  15 file=WTtave.0000000050
(PID.TID 0000.0001)  MDS_WRITE_FIELD: it,rec,kS,kL,kH=      50     1  15   1  15 file=UStave.0000000050
(PID.TID 0000.0001)  MDS_WRITE_FIELD: it,rec,kS,kL,kH=      50     1  15   1  15 file=VStave.0000000050
(PID.TID 0000.0001)  MDS_WRITE_FIELD: it,rec,kS,kL,kH=      50     1  15   1  15 file=WStave.0000000050
(PID.TID 0000.0001)  MDS_WRITE_FIELD: it,rec,kS,kL,kH=      50     1  15   1  15 file=TTtave.0000000050
(PID.TID 0000.0001)  MDS_WRITE_FIELD: it,rec,kS,kL,kH=      50     1  15   1  15 file=UUtave.0000000050
(PID.TID 0000.0001)  MDS_WRITE_FIELD: it,rec,kS,kL,kH=      50     1  15   1  15 file=VVtave.0000000050
(PID.TID 0000.0001)  MDS_WRITE_FIELD: it,rec,kS,kL,kH=      50     1  15   1  15 file=UVtave.0000000050
(PID.TID 0000.0001)  MDS_WRITE_FIELD: it,rec,kS,kL,kH=      50     1  15   1  15 file=Tdiftave.0000000050
(PID.TID 0000.0001)  MDS_WRITE_FIELD: it,rec,kS,kL,kH=      50     1  15   1  15 file=PhHytave.0000000050
(PID.TID 0000.0001)  MDS_WRITE_FIELD: it,rec,kS,kL,kH=      50     1   1   1   1 file=PHLtave.0000000050
(PID.TID 0000.0001)  MDS_WRITE_FIELD: it,rec,kS,kL,kH=      50     1   1   1   1 file=uFluxtave.0000000050
(PID.TID 0000.0001)  MDS_WRITE_FIELD: it,rec,kS,kL,kH=      50     1   1   1   1 file=vFluxtave.0000000050
(PID.TID 0000.0001)  MDS_WRITE_FIELD: it,rec,kS,kL,kH=      50     1   1   1   1 file=tFluxtave.0000000050
(PID.TID 0000.0001)  MDS_WRITE_FIELD: it,rec,kS,kL,kH=      50     1   1   1   1 file=sFluxtave.0000000050
(PID.TID 0000.0001)  MDS_WRITE_FIELD: it,rec,kS,kL,kH=      50     1   1   1   1 file=PHL2tave.0000000050
(PID.TID 0000.0001)  MDS_WRITE_FIELD: it,rec,kS,kL,kH=      50     1  15   1  15 file=Convtave.0000000050
(PID.TID 0000.0001) // Time-average data written, t-step        50
(PID.TID 0000.0001) 
(PID.TID 0000.0001)  MDS_WRITE_FIELD: it,rec,kS,kL,kH=      50     1  15   1  15 file=GM_Kwx-T.0000000050
(PID.TID 0000.0001)  MDS_WRITE_FIELD: it,rec,kS,kL,kH=      50     1  15   1  15 file=GM_Kwy-T.0000000050
(PID.TID 0000.0001)  MDS_WRITE_FIELD: it,rec,kS,kL,kH=      50     1  15   1  15 file=GM_Kwz-T.0000000050
(PID.TID 0000.0001)  MDS_WRITE_FIELD: it,rec,kS,kL,kH=      50     1  15   1  15 file=pickup_cd.0000000050
(PID.TID 0000.0001)  MDS_WRITE_FIELD: it,rec,kS,kL,kH=      50     2  15   1  15 file=pickup_cd.0000000050
(PID.TID 0000.0001)  MDS_WRITE_FIELD: it,rec,kS,kL,kH=      50     3  15   1  15 file=pickup_cd.0000000050
(PID.TID 0000.0001)  MDS_WRITE_FIELD: it,rec,kS,kL,kH=      50     4  15   1  15 file=pickup_cd.0000000050
(PID.TID 0000.0001)  MDS_WRITE_FIELD: it,rec,kS,kL,kH=      50    61   1   1   1 file=pickup_cd.0000000050
(PID.TID 0000.0001)  MDS_WRITE_FIELD: it,rec,kS,kL,kH=      50    -1  15   1  15 file=pickup.0000000050
(PID.TID 0000.0001)  MDS_WRITE_FIELD: it,rec,kS,kL,kH=      50    -2  15   1  15 file=pickup.0000000050
(PID.TID 0000.0001)  MDS_WRITE_FIELD: it,rec,kS,kL,kH=      50    -3  15   1  15 file=pickup.0000000050
(PID.TID 0000.0001)  MDS_WRITE_FIELD: it,rec,kS,kL,kH=      50    -4  15   1  15 file=pickup.0000000050
(PID.TID 0000.0001)  MDS_WRITE_FIELD: it,rec,kS,kL,kH=      50    -5  15   1  15 file=pickup.0000000050
(PID.TID 0000.0001)  MDS_WRITE_FIELD: it,rec,kS,kL,kH=      50    -6  15   1  15 file=pickup.0000000050
(PID.TID 0000.0001)  MDS_WRITE_FIELD: it,rec,kS,kL,kH=      50    -7  15   1  15 file=pickup.0000000050
(PID.TID 0000.0001)  MDS_WRITE_FIELD: it,rec,kS,kL,kH=      50    -8  15   1  15 file=pickup.0000000050
(PID.TID 0000.0001)  MDS_WRITE_FIELD: it,rec,kS,kL,kH=      50  -121   1   1   1 file=pickup.0000000050
(PID.TID 0000.0001)  MDS_WRITE_FIELD: it,rec,kS,kL,kH=      50  -122   1   1   1 file=pickup.0000000050
(PID.TID 0000.0001)  MDS_WRITE_FIELD: it,rec,kS,kL,kH=      50  -123   1   1   1 file=pickup.0000000050
(PID.TID 0000.0001) %CHECKPOINT        50 0000000050
 EXTERNAL_FIELDS_LOAD,        50 : iP,iLd,i0,i1=    2    3    2    3 ; Wght=  0.8333333333  0.1666666667
 EXTERNAL_FIELDS_LOAD: (fu0,1),fu,fv= -1.4435E-02 -2.7199E-02 -1.6562E-02 -1.4793E-02
 EXTERNAL_FIELDS_LOAD: SST,SSS,Q,E-P= -4.7386E-01  3.4447E+01  2.3630E+02  8.4945E-06
DEBUG_STATS_RL:          Uvel (THERMODYNAMICS)  min= -1.66597389815648E-01
DEBUG_STATS_RL:          Uvel (THERMODYNAMICS)  max=  1.81695444450257E-01
DEBUG_STATS_RL:          Uvel (THERMODYNAMICS) mean=  2.27382969455876E-03
DEBUG_STATS_RL:          Uvel (THERMODYNAMICS) S.D.=  2.75423960492749E-02
DEBUG_STATS_RL:          Vvel (THERMODYNAMICS)  min= -1.17588431908379E-01
DEBUG_STATS_RL:          Vvel (THERMODYNAMICS)  max=  1.37291810468788E-01
DEBUG_STATS_RL:          Vvel (THERMODYNAMICS) mean=  1.61497126173624E-03
DEBUG_STATS_RL:          Vvel (THERMODYNAMICS) S.D.=  1.72417642841608E-02
DEBUG_STATS_RL:          Wvel (THERMODYNAMICS)  min= -1.65645525331540E-04
DEBUG_STATS_RL:          Wvel (THERMODYNAMICS)  max=  1.36088338587925E-04
DEBUG_STATS_RL:          Wvel (THERMODYNAMICS) mean=  8.44202314177975E-09
DEBUG_STATS_RL:          Wvel (THERMODYNAMICS) S.D.=  1.70170798432158E-05
DEBUG_STATS_RL:         Theta (THERMODYNAMICS)  min= -1.98298019696839E+00
DEBUG_STATS_RL:         Theta (THERMODYNAMICS)  max=  3.04395031171275E+01
DEBUG_STATS_RL:         Theta (THERMODYNAMICS) mean=  3.24765584908025E+00
DEBUG_STATS_RL:         Theta (THERMODYNAMICS) S.D.=  5.87171510546897E+00
DEBUG_STATS_RL:          Salt (THERMODYNAMICS)  min=  3.00000000000000E-02
DEBUG_STATS_RL:          Salt (THERMODYNAMICS)  max=  3.74929969127146E+01
DEBUG_STATS_RL:          Salt (THERMODYNAMICS) mean=  1.88749369088573E+01
DEBUG_STATS_RL:          Salt (THERMODYNAMICS) S.D.=  1.73004544049421E+01
DEBUG_STATS_RL:         GtNm1 (THERMODYNAMICS)  min= -5.03157599893473E-06
DEBUG_STATS_RL:         GtNm1 (THERMODYNAMICS)  max=  2.86889426277578E-06
DEBUG_STATS_RL:         GtNm1 (THERMODYNAMICS) mean=  5.49708454020936E-09
DEBUG_STATS_RL:         GtNm1 (THERMODYNAMICS) S.D.=  2.08746380967428E-07
DEBUG_STATS_RL:         GsNm1 (THERMODYNAMICS)  min= -4.65377373161399E-07
DEBUG_STATS_RL:         GsNm1 (THERMODYNAMICS)  max=  3.31060425704329E-07
DEBUG_STATS_RL:         GsNm1 (THERMODYNAMICS) mean= -1.46155470041299E-10
DEBUG_STATS_RL:         GsNm1 (THERMODYNAMICS) S.D.=  2.03786779892761E-08
DEBUG_STATS_RL:                EtaN (DYNAMICS)  min= -2.16031632082757E+00
DEBUG_STATS_RL:                EtaN (DYNAMICS)  max=  9.90426219450808E-01
DEBUG_STATS_RL:                EtaN (DYNAMICS) mean= -1.89082564137624E-01
DEBUG_STATS_RL:                EtaN (DYNAMICS) S.D.=  7.43827175946158E-01
DEBUG_STATS_RL:                Uvel (DYNAMICS)  min= -1.66597389815648E-01
DEBUG_STATS_RL:                Uvel (DYNAMICS)  max=  1.81695444450257E-01
DEBUG_STATS_RL:                Uvel (DYNAMICS) mean=  2.27382969455876E-03
DEBUG_STATS_RL:                Uvel (DYNAMICS) S.D.=  2.75423960492749E-02
DEBUG_STATS_RL:                Vvel (DYNAMICS)  min= -1.17588431908379E-01
DEBUG_STATS_RL:                Vvel (DYNAMICS)  max=  1.37291810468788E-01
DEBUG_STATS_RL:                Vvel (DYNAMICS) mean=  1.61497126173624E-03
DEBUG_STATS_RL:                Vvel (DYNAMICS) S.D.=  1.72417642841608E-02
DEBUG_STATS_RL:                Wvel (DYNAMICS)  min= -1.65645525331540E-04
DEBUG_STATS_RL:                Wvel (DYNAMICS)  max=  1.36088338587925E-04
DEBUG_STATS_RL:                Wvel (DYNAMICS) mean=  8.44202314177975E-09
DEBUG_STATS_RL:                Wvel (DYNAMICS) S.D.=  1.70170798432158E-05
DEBUG_STATS_RL:               Theta (DYNAMICS)  min= -1.98298019696839E+00
DEBUG_STATS_RL:               Theta (DYNAMICS)  max=  3.04395031171275E+01
DEBUG_STATS_RL:               Theta (DYNAMICS) mean=  3.24765584908025E+00
DEBUG_STATS_RL:               Theta (DYNAMICS) S.D.=  5.87171510546897E+00
DEBUG_STATS_RL:                Salt (DYNAMICS)  min=  3.00000000000000E-02
DEBUG_STATS_RL:                Salt (DYNAMICS)  max=  3.74929969127146E+01
DEBUG_STATS_RL:                Salt (DYNAMICS) mean=  1.88749369088573E+01
DEBUG_STATS_RL:                Salt (DYNAMICS) S.D.=  1.73004544049421E+01
DEBUG_STATS_RL:                  Gu (DYNAMICS)  min= -1.64257295988464E-01
DEBUG_STATS_RL:                  Gu (DYNAMICS)  max=  1.84115623062695E-01
DEBUG_STATS_RL:                  Gu (DYNAMICS) mean=  2.50023064553475E-03
DEBUG_STATS_RL:                  Gu (DYNAMICS) S.D.=  2.75475568623358E-02
DEBUG_STATS_RL:                  Gv (DYNAMICS)  min= -1.16366881418268E-01
DEBUG_STATS_RL:                  Gv (DYNAMICS)  max=  1.38094383771094E-01
DEBUG_STATS_RL:                  Gv (DYNAMICS) mean=  3.55268333568800E-03
DEBUG_STATS_RL:                  Gv (DYNAMICS) S.D.=  1.84688173645069E-02
DEBUG_STATS_RL:               GuNm1 (DYNAMICS)  min= -9.78914429197835E-06
DEBUG_STATS_RL:               GuNm1 (DYNAMICS)  max=  9.00265059684744E-06
DEBUG_STATS_RL:               GuNm1 (DYNAMICS) mean=  5.85400114128965E-09
DEBUG_STATS_RL:               GuNm1 (DYNAMICS) S.D.=  1.20114564074368E-06
DEBUG_STATS_RL:               GvNm1 (DYNAMICS)  min= -9.24902981130692E-06
DEBUG_STATS_RL:               GvNm1 (DYNAMICS)  max=  1.64885260250599E-05
DEBUG_STATS_RL:               GvNm1 (DYNAMICS) mean=  7.42695086190386E-07
DEBUG_STATS_RL:               GvNm1 (DYNAMICS) S.D.=  2.61869214572839E-06
DEBUG_STATS_RL:               GtNm1 (DYNAMICS)  min= -5.03157599893473E-06
DEBUG_STATS_RL:               GtNm1 (DYNAMICS)  max=  2.86889426277578E-06
DEBUG_STATS_RL:               GtNm1 (DYNAMICS) mean=  5.49708454020936E-09
DEBUG_STATS_RL:               GtNm1 (DYNAMICS) S.D.=  2.08746380967428E-07
DEBUG_STATS_RL:               GsNm1 (DYNAMICS)  min= -4.65377373161399E-07
DEBUG_STATS_RL:               GsNm1 (DYNAMICS)  max=  3.31060425704329E-07
DEBUG_STATS_RL:               GsNm1 (DYNAMICS) mean= -1.46155470041299E-10
DEBUG_STATS_RL:               GsNm1 (DYNAMICS) S.D.=  2.03786779892761E-08
DEBUG_STATS_RL:    cg2d_b (SOLVE_FOR_PRESSURE)  min= -2.79588052561788E+04
DEBUG_STATS_RL:    cg2d_b (SOLVE_FOR_PRESSURE)  max=  2.07291217913514E+04
DEBUG_STATS_RL:    cg2d_b (SOLVE_FOR_PRESSURE) mean=  3.69002117479410E+00
DEBUG_STATS_RL:    cg2d_b (SOLVE_FOR_PRESSURE) S.D.=  3.90375206150434E+03
 cg2d: Sum(rhs),rhsMax =   3.05535195133598E-01  1.83640918684989E+00
(PID.TID 0000.0001)  cg2d: iter=     1 ; resid.=  3.10549522247388E-01
(PID.TID 0000.0001)  cg2d: iter=     2 ; resid.=  3.27653521355149E-01
(PID.TID 0000.0001)  cg2d: iter=     3 ; resid.=  3.03944962607874E-01
(PID.TID 0000.0001)  cg2d: iter=     4 ; resid.=  2.73413852808621E-01
(PID.TID 0000.0001)  cg2d: iter=     5 ; resid.=  2.81003705735067E-01
(PID.TID 0000.0001)  cg2d: iter=     6 ; resid.=  2.36740128020020E-01
(PID.TID 0000.0001)  cg2d: iter=     7 ; resid.=  1.75305921310543E-01
(PID.TID 0000.0001)  cg2d: iter=     8 ; resid.=  1.23514605931168E-01
(PID.TID 0000.0001)  cg2d: iter=     9 ; resid.=  9.51195195670236E-02
(PID.TID 0000.0001)  cg2d: iter=    10 ; resid.=  8.03138528987897E-02
(PID.TID 0000.0001)  cg2d: iter=    11 ; resid.=  7.05165834209953E-02
(PID.TID 0000.0001)  cg2d: iter=    12 ; resid.=  6.20210666679796E-02
(PID.TID 0000.0001)  cg2d: iter=    13 ; resid.=  5.30647852328311E-02
(PID.TID 0000.0001)  cg2d: iter=    14 ; resid.=  4.31009599214868E-02
(PID.TID 0000.0001)  cg2d: iter=    15 ; resid.=  3.38393368622329E-02
(PID.TID 0000.0001)  cg2d: iter=    16 ; resid.=  3.06505400952457E-02
(PID.TID 0000.0001)  cg2d: iter=    17 ; resid.=  2.55094149480121E-02
(PID.TID 0000.0001)  cg2d: iter=    18 ; resid.=  2.15478444869933E-02
(PID.TID 0000.0001)  cg2d: iter=    19 ; resid.=  1.72210381794687E-02
(PID.TID 0000.0001)  cg2d: iter=    20 ; resid.=  1.41124491856125E-02
(PID.TID 0000.0001)  cg2d: iter=    21 ; resid.=  1.21439138920942E-02
(PID.TID 0000.0001)  cg2d: iter=    22 ; resid.=  1.06304364577490E-02
(PID.TID 0000.0001)  cg2d: iter=    23 ; resid.=  8.70402224623951E-03
(PID.TID 0000.0001)  cg2d: iter=    24 ; resid.=  7.41819895376537E-03
(PID.TID 0000.0001)  cg2d: iter=    25 ; resid.=  5.80119331678184E-03
(PID.TID 0000.0001)  cg2d: iter=    26 ; resid.=  4.54565615725735E-03
(PID.TID 0000.0001)  cg2d: iter=    27 ; resid.=  3.73260773243675E-03
(PID.TID 0000.0001)  cg2d: iter=    28 ; resid.=  2.84339372020755E-03
(PID.TID 0000.0001)  cg2d: iter=    29 ; resid.=  2.19638553395007E-03
(PID.TID 0000.0001)  cg2d: iter=    30 ; resid.=  1.90761307848679E-03
(PID.TID 0000.0001)  cg2d: iter=    31 ; resid.=  1.58096458252773E-03
(PID.TID 0000.0001)  cg2d: iter=    32 ; resid.=  1.23953125892835E-03
(PID.TID 0000.0001)  cg2d: iter=    33 ; resid.=  1.01339160440505E-03
(PID.TID 0000.0001)  cg2d: iter=    34 ; resid.=  8.70005054206059E-04
(PID.TID 0000.0001)  cg2d: iter=    35 ; resid.=  7.17238426058564E-04
(PID.TID 0000.0001)  cg2d: iter=    36 ; resid.=  6.26039291669719E-04
(PID.TID 0000.0001)  cg2d: iter=    37 ; resid.=  5.20100927284247E-04
(PID.TID 0000.0001)  cg2d: iter=    38 ; resid.=  4.57543819368491E-04
(PID.TID 0000.0001)  cg2d: iter=    39 ; resid.=  3.78362602717875E-04
(PID.TID 0000.0001)  cg2d: iter=    40 ; resid.=  3.13600770182397E-04
(PID.TID 0000.0001)  cg2d: iter=    41 ; resid.=  2.75116139960181E-04
(PID.TID 0000.0001)  cg2d: iter=    42 ; resid.=  2.38062446646788E-04
(PID.TID 0000.0001)  cg2d: iter=    43 ; resid.=  1.92136721545789E-04
(PID.TID 0000.0001)  cg2d: iter=    44 ; resid.=  1.61981097930752E-04
(PID.TID 0000.0001)  cg2d: iter=    45 ; resid.=  1.35402943086142E-04
(PID.TID 0000.0001)  cg2d: iter=    46 ; resid.=  1.06731438767943E-04
(PID.TID 0000.0001)  cg2d: iter=    47 ; resid.=  9.25621766444313E-05
(PID.TID 0000.0001)  cg2d: iter=    48 ; resid.=  7.15867142245166E-05
(PID.TID 0000.0001)  cg2d: iter=    49 ; resid.=  6.26392488344858E-05
(PID.TID 0000.0001)  cg2d: iter=    50 ; resid.=  5.43046530949783E-05
(PID.TID 0000.0001)  cg2d: iter=    51 ; resid.=  5.02014972629486E-05
(PID.TID 0000.0001)  cg2d: iter=    52 ; resid.=  4.58512885704255E-05
(PID.TID 0000.0001)  cg2d: iter=    53 ; resid.=  3.71026190134418E-05
(PID.TID 0000.0001)  cg2d: iter=    54 ; resid.=  3.06795446643160E-05
(PID.TID 0000.0001)  cg2d: iter=    55 ; resid.=  2.69681561705650E-05
(PID.TID 0000.0001)  cg2d: iter=    56 ; resid.=  2.23558289007672E-05
(PID.TID 0000.0001)  cg2d: iter=    57 ; resid.=  1.69073996792613E-05
(PID.TID 0000.0001)  cg2d: iter=    58 ; resid.=  1.36059981491326E-05
(PID.TID 0000.0001)  cg2d: iter=    59 ; resid.=  1.02004873008281E-05
(PID.TID 0000.0001)  cg2d: iter=    60 ; resid.=  7.66943405571957E-06
(PID.TID 0000.0001)  cg2d: iter=    61 ; resid.=  6.75631895794427E-06
(PID.TID 0000.0001)  cg2d: iter=    62 ; resid.=  6.02677661145692E-06
(PID.TID 0000.0001)  cg2d: iter=    63 ; resid.=  5.17247731217288E-06
(PID.TID 0000.0001)  cg2d: iter=    64 ; resid.=  4.30115536566777E-06
(PID.TID 0000.0001)  cg2d: iter=    65 ; resid.=  3.36569310204880E-06
(PID.TID 0000.0001)  cg2d: iter=    66 ; resid.=  2.74892341864076E-06
(PID.TID 0000.0001)  cg2d: iter=    67 ; resid.=  2.39963128916015E-06
(PID.TID 0000.0001)  cg2d: iter=    68 ; resid.=  2.04561118819616E-06
(PID.TID 0000.0001)  cg2d: iter=    69 ; resid.=  1.75528926575949E-06
(PID.TID 0000.0001)  cg2d: iter=    70 ; resid.=  1.51642715214956E-06
(PID.TID 0000.0001)  cg2d: iter=    71 ; resid.=  1.21159095147927E-06
(PID.TID 0000.0001)  cg2d: iter=    72 ; resid.=  1.03117455388167E-06
(PID.TID 0000.0001)  cg2d: iter=    73 ; resid.=  9.04316851107096E-07
(PID.TID 0000.0001)  cg2d: iter=    74 ; resid.=  7.68422512878734E-07
(PID.TID 0000.0001)  cg2d: iter=    75 ; resid.=  6.00466199452394E-07
(PID.TID 0000.0001)  cg2d: iter=    76 ; resid.=  5.07069624111189E-07
(PID.TID 0000.0001)  cg2d: iter=    77 ; resid.=  4.09614656770820E-07
(PID.TID 0000.0001)  cg2d: iter=    78 ; resid.=  2.93841773078363E-07
(PID.TID 0000.0001)  cg2d: iter=    79 ; resid.=  2.23357082937474E-07
(PID.TID 0000.0001)  cg2d: iter=    80 ; resid.=  1.63287799582489E-07
(PID.TID 0000.0001)  cg2d: iter=    81 ; resid.=  1.27647048400809E-07
(PID.TID 0000.0001)  cg2d: iter=    82 ; resid.=  9.68423727742803E-08
(PID.TID 0000.0001)  cg2d: iter=    83 ; resid.=  7.21580123159212E-08
(PID.TID 0000.0001)  cg2d: iter=    84 ; resid.=  5.37174077032168E-08
(PID.TID 0000.0001)  cg2d: iter=    85 ; resid.=  4.06909818341522E-08
(PID.TID 0000.0001)  cg2d: iter=    86 ; resid.=  3.05165640057269E-08
(PID.TID 0000.0001)  cg2d: iter=    87 ; resid.=  2.49912174019756E-08
(PID.TID 0000.0001)  cg2d: iter=    88 ; resid.=  2.08893262504505E-08
(PID.TID 0000.0001)  cg2d: iter=    89 ; resid.=  1.82202374688569E-08
(PID.TID 0000.0001)  cg2d: iter=    90 ; resid.=  1.40458730716345E-08
(PID.TID 0000.0001)  cg2d: iter=    91 ; resid.=  1.06419867682359E-08
(PID.TID 0000.0001)  cg2d: iter=    92 ; resid.=  7.72240068587622E-09
(PID.TID 0000.0001)  cg2d: iter=    93 ; resid.=  5.95440089958405E-09
(PID.TID 0000.0001)  cg2d: iter=    94 ; resid.=  4.62501126102039E-09
(PID.TID 0000.0001)  cg2d: iter=    95 ; resid.=  3.68887912890721E-09
(PID.TID 0000.0001)  cg2d: iter=    96 ; resid.=  2.65793107994441E-09
(PID.TID 0000.0001)  cg2d: iter=    97 ; resid.=  2.16308787024174E-09
(PID.TID 0000.0001)  cg2d: iter=    98 ; resid.=  1.85549305273656E-09
(PID.TID 0000.0001)  cg2d: iter=    99 ; resid.=  1.61421878358804E-09
(PID.TID 0000.0001)  cg2d: iter=   100 ; resid.=  1.51720747701819E-09
(PID.TID 0000.0001)  cg2d: iter=   101 ; resid.=  1.22418614161478E-09
(PID.TID 0000.0001)  cg2d: iter=   102 ; resid.=  1.04688946477525E-09
(PID.TID 0000.0001)  cg2d: iter=   103 ; resid.=  8.02883052723809E-10
(PID.TID 0000.0001)  cg2d: iter=   104 ; resid.=  6.47701517676193E-10
(PID.TID 0000.0001)  cg2d: iter=   105 ; resid.=  5.12940825134255E-10
(PID.TID 0000.0001)  cg2d: iter=   106 ; resid.=  4.11542547082770E-10
(PID.TID 0000.0001)  cg2d: iter=   107 ; resid.=  3.00887379796183E-10
(PID.TID 0000.0001)  cg2d: iter=   108 ; resid.=  2.14594321527576E-10
(PID.TID 0000.0001)  cg2d: iter=   109 ; resid.=  1.59814381255902E-10
(PID.TID 0000.0001)  cg2d: iter=   110 ; resid.=  1.23281027756479E-10
(PID.TID 0000.0001)  cg2d: iter=   111 ; resid.=  1.01721310123083E-10
(PID.TID 0000.0001)  cg2d: iter=   112 ; resid.=  8.33206464891977E-11
(PID.TID 0000.0001)  cg2d: iter=   113 ; resid.=  6.68064589593420E-11
(PID.TID 0000.0001)  cg2d: iter=   114 ; resid.=  5.51158682958916E-11
(PID.TID 0000.0001)  cg2d: iter=   115 ; resid.=  4.20893569558793E-11
(PID.TID 0000.0001)  cg2d: iter=   116 ; resid.=  3.11644168697588E-11
(PID.TID 0000.0001)  cg2d: iter=   117 ; resid.=  2.32762830577487E-11
(PID.TID 0000.0001)  cg2d: iter=   118 ; resid.=  1.72243375786437E-11
(PID.TID 0000.0001)  cg2d: iter=   119 ; resid.=  1.23639634024796E-11
(PID.TID 0000.0001)  cg2d: iter=   120 ; resid.=  8.95934447442001E-12
(PID.TID 0000.0001)  cg2d: iter=   121 ; resid.=  6.58515786761028E-12
(PID.TID 0000.0001)  cg2d: iter=   122 ; resid.=  5.34137952718589E-12
(PID.TID 0000.0001)  cg2d: iter=   123 ; resid.=  3.96570150431175E-12
(PID.TID 0000.0001)  cg2d: iter=   124 ; resid.=  3.13810175838058E-12
(PID.TID 0000.0001)  cg2d: iter=   125 ; resid.=  2.31686561828591E-12
(PID.TID 0000.0001)  cg2d: iter=   126 ; resid.=  1.58416508711073E-12
(PID.TID 0000.0001)  cg2d: iter=   127 ; resid.=  1.10792117210320E-12
(PID.TID 0000.0001)  cg2d: iter=   128 ; resid.=  8.29356386212485E-13
(PID.TID 0000.0001)  cg2d: iter=   129 ; resid.=  6.22779633589522E-13
(PID.TID 0000.0001)  cg2d: iter=   130 ; resid.=  4.64839416760589E-13
(PID.TID 0000.0001)  cg2d: iter=   131 ; resid.=  3.45346725336503E-13
(PID.TID 0000.0001)  cg2d: iter=   132 ; resid.=  2.84661173707497E-13
(PID.TID 0000.0001)  cg2d: iter=   133 ; resid.=  2.53218524435896E-13
(PID.TID 0000.0001)  cg2d: iter=   134 ; resid.=  2.02834805199918E-13
(PID.TID 0000.0001)  cg2d: iter=   135 ; resid.=  1.43961719400753E-13
(PID.TID 0000.0001)  cg2d: iter=   136 ; resid.=  9.35233263362479E-14
DEBUG_STATS_RL:    cg2d_x (SOLVE_FOR_PRESSURE)  min= -2.13009986411710E+01
DEBUG_STATS_RL:    cg2d_x (SOLVE_FOR_PRESSURE)  max=  8.69771541235417E+00
DEBUG_STATS_RL:    cg2d_x (SOLVE_FOR_PRESSURE) mean= -1.81379574783208E+00
DEBUG_STATS_RL:    cg2d_x (SOLVE_FOR_PRESSURE) S.D.=  6.92577749484860E+00
(PID.TID 0000.0001)      cg2d_init_res =   4.28137042103634E-01
(PID.TID 0000.0001)      cg2d_iters(min,last) =      -1     136
(PID.TID 0000.0001)      cg2d_last_res =   9.35233263362479E-14
(PID.TID 0000.0001) // =======================================================
(PID.TID 0000.0001) // Begin MONITOR dynamic field statistics
(PID.TID 0000.0001) // =======================================================
(PID.TID 0000.0001) %MON time_tsnumber                =                    51
(PID.TID 0000.0001) %MON time_secondsf                =   4.4064000000000E+06
(PID.TID 0000.0001) %MON dynstat_eta_max              =   8.8661726935310E-01
(PID.TID 0000.0001) %MON dynstat_eta_min              =  -2.1713556209145E+00
(PID.TID 0000.0001) %MON dynstat_eta_mean             =  -3.8500795483778E-03
(PID.TID 0000.0001) %MON dynstat_eta_sd               =   6.1094560434536E-01
(PID.TID 0000.0001) %MON dynstat_eta_del2             =   2.4247903819248E-03
(PID.TID 0000.0001) %MON dynstat_uvel_max             =   1.7849618549938E-01
(PID.TID 0000.0001) %MON dynstat_uvel_min             =  -1.6583572162051E-01
(PID.TID 0000.0001) %MON dynstat_uvel_mean            =  -4.3908169726062E-04
(PID.TID 0000.0001) %MON dynstat_uvel_sd              =   2.1425432766174E-02
(PID.TID 0000.0001) %MON dynstat_uvel_del2            =   1.2876483622283E-04
(PID.TID 0000.0001) %MON dynstat_vvel_max             =   1.3667656761221E-01
(PID.TID 0000.0001) %MON dynstat_vvel_min             =  -1.1446111897566E-01
(PID.TID 0000.0001) %MON dynstat_vvel_mean            =   9.2436573773379E-05
(PID.TID 0000.0001) %MON dynstat_vvel_sd              =   1.2138464357351E-02
(PID.TID 0000.0001) %MON dynstat_vvel_del2            =   9.8331044770264E-05
(PID.TID 0000.0001) %MON dynstat_wvel_max             =   1.6078334533631E-04
(PID.TID 0000.0001) %MON dynstat_wvel_min             =  -1.5998811729734E-04
(PID.TID 0000.0001) %MON dynstat_wvel_mean            =  -4.3057191636482E-22
(PID.TID 0000.0001) %MON dynstat_wvel_sd              =   1.9351918284852E-05
(PID.TID 0000.0001) %MON dynstat_wvel_del2            =   1.8928797872785E-07
(PID.TID 0000.0001) %MON dynstat_theta_max            =   3.0439503117128E+01
(PID.TID 0000.0001) %MON dynstat_theta_min            =  -1.9829801969684E+00
(PID.TID 0000.0001) %MON dynstat_theta_mean           =   3.6524704303016E+00
(PID.TID 0000.0001) %MON dynstat_theta_sd             =   4.4216307086388E+00
(PID.TID 0000.0001) %MON dynstat_theta_del2           =   4.8334430983364E-03
(PID.TID 0000.0001) %MON dynstat_salt_max             =   3.7492996912715E+01
(PID.TID 0000.0001) %MON dynstat_salt_min             =   2.9870204413199E+01
(PID.TID 0000.0001) %MON dynstat_salt_mean            =   3.4747994936207E+01
(PID.TID 0000.0001) %MON dynstat_salt_sd              =   2.9640320758068E-01
(PID.TID 0000.0001) %MON dynstat_salt_del2            =   9.8803347276180E-04
(PID.TID 0000.0001) %MON dynstat_sst_max              =   3.0439503117128E+01
(PID.TID 0000.0001) %MON dynstat_sst_min              =  -1.9829801969684E+00
(PID.TID 0000.0001) %MON dynstat_sst_mean             =   1.8962537446383E+01
(PID.TID 0000.0001) %MON dynstat_sst_sd               =   9.0275279590453E+00
(PID.TID 0000.0001) %MON dynstat_sst_del2             =   2.7448141169675E-02
(PID.TID 0000.0001) %MON dynstat_sss_max              =   3.7462190783174E+01
(PID.TID 0000.0001) %MON dynstat_sss_min              =   2.9870204413199E+01
(PID.TID 0000.0001) %MON dynstat_sss_mean             =   3.4873764455720E+01
(PID.TID 0000.0001) %MON dynstat_sss_sd               =   9.7819816864963E-01
(PID.TID 0000.0001) %MON dynstat_sss_del2             =   7.8967929466197E-03
(PID.TID 0000.0001) %MON forcing_qnet_max             =   3.4446148173014E+02
(PID.TID 0000.0001) %MON forcing_qnet_min             =  -1.7133757273356E+02
(PID.TID 0000.0001) %MON forcing_qnet_mean            =  -1.2848553480810E+01
(PID.TID 0000.0001) %MON forcing_qnet_sd              =   7.2593681633689E+01
(PID.TID 0000.0001) %MON forcing_qnet_del2            =   9.2255901635128E-01
(PID.TID 0000.0001) %MON forcing_qsw_max              =   0.0000000000000E+00
(PID.TID 0000.0001) %MON forcing_qsw_min              =   0.0000000000000E+00
(PID.TID 0000.0001) %MON forcing_qsw_mean             =   0.0000000000000E+00
(PID.TID 0000.0001) %MON forcing_qsw_sd               =   0.0000000000000E+00
(PID.TID 0000.0001) %MON forcing_qsw_del2             =   0.0000000000000E+00
(PID.TID 0000.0001) %MON forcing_empmr_max            =   6.9252730365103E-05
(PID.TID 0000.0001) %MON forcing_empmr_min            =  -7.4454014509229E-05
(PID.TID 0000.0001) %MON forcing_empmr_mean           =   8.7795932553760E-07
(PID.TID 0000.0001) %MON forcing_empmr_sd             =   2.7556269282498E-05
(PID.TID 0000.0001) %MON forcing_empmr_del2           =   3.5383860859280E-07
(PID.TID 0000.0001) %MON forcing_fu_max               =   3.1125728785992E-01
(PID.TID 0000.0001) %MON forcing_fu_min               =  -2.4265549828609E-01
(PID.TID 0000.0001) %MON forcing_fu_mean              =   1.8101739563928E-02
(PID.TID 0000.0001) %MON forcing_fu_sd                =   9.3253165137727E-02
(PID.TID 0000.0001) %MON forcing_fu_del2              =   7.1687477636935E-04
(PID.TID 0000.0001) %MON forcing_fv_max               =   1.7315150362750E-01
(PID.TID 0000.0001) %MON forcing_fv_min               =  -1.9224907457829E-01
(PID.TID 0000.0001) %MON forcing_fv_mean              =  -7.2688666908077E-03
(PID.TID 0000.0001) %MON forcing_fv_sd                =   4.3596000384561E-02
(PID.TID 0000.0001) %MON forcing_fv_del2              =   5.0613264128046E-04
(PID.TID 0000.0001) %MON trAdv_CFL_u_max              =   4.7511170619586E-02
(PID.TID 0000.0001) %MON trAdv_CFL_v_max              =   3.2035353511623E-02
(PID.TID 0000.0001) %MON trAdv_CFL_w_max              =   8.1112787821916E-02
(PID.TID 0000.0001) %MON advcfl_uvel_max              =   4.6665124911032E-02
(PID.TID 0000.0001) %MON advcfl_vvel_max              =   2.6554065058446E-02
(PID.TID 0000.0001) %MON advcfl_wvel_max              =   6.4130828395541E-02
(PID.TID 0000.0001) %MON advcfl_W_hf_max              =   7.5582762037602E-02
(PID.TID 0000.0001) %MON pe_b_mean                    =   4.7764313039891E-04
(PID.TID 0000.0001) %MON ke_max                       =   1.8255298760400E-02
(PID.TID 0000.0001) %MON ke_mean                      =   2.7479283408923E-04
(PID.TID 0000.0001) %MON ke_vol                       =   1.3226782436723E+18
(PID.TID 0000.0001) %MON vort_r_min                   =  -5.3498484886876E-07
(PID.TID 0000.0001) %MON vort_r_max                   =   6.1943759674513E-07
(PID.TID 0000.0001) %MON vort_a_mean                  =  -2.5274806933689E-05
(PID.TID 0000.0001) %MON vort_a_sd                    =   7.3604143136412E-05
(PID.TID 0000.0001) %MON vort_p_mean                  =  -3.1845655215143E-05
(PID.TID 0000.0001) %MON vort_p_sd                    =   1.3162323480479E-04
(PID.TID 0000.0001) %MON surfExpan_theta_mean         =  -5.6910276629310E-07
(PID.TID 0000.0001) %MON surfExpan_salt_mean          =   4.2841154359432E-07
(PID.TID 0000.0001) // =======================================================
(PID.TID 0000.0001) // End MONITOR dynamic field statistics
(PID.TID 0000.0001) // =======================================================
 EXTERNAL_FIELDS_LOAD,        51 : iP,iLd,i0,i1=    2    3    2    3 ; Wght=  0.8000000000  0.2000000000
 EXTERNAL_FIELDS_LOAD: (fu0,1),fu,fv= -1.4435E-02 -2.7199E-02 -1.6988E-02 -1.4224E-02
 EXTERNAL_FIELDS_LOAD: SST,SSS,Q,E-P= -4.6227E-01  3.4453E+01  2.3546E+02  8.5179E-06
DEBUG_STATS_RL:          Uvel (THERMODYNAMICS)  min= -1.65835721620512E-01
DEBUG_STATS_RL:          Uvel (THERMODYNAMICS)  max=  1.78496185499385E-01
DEBUG_STATS_RL:          Uvel (THERMODYNAMICS) mean=  2.64823690309966E-03
DEBUG_STATS_RL:          Uvel (THERMODYNAMICS) S.D.=  2.72701688484150E-02
DEBUG_STATS_RL:          Vvel (THERMODYNAMICS)  min= -1.14461118975662E-01
DEBUG_STATS_RL:          Vvel (THERMODYNAMICS)  max=  1.36676567612208E-01
DEBUG_STATS_RL:          Vvel (THERMODYNAMICS) mean=  1.62414400550321E-03
DEBUG_STATS_RL:          Vvel (THERMODYNAMICS) S.D.=  1.72014624044411E-02
DEBUG_STATS_RL:          Wvel (THERMODYNAMICS)  min= -1.59988117297344E-04
DEBUG_STATS_RL:          Wvel (THERMODYNAMICS)  max=  1.60783345336311E-04
DEBUG_STATS_RL:          Wvel (THERMODYNAMICS) mean=  1.48914202482447E-08
DEBUG_STATS_RL:          Wvel (THERMODYNAMICS) S.D.=  1.68326499207873E-05
DEBUG_STATS_RL:         Theta (THERMODYNAMICS)  min= -1.98097037130657E+00
DEBUG_STATS_RL:         Theta (THERMODYNAMICS)  max=  3.04766781799985E+01
DEBUG_STATS_RL:         Theta (THERMODYNAMICS) mean=  3.24787139553168E+00
DEBUG_STATS_RL:         Theta (THERMODYNAMICS) S.D.=  5.87244614557664E+00
DEBUG_STATS_RL:          Salt (THERMODYNAMICS)  min=  3.00000000000000E-02
DEBUG_STATS_RL:          Salt (THERMODYNAMICS)  max=  3.74934271545342E+01
DEBUG_STATS_RL:          Salt (THERMODYNAMICS) mean=  1.88749287922077E+01
DEBUG_STATS_RL:          Salt (THERMODYNAMICS) S.D.=  1.73004470392945E+01
DEBUG_STATS_RL:         GtNm1 (THERMODYNAMICS)  min= -5.21244081184570E-06
DEBUG_STATS_RL:         GtNm1 (THERMODYNAMICS)  max=  2.74407982797966E-06
DEBUG_STATS_RL:         GtNm1 (THERMODYNAMICS) mean=  4.99902557153964E-09
DEBUG_STATS_RL:         GtNm1 (THERMODYNAMICS) S.D.=  2.07491683301336E-07
DEBUG_STATS_RL:         GsNm1 (THERMODYNAMICS)  min= -4.85305901654646E-07
DEBUG_STATS_RL:         GsNm1 (THERMODYNAMICS)  max=  3.53617822211652E-07
DEBUG_STATS_RL:         GsNm1 (THERMODYNAMICS) mean= -2.10679558679124E-10
DEBUG_STATS_RL:         GsNm1 (THERMODYNAMICS) S.D.=  2.04413503198658E-08
DEBUG_STATS_RL:                EtaN (DYNAMICS)  min= -2.17135562091450E+00
DEBUG_STATS_RL:                EtaN (DYNAMICS)  max=  8.86617269353097E-01
DEBUG_STATS_RL:                EtaN (DYNAMICS) mean= -1.84892532908469E-01
DEBUG_STATS_RL:                EtaN (DYNAMICS) S.D.=  7.05991589688953E-01
DEBUG_STATS_RL:                Uvel (DYNAMICS)  min= -1.65835721620512E-01
DEBUG_STATS_RL:                Uvel (DYNAMICS)  max=  1.78496185499385E-01
DEBUG_STATS_RL:                Uvel (DYNAMICS) mean=  2.64823690309966E-03
DEBUG_STATS_RL:                Uvel (DYNAMICS) S.D.=  2.72701688484150E-02
DEBUG_STATS_RL:                Vvel (DYNAMICS)  min= -1.14461118975662E-01
DEBUG_STATS_RL:                Vvel (DYNAMICS)  max=  1.36676567612208E-01
DEBUG_STATS_RL:                Vvel (DYNAMICS) mean=  1.62414400550321E-03
DEBUG_STATS_RL:                Vvel (DYNAMICS) S.D.=  1.72014624044411E-02
DEBUG_STATS_RL:                Wvel (DYNAMICS)  min= -1.59988117297344E-04
DEBUG_STATS_RL:                Wvel (DYNAMICS)  max=  1.60783345336311E-04
DEBUG_STATS_RL:                Wvel (DYNAMICS) mean=  1.48914202482447E-08
DEBUG_STATS_RL:                Wvel (DYNAMICS) S.D.=  1.68326499207873E-05
DEBUG_STATS_RL:               Theta (DYNAMICS)  min= -1.98097037130657E+00
DEBUG_STATS_RL:               Theta (DYNAMICS)  max=  3.04766781799985E+01
DEBUG_STATS_RL:               Theta (DYNAMICS) mean=  3.24787139553168E+00
DEBUG_STATS_RL:               Theta (DYNAMICS) S.D.=  5.87244614557664E+00
DEBUG_STATS_RL:                Salt (DYNAMICS)  min=  3.00000000000000E-02
DEBUG_STATS_RL:                Salt (DYNAMICS)  max=  3.74934271545342E+01
DEBUG_STATS_RL:                Salt (DYNAMICS) mean=  1.88749287922077E+01
DEBUG_STATS_RL:                Salt (DYNAMICS) S.D.=  1.73004470392945E+01
DEBUG_STATS_RL:                  Gu (DYNAMICS)  min= -1.63206609501824E-01
DEBUG_STATS_RL:                  Gu (DYNAMICS)  max=  1.79006469756877E-01
DEBUG_STATS_RL:                  Gu (DYNAMICS) mean=  2.92342572851526E-03
DEBUG_STATS_RL:                  Gu (DYNAMICS) S.D.=  2.73005401500163E-02
DEBUG_STATS_RL:                  Gv (DYNAMICS)  min= -1.13244030207697E-01
DEBUG_STATS_RL:                  Gv (DYNAMICS)  max=  1.40059183601362E-01
DEBUG_STATS_RL:                  Gv (DYNAMICS) mean=  3.57392044363594E-03
DEBUG_STATS_RL:                  Gv (DYNAMICS) S.D.=  1.84814290555524E-02
DEBUG_STATS_RL:               GuNm1 (DYNAMICS)  min= -9.78508673959649E-06
DEBUG_STATS_RL:               GuNm1 (DYNAMICS)  max=  9.07006791342482E-06
DEBUG_STATS_RL:               GuNm1 (DYNAMICS) mean=  7.44505236167382E-09
DEBUG_STATS_RL:               GuNm1 (DYNAMICS) S.D.=  1.20378044113876E-06
DEBUG_STATS_RL:               GvNm1 (DYNAMICS)  min= -9.21709296164831E-06
DEBUG_STATS_RL:               GvNm1 (DYNAMICS)  max=  1.64608078222250E-05
DEBUG_STATS_RL:               GvNm1 (DYNAMICS) mean=  7.43286961594412E-07
DEBUG_STATS_RL:               GvNm1 (DYNAMICS) S.D.=  2.62375760526150E-06
DEBUG_STATS_RL:               GtNm1 (DYNAMICS)  min= -5.21244081184570E-06
DEBUG_STATS_RL:               GtNm1 (DYNAMICS)  max=  2.74407982797966E-06
DEBUG_STATS_RL:               GtNm1 (DYNAMICS) mean=  4.99902557153964E-09
DEBUG_STATS_RL:               GtNm1 (DYNAMICS) S.D.=  2.07491683301336E-07
DEBUG_STATS_RL:               GsNm1 (DYNAMICS)  min= -4.85305901654646E-07
DEBUG_STATS_RL:               GsNm1 (DYNAMICS)  max=  3.53617822211652E-07
DEBUG_STATS_RL:               GsNm1 (DYNAMICS) mean= -2.10679558679124E-10
DEBUG_STATS_RL:               GsNm1 (DYNAMICS) S.D.=  2.04413503198658E-08
DEBUG_STATS_RL:    cg2d_b (SOLVE_FOR_PRESSURE)  min= -2.75138903505348E+04
DEBUG_STATS_RL:    cg2d_b (SOLVE_FOR_PRESSURE)  max=  2.16998676167192E+04
DEBUG_STATS_RL:    cg2d_b (SOLVE_FOR_PRESSURE) mean=  3.75921750733615E+00
DEBUG_STATS_RL:    cg2d_b (SOLVE_FOR_PRESSURE) S.D.=  3.91370291090351E+03
 cg2d: Sum(rhs),rhsMax =   3.16298001431660E-01  1.80718598462058E+00
(PID.TID 0000.0001)  cg2d: iter=     1 ; resid.=  3.17497227879305E-01
(PID.TID 0000.0001)  cg2d: iter=     2 ; resid.=  3.35447922182256E-01
(PID.TID 0000.0001)  cg2d: iter=     3 ; resid.=  3.10385617976832E-01
(PID.TID 0000.0001)  cg2d: iter=     4 ; resid.=  2.82878253620712E-01
(PID.TID 0000.0001)  cg2d: iter=     5 ; resid.=  2.91612229472647E-01
(PID.TID 0000.0001)  cg2d: iter=     6 ; resid.=  2.41899484733036E-01
(PID.TID 0000.0001)  cg2d: iter=     7 ; resid.=  1.78104070434003E-01
(PID.TID 0000.0001)  cg2d: iter=     8 ; resid.=  1.24140325564002E-01
(PID.TID 0000.0001)  cg2d: iter=     9 ; resid.=  9.55646181681966E-02
(PID.TID 0000.0001)  cg2d: iter=    10 ; resid.=  8.06875845794452E-02
(PID.TID 0000.0001)  cg2d: iter=    11 ; resid.=  7.19185238601890E-02
(PID.TID 0000.0001)  cg2d: iter=    12 ; resid.=  6.37804078881299E-02
(PID.TID 0000.0001)  cg2d: iter=    13 ; resid.=  5.51797674662804E-02
(PID.TID 0000.0001)  cg2d: iter=    14 ; resid.=  4.46205934081651E-02
(PID.TID 0000.0001)  cg2d: iter=    15 ; resid.=  3.46480972486465E-02
(PID.TID 0000.0001)  cg2d: iter=    16 ; resid.=  3.11410389765157E-02
(PID.TID 0000.0001)  cg2d: iter=    17 ; resid.=  2.55365546051359E-02
(PID.TID 0000.0001)  cg2d: iter=    18 ; resid.=  2.20799738169245E-02
(PID.TID 0000.0001)  cg2d: iter=    19 ; resid.=  1.75817217924308E-02
(PID.TID 0000.0001)  cg2d: iter=    20 ; resid.=  1.43407998068167E-02
(PID.TID 0000.0001)  cg2d: iter=    21 ; resid.=  1.23474169242727E-02
(PID.TID 0000.0001)  cg2d: iter=    22 ; resid.=  1.08768826130803E-02
(PID.TID 0000.0001)  cg2d: iter=    23 ; resid.=  8.88040073507491E-03
(PID.TID 0000.0001)  cg2d: iter=    24 ; resid.=  7.69579170846336E-03
(PID.TID 0000.0001)  cg2d: iter=    25 ; resid.=  6.04291683210139E-03
(PID.TID 0000.0001)  cg2d: iter=    26 ; resid.=  4.68713612952467E-03
(PID.TID 0000.0001)  cg2d: iter=    27 ; resid.=  3.79470123081167E-03
(PID.TID 0000.0001)  cg2d: iter=    28 ; resid.=  2.85177113798686E-03
(PID.TID 0000.0001)  cg2d: iter=    29 ; resid.=  2.20336210698510E-03
(PID.TID 0000.0001)  cg2d: iter=    30 ; resid.=  1.90326187239087E-03
(PID.TID 0000.0001)  cg2d: iter=    31 ; resid.=  1.60388076082394E-03
(PID.TID 0000.0001)  cg2d: iter=    32 ; resid.=  1.29543215653341E-03
(PID.TID 0000.0001)  cg2d: iter=    33 ; resid.=  1.07182026882073E-03
(PID.TID 0000.0001)  cg2d: iter=    34 ; resid.=  9.16226799056121E-04
(PID.TID 0000.0001)  cg2d: iter=    35 ; resid.=  7.49982753527202E-04
(PID.TID 0000.0001)  cg2d: iter=    36 ; resid.=  6.48366312388124E-04
(PID.TID 0000.0001)  cg2d: iter=    37 ; resid.=  5.37238848704325E-04
(PID.TID 0000.0001)  cg2d: iter=    38 ; resid.=  4.82588132006587E-04
(PID.TID 0000.0001)  cg2d: iter=    39 ; resid.=  4.03183470398744E-04
(PID.TID 0000.0001)  cg2d: iter=    40 ; resid.=  3.38280867722491E-04
(PID.TID 0000.0001)  cg2d: iter=    41 ; resid.=  2.99706718897633E-04
(PID.TID 0000.0001)  cg2d: iter=    42 ; resid.=  2.57113918322138E-04
(PID.TID 0000.0001)  cg2d: iter=    43 ; resid.=  2.04117426463395E-04
(PID.TID 0000.0001)  cg2d: iter=    44 ; resid.=  1.71414215514014E-04
(PID.TID 0000.0001)  cg2d: iter=    45 ; resid.=  1.40625613881713E-04
(PID.TID 0000.0001)  cg2d: iter=    46 ; resid.=  1.11293567835951E-04
(PID.TID 0000.0001)  cg2d: iter=    47 ; resid.=  9.73431994757065E-05
(PID.TID 0000.0001)  cg2d: iter=    48 ; resid.=  7.52624317144523E-05
(PID.TID 0000.0001)  cg2d: iter=    49 ; resid.=  6.64135278560518E-05
(PID.TID 0000.0001)  cg2d: iter=    50 ; resid.=  5.89029089225161E-05
(PID.TID 0000.0001)  cg2d: iter=    51 ; resid.=  5.51213741744873E-05
(PID.TID 0000.0001)  cg2d: iter=    52 ; resid.=  5.00286861929062E-05
(PID.TID 0000.0001)  cg2d: iter=    53 ; resid.=  3.95353140838240E-05
(PID.TID 0000.0001)  cg2d: iter=    54 ; resid.=  3.15307170025619E-05
(PID.TID 0000.0001)  cg2d: iter=    55 ; resid.=  2.67763573773727E-05
(PID.TID 0000.0001)  cg2d: iter=    56 ; resid.=  2.20399586480505E-05
(PID.TID 0000.0001)  cg2d: iter=    57 ; resid.=  1.68309999564155E-05
(PID.TID 0000.0001)  cg2d: iter=    58 ; resid.=  1.38903365198172E-05
(PID.TID 0000.0001)  cg2d: iter=    59 ; resid.=  1.06032753215233E-05
(PID.TID 0000.0001)  cg2d: iter=    60 ; resid.=  7.92498969588308E-06
(PID.TID 0000.0001)  cg2d: iter=    61 ; resid.=  7.04151214172759E-06
(PID.TID 0000.0001)  cg2d: iter=    62 ; resid.=  6.24457824380035E-06
(PID.TID 0000.0001)  cg2d: iter=    63 ; resid.=  5.35318536010771E-06
(PID.TID 0000.0001)  cg2d: iter=    64 ; resid.=  4.47375853398760E-06
(PID.TID 0000.0001)  cg2d: iter=    65 ; resid.=  3.47571494461710E-06
(PID.TID 0000.0001)  cg2d: iter=    66 ; resid.=  2.84572939963483E-06
(PID.TID 0000.0001)  cg2d: iter=    67 ; resid.=  2.45372292398054E-06
(PID.TID 0000.0001)  cg2d: iter=    68 ; resid.=  2.06192419551258E-06
(PID.TID 0000.0001)  cg2d: iter=    69 ; resid.=  1.80515078986081E-06
(PID.TID 0000.0001)  cg2d: iter=    70 ; resid.=  1.55934717916358E-06
(PID.TID 0000.0001)  cg2d: iter=    71 ; resid.=  1.25297226126367E-06
(PID.TID 0000.0001)  cg2d: iter=    72 ; resid.=  1.07484796510571E-06
(PID.TID 0000.0001)  cg2d: iter=    73 ; resid.=  9.31200886534871E-07
(PID.TID 0000.0001)  cg2d: iter=    74 ; resid.=  7.75979919560559E-07
(PID.TID 0000.0001)  cg2d: iter=    75 ; resid.=  6.05707850529075E-07
(PID.TID 0000.0001)  cg2d: iter=    76 ; resid.=  5.09120092326023E-07
(PID.TID 0000.0001)  cg2d: iter=    77 ; resid.=  4.09557214174607E-07
(PID.TID 0000.0001)  cg2d: iter=    78 ; resid.=  2.93899818354796E-07
(PID.TID 0000.0001)  cg2d: iter=    79 ; resid.=  2.21337165682573E-07
(PID.TID 0000.0001)  cg2d: iter=    80 ; resid.=  1.62639916028969E-07
(PID.TID 0000.0001)  cg2d: iter=    81 ; resid.=  1.26981956777712E-07
(PID.TID 0000.0001)  cg2d: iter=    82 ; resid.=  9.56447118498275E-08
(PID.TID 0000.0001)  cg2d: iter=    83 ; resid.=  7.19412431555214E-08
(PID.TID 0000.0001)  cg2d: iter=    84 ; resid.=  5.30086955109601E-08
(PID.TID 0000.0001)  cg2d: iter=    85 ; resid.=  3.94931675286243E-08
(PID.TID 0000.0001)  cg2d: iter=    86 ; resid.=  2.94018797208073E-08
(PID.TID 0000.0001)  cg2d: iter=    87 ; resid.=  2.42866083306828E-08
(PID.TID 0000.0001)  cg2d: iter=    88 ; resid.=  1.99305813306866E-08
(PID.TID 0000.0001)  cg2d: iter=    89 ; resid.=  1.73528755779576E-08
(PID.TID 0000.0001)  cg2d: iter=    90 ; resid.=  1.37376491672722E-08
(PID.TID 0000.0001)  cg2d: iter=    91 ; resid.=  1.02656375993053E-08
(PID.TID 0000.0001)  cg2d: iter=    92 ; resid.=  7.35642433160960E-09
(PID.TID 0000.0001)  cg2d: iter=    93 ; resid.=  5.77677210665020E-09
(PID.TID 0000.0001)  cg2d: iter=    94 ; resid.=  4.53463176111246E-09
(PID.TID 0000.0001)  cg2d: iter=    95 ; resid.=  3.58829859664390E-09
(PID.TID 0000.0001)  cg2d: iter=    96 ; resid.=  2.59236254000395E-09
(PID.TID 0000.0001)  cg2d: iter=    97 ; resid.=  2.09198264329116E-09
(PID.TID 0000.0001)  cg2d: iter=    98 ; resid.=  1.77904018685544E-09
(PID.TID 0000.0001)  cg2d: iter=    99 ; resid.=  1.53060083806906E-09
(PID.TID 0000.0001)  cg2d: iter=   100 ; resid.=  1.46487730957473E-09
(PID.TID 0000.0001)  cg2d: iter=   101 ; resid.=  1.19734367825520E-09
(PID.TID 0000.0001)  cg2d: iter=   102 ; resid.=  1.01114931269354E-09
(PID.TID 0000.0001)  cg2d: iter=   103 ; resid.=  7.68697184535052E-10
(PID.TID 0000.0001)  cg2d: iter=   104 ; resid.=  6.17210527618326E-10
(PID.TID 0000.0001)  cg2d: iter=   105 ; resid.=  4.87025609309970E-10
(PID.TID 0000.0001)  cg2d: iter=   106 ; resid.=  3.90868318518570E-10
(PID.TID 0000.0001)  cg2d: iter=   107 ; resid.=  2.88084719664348E-10
(PID.TID 0000.0001)  cg2d: iter=   108 ; resid.=  2.06390335995671E-10
(PID.TID 0000.0001)  cg2d: iter=   109 ; resid.=  1.54004648427346E-10
(PID.TID 0000.0001)  cg2d: iter=   110 ; resid.=  1.20475157198900E-10
(PID.TID 0000.0001)  cg2d: iter=   111 ; resid.=  1.02053561869221E-10
(PID.TID 0000.0001)  cg2d: iter=   112 ; resid.=  8.49556471807955E-11
(PID.TID 0000.0001)  cg2d: iter=   113 ; resid.=  6.91382027959272E-11
(PID.TID 0000.0001)  cg2d: iter=   114 ; resid.=  5.65400352989679E-11
(PID.TID 0000.0001)  cg2d: iter=   115 ; resid.=  4.27646824273651E-11
(PID.TID 0000.0001)  cg2d: iter=   116 ; resid.=  3.11230402806471E-11
(PID.TID 0000.0001)  cg2d: iter=   117 ; resid.=  2.26755394004821E-11
(PID.TID 0000.0001)  cg2d: iter=   118 ; resid.=  1.68040994809769E-11
(PID.TID 0000.0001)  cg2d: iter=   119 ; resid.=  1.13821393448347E-11
(PID.TID 0000.0001)  cg2d: iter=   120 ; resid.=  7.95502414541091E-12
(PID.TID 0000.0001)  cg2d: iter=   121 ; resid.=  5.70714671542116E-12
(PID.TID 0000.0001)  cg2d: iter=   122 ; resid.=  4.53423978922662E-12
(PID.TID 0000.0001)  cg2d: iter=   123 ; resid.=  3.40226022266591E-12
(PID.TID 0000.0001)  cg2d: iter=   124 ; resid.=  2.78385549745685E-12
(PID.TID 0000.0001)  cg2d: iter=   125 ; resid.=  2.14929699646669E-12
(PID.TID 0000.0001)  cg2d: iter=   126 ; resid.=  1.52145061694362E-12
(PID.TID 0000.0001)  cg2d: iter=   127 ; resid.=  1.11229605813747E-12
(PID.TID 0000.0001)  cg2d: iter=   128 ; resid.=  8.47100637627846E-13
(PID.TID 0000.0001)  cg2d: iter=   129 ; resid.=  6.58959905420554E-13
(PID.TID 0000.0001)  cg2d: iter=   130 ; resid.=  4.98128300533301E-13
(PID.TID 0000.0001)  cg2d: iter=   131 ; resid.=  3.59141121757733E-13
(PID.TID 0000.0001)  cg2d: iter=   132 ; resid.=  2.86088600747641E-13
(PID.TID 0000.0001)  cg2d: iter=   133 ; resid.=  2.44586208410186E-13
(PID.TID 0000.0001)  cg2d: iter=   134 ; resid.=  1.92145769085285E-13
(PID.TID 0000.0001)  cg2d: iter=   135 ; resid.=  1.37260478493716E-13
(PID.TID 0000.0001)  cg2d: iter=   136 ; resid.=  9.12026501683492E-14
DEBUG_STATS_RL:    cg2d_x (SOLVE_FOR_PRESSURE)  min= -2.10188267482252E+01
DEBUG_STATS_RL:    cg2d_x (SOLVE_FOR_PRESSURE)  max=  8.85370314372726E+00
DEBUG_STATS_RL:    cg2d_x (SOLVE_FOR_PRESSURE) mean= -1.77055418498414E+00
DEBUG_STATS_RL:    cg2d_x (SOLVE_FOR_PRESSURE) S.D.=  6.63475512430878E+00
(PID.TID 0000.0001)      cg2d_init_res =   4.33111416594713E-01
(PID.TID 0000.0001)      cg2d_iters(min,last) =      -1     136
(PID.TID 0000.0001)      cg2d_last_res =   9.12026501683492E-14
(PID.TID 0000.0001) // =======================================================
(PID.TID 0000.0001) // Begin MONITOR dynamic field statistics
(PID.TID 0000.0001) // =======================================================
(PID.TID 0000.0001) %MON time_tsnumber                =                    52
(PID.TID 0000.0001) %MON time_secondsf                =   4.4928000000000E+06
(PID.TID 0000.0001) %MON dynstat_eta_max              =   9.0251815940136E-01
(PID.TID 0000.0001) %MON dynstat_eta_min              =  -2.1425919213277E+00
(PID.TID 0000.0001) %MON dynstat_eta_mean             =  -3.9222773413234E-03
(PID.TID 0000.0001) %MON dynstat_eta_sd               =   5.7963843900915E-01
(PID.TID 0000.0001) %MON dynstat_eta_del2             =   2.4286948200868E-03
(PID.TID 0000.0001) %MON dynstat_uvel_max             =   1.7344787925155E-01
(PID.TID 0000.0001) %MON dynstat_uvel_min             =  -1.6485512949655E-01
(PID.TID 0000.0001) %MON dynstat_uvel_mean            =  -2.1566678896614E-04
(PID.TID 0000.0001) %MON dynstat_uvel_sd              =   2.1254843759617E-02
(PID.TID 0000.0001) %MON dynstat_uvel_del2            =   1.2843281619296E-04
(PID.TID 0000.0001) %MON dynstat_vvel_max             =   1.3856997162405E-01
(PID.TID 0000.0001) %MON dynstat_vvel_min             =  -1.1141138597694E-01
(PID.TID 0000.0001) %MON dynstat_vvel_mean            =   1.1828926016645E-04
(PID.TID 0000.0001) %MON dynstat_vvel_sd              =   1.2098700908738E-02
(PID.TID 0000.0001) %MON dynstat_vvel_del2            =   9.7415175643381E-05
(PID.TID 0000.0001) %MON dynstat_wvel_max             =   1.8107040292015E-04
(PID.TID 0000.0001) %MON dynstat_wvel_min             =  -1.5297517694946E-04
(PID.TID 0000.0001) %MON dynstat_wvel_mean            =  -2.7281176077366E-22
(PID.TID 0000.0001) %MON dynstat_wvel_sd              =   1.9118083009845E-05
(PID.TID 0000.0001) %MON dynstat_wvel_del2            =   1.8654237980667E-07
(PID.TID 0000.0001) %MON dynstat_theta_max            =   3.0476678179999E+01
(PID.TID 0000.0001) %MON dynstat_theta_min            =  -1.9809703713066E+00
(PID.TID 0000.0001) %MON dynstat_theta_mean           =   3.6525549026490E+00
(PID.TID 0000.0001) %MON dynstat_theta_sd             =   4.4219135635001E+00
(PID.TID 0000.0001) %MON dynstat_theta_del2           =   4.8471979225675E-03
(PID.TID 0000.0001) %MON dynstat_salt_max             =   3.7493427154534E+01
(PID.TID 0000.0001) %MON dynstat_salt_min             =   2.9872956853885E+01
(PID.TID 0000.0001) %MON dynstat_salt_mean            =   3.4747985999176E+01
(PID.TID 0000.0001) %MON dynstat_salt_sd              =   2.9639390209289E-01
(PID.TID 0000.0001) %MON dynstat_salt_del2            =   9.8812017508445E-04
(PID.TID 0000.0001) %MON dynstat_sst_max              =   3.0476678179999E+01
(PID.TID 0000.0001) %MON dynstat_sst_min              =  -1.9809703713066E+00
(PID.TID 0000.0001) %MON dynstat_sst_mean             =   1.8969522633237E+01
(PID.TID 0000.0001) %MON dynstat_sst_sd               =   9.0311879315783E+00
(PID.TID 0000.0001) %MON dynstat_sst_del2             =   2.7467210488483E-02
(PID.TID 0000.0001) %MON dynstat_sss_max              =   3.7463143262397E+01
(PID.TID 0000.0001) %MON dynstat_sss_min              =   2.9872956853885E+01
(PID.TID 0000.0001) %MON dynstat_sss_mean             =   3.4873502180536E+01
(PID.TID 0000.0001) %MON dynstat_sss_sd               =   9.7839125661477E-01
(PID.TID 0000.0001) %MON dynstat_sss_del2             =   7.8981128448728E-03
(PID.TID 0000.0001) %MON forcing_qnet_max             =   3.4166333007812E+02
(PID.TID 0000.0001) %MON forcing_qnet_min             =  -1.7103829345703E+02
(PID.TID 0000.0001) %MON forcing_qnet_mean            =  -1.2625213981184E+01
(PID.TID 0000.0001) %MON forcing_qnet_sd              =   7.1234414492605E+01
(PID.TID 0000.0001) %MON forcing_qnet_del2            =   9.1767530219150E-01
(PID.TID 0000.0001) %MON forcing_qsw_max              =   0.0000000000000E+00
(PID.TID 0000.0001) %MON forcing_qsw_min              =   0.0000000000000E+00
(PID.TID 0000.0001) %MON forcing_qsw_mean             =   0.0000000000000E+00
(PID.TID 0000.0001) %MON forcing_qsw_sd               =   0.0000000000000E+00
(PID.TID 0000.0001) %MON forcing_qsw_del2             =   0.0000000000000E+00
(PID.TID 0000.0001) %MON forcing_empmr_max            =   6.9246974021553E-05
(PID.TID 0000.0001) %MON forcing_empmr_min            =  -7.4091350654726E-05
(PID.TID 0000.0001) %MON forcing_empmr_mean           =   8.6486939466325E-07
(PID.TID 0000.0001) %MON forcing_empmr_sd             =   2.7477668813451E-05
(PID.TID 0000.0001) %MON forcing_empmr_del2           =   3.5358321320213E-07
(PID.TID 0000.0001) %MON forcing_fu_max               =   3.1258164048195E-01
(PID.TID 0000.0001) %MON forcing_fu_min               =  -2.4804012775421E-01
(PID.TID 0000.0001) %MON forcing_fu_mean              =   1.8195939153386E-02
(PID.TID 0000.0001) %MON forcing_fu_sd                =   9.3365690565339E-02
(PID.TID 0000.0001) %MON forcing_fu_del2              =   7.1304989393077E-04
(PID.TID 0000.0001) %MON forcing_fv_max               =   1.6746481135488E-01
(PID.TID 0000.0001) %MON forcing_fv_min               =  -1.9076303839684E-01
(PID.TID 0000.0001) %MON forcing_fv_mean              =  -7.2792950407772E-03
(PID.TID 0000.0001) %MON forcing_fv_sd                =   4.3351289204055E-02
(PID.TID 0000.0001) %MON forcing_fv_del2              =   5.0024732875636E-04
(PID.TID 0000.0001) %MON trAdv_CFL_u_max              =   4.6674602931656E-02
(PID.TID 0000.0001) %MON trAdv_CFL_v_max              =   3.1849244547025E-02
(PID.TID 0000.0001) %MON trAdv_CFL_w_max              =   7.5582762037602E-02
(PID.TID 0000.0001) %MON advcfl_uvel_max              =   4.5345321683947E-02
(PID.TID 0000.0001) %MON advcfl_vvel_max              =   2.6921923091397E-02
(PID.TID 0000.0001) %MON advcfl_wvel_max              =   5.7932903479043E-02
(PID.TID 0000.0001) %MON advcfl_W_hf_max              =   6.8278064814587E-02
(PID.TID 0000.0001) %MON pe_b_mean                    =   4.2994751393219E-04
(PID.TID 0000.0001) %MON ke_max                       =   1.8308452858842E-02
(PID.TID 0000.0001) %MON ke_mean                      =   2.7098838004813E-04
(PID.TID 0000.0001) %MON ke_vol                       =   1.3226782436723E+18
(PID.TID 0000.0001) %MON vort_r_min                   =  -5.3024752916865E-07
(PID.TID 0000.0001) %MON vort_r_max                   =   6.1267911246275E-07
(PID.TID 0000.0001) %MON vort_a_mean                  =  -2.5274807157843E-05
(PID.TID 0000.0001) %MON vort_a_sd                    =   7.3604164077296E-05
(PID.TID 0000.0001) %MON vort_p_mean                  =  -3.1845655497571E-05
(PID.TID 0000.0001) %MON vort_p_sd                    =   1.3162329008964E-04
(PID.TID 0000.0001) %MON surfExpan_theta_mean         =  -6.1159120909936E-07
(PID.TID 0000.0001) %MON surfExpan_salt_mean          =   4.3067834017236E-07
(PID.TID 0000.0001) // =======================================================
(PID.TID 0000.0001) // End MONITOR dynamic field statistics
(PID.TID 0000.0001) // =======================================================
 EXTERNAL_FIELDS_LOAD,        52 : iP,iLd,i0,i1=    2    3    2    3 ; Wght=  0.7666666667  0.2333333333
 EXTERNAL_FIELDS_LOAD: (fu0,1),fu,fv= -1.4435E-02 -2.7199E-02 -1.7413E-02 -1.3655E-02
 EXTERNAL_FIELDS_LOAD: SST,SSS,Q,E-P= -4.5067E-01  3.4458E+01  2.3463E+02  8.5414E-06
DEBUG_STATS_RL:          Uvel (THERMODYNAMICS)  min= -1.64855129496551E-01
DEBUG_STATS_RL:          Uvel (THERMODYNAMICS)  max=  1.73447879251548E-01
DEBUG_STATS_RL:          Uvel (THERMODYNAMICS) mean=  3.05528151968623E-03
DEBUG_STATS_RL:          Uvel (THERMODYNAMICS) S.D.=  2.70226017372960E-02
DEBUG_STATS_RL:          Vvel (THERMODYNAMICS)  min= -1.11411385976938E-01
DEBUG_STATS_RL:          Vvel (THERMODYNAMICS)  max=  1.38569971624046E-01
DEBUG_STATS_RL:          Vvel (THERMODYNAMICS) mean=  1.60868562741730E-03
DEBUG_STATS_RL:          Vvel (THERMODYNAMICS) S.D.=  1.71674579023685E-02
DEBUG_STATS_RL:          Wvel (THERMODYNAMICS)  min= -1.52975176949459E-04
DEBUG_STATS_RL:          Wvel (THERMODYNAMICS)  max=  1.81070402920154E-04
DEBUG_STATS_RL:          Wvel (THERMODYNAMICS) mean=  1.44277949353902E-08
DEBUG_STATS_RL:          Wvel (THERMODYNAMICS) S.D.=  1.66239472756224E-05
DEBUG_STATS_RL:         Theta (THERMODYNAMICS)  min= -1.97898060584698E+00
DEBUG_STATS_RL:         Theta (THERMODYNAMICS)  max=  3.05126538996788E+01
DEBUG_STATS_RL:         Theta (THERMODYNAMICS) mean=  3.24807843296286E+00
DEBUG_STATS_RL:         Theta (THERMODYNAMICS) S.D.=  5.87316094780804E+00
DEBUG_STATS_RL:          Salt (THERMODYNAMICS)  min=  3.00000000000000E-02
DEBUG_STATS_RL:          Salt (THERMODYNAMICS)  max=  3.74938317883464E+01
DEBUG_STATS_RL:          Salt (THERMODYNAMICS) mean=  1.88749200341170E+01
DEBUG_STATS_RL:          Salt (THERMODYNAMICS) S.D.=  1.73004390651659E+01
DEBUG_STATS_RL:         GtNm1 (THERMODYNAMICS)  min= -4.70731991013229E-06
DEBUG_STATS_RL:         GtNm1 (THERMODYNAMICS)  max=  2.72531712444569E-06
DEBUG_STATS_RL:         GtNm1 (THERMODYNAMICS) mean=  4.57773299818438E-09
DEBUG_STATS_RL:         GtNm1 (THERMODYNAMICS) S.D.=  2.06296229685803E-07
DEBUG_STATS_RL:         GsNm1 (THERMODYNAMICS)  min= -5.09306617902288E-07
DEBUG_STATS_RL:         GsNm1 (THERMODYNAMICS)  max=  3.82058831708502E-07
DEBUG_STATS_RL:         GsNm1 (THERMODYNAMICS) mean= -2.76343658767941E-10
DEBUG_STATS_RL:         GsNm1 (THERMODYNAMICS) S.D.=  2.05504603701821E-08
DEBUG_STATS_RL:                EtaN (DYNAMICS)  min= -2.14259192132769E+00
DEBUG_STATS_RL:                EtaN (DYNAMICS)  max=  9.02518159401358E-01
DEBUG_STATS_RL:                EtaN (DYNAMICS) mean= -1.80484626400015E-01
DEBUG_STATS_RL:                EtaN (DYNAMICS) S.D.=  6.76325700745037E-01
DEBUG_STATS_RL:                Uvel (DYNAMICS)  min= -1.64855129496551E-01
DEBUG_STATS_RL:                Uvel (DYNAMICS)  max=  1.73447879251548E-01
DEBUG_STATS_RL:                Uvel (DYNAMICS) mean=  3.05528151968623E-03
DEBUG_STATS_RL:                Uvel (DYNAMICS) S.D.=  2.70226017372960E-02
DEBUG_STATS_RL:                Vvel (DYNAMICS)  min= -1.11411385976938E-01
DEBUG_STATS_RL:                Vvel (DYNAMICS)  max=  1.38569971624046E-01
DEBUG_STATS_RL:                Vvel (DYNAMICS) mean=  1.60868562741730E-03
DEBUG_STATS_RL:                Vvel (DYNAMICS) S.D.=  1.71674579023685E-02
DEBUG_STATS_RL:                Wvel (DYNAMICS)  min= -1.52975176949459E-04
DEBUG_STATS_RL:                Wvel (DYNAMICS)  max=  1.81070402920154E-04
DEBUG_STATS_RL:                Wvel (DYNAMICS) mean=  1.44277949353902E-08
DEBUG_STATS_RL:                Wvel (DYNAMICS) S.D.=  1.66239472756224E-05
DEBUG_STATS_RL:               Theta (DYNAMICS)  min= -1.97898060584698E+00
DEBUG_STATS_RL:               Theta (DYNAMICS)  max=  3.05126538996788E+01
DEBUG_STATS_RL:               Theta (DYNAMICS) mean=  3.24807843296286E+00
DEBUG_STATS_RL:               Theta (DYNAMICS) S.D.=  5.87316094780804E+00
DEBUG_STATS_RL:                Salt (DYNAMICS)  min=  3.00000000000000E-02
DEBUG_STATS_RL:                Salt (DYNAMICS)  max=  3.74938317883464E+01
DEBUG_STATS_RL:                Salt (DYNAMICS) mean=  1.88749200341170E+01
DEBUG_STATS_RL:                Salt (DYNAMICS) S.D.=  1.73004390651659E+01
DEBUG_STATS_RL:                  Gu (DYNAMICS)  min= -1.61947178532825E-01
DEBUG_STATS_RL:                  Gu (DYNAMICS)  max=  1.72302196361695E-01
DEBUG_STATS_RL:                  Gu (DYNAMICS) mean=  3.36061619115498E-03
DEBUG_STATS_RL:                  Gu (DYNAMICS) S.D.=  2.70826568044011E-02
DEBUG_STATS_RL:                  Gv (DYNAMICS)  min= -1.09713937482812E-01
DEBUG_STATS_RL:                  Gv (DYNAMICS)  max=  1.41712786051839E-01
DEBUG_STATS_RL:                  Gv (DYNAMICS) mean=  3.58298531225799E-03
DEBUG_STATS_RL:                  Gv (DYNAMICS) S.D.=  1.84793443511994E-02
DEBUG_STATS_RL:               GuNm1 (DYNAMICS)  min= -9.78388007473893E-06
DEBUG_STATS_RL:               GuNm1 (DYNAMICS)  max=  9.13757465136593E-06
DEBUG_STATS_RL:               GuNm1 (DYNAMICS) mean=  8.78919656550814E-09
DEBUG_STATS_RL:               GuNm1 (DYNAMICS) S.D.=  1.20626928054727E-06
DEBUG_STATS_RL:               GvNm1 (DYNAMICS)  min= -9.20763089717529E-06
DEBUG_STATS_RL:               GvNm1 (DYNAMICS)  max=  1.64214973895130E-05
DEBUG_STATS_RL:               GvNm1 (DYNAMICS) mean=  7.43869809887394E-07
DEBUG_STATS_RL:               GvNm1 (DYNAMICS) S.D.=  2.62904487262495E-06
DEBUG_STATS_RL:               GtNm1 (DYNAMICS)  min= -4.70731991013229E-06
DEBUG_STATS_RL:               GtNm1 (DYNAMICS)  max=  2.72531712444569E-06
DEBUG_STATS_RL:               GtNm1 (DYNAMICS) mean=  4.57773299818438E-09
DEBUG_STATS_RL:               GtNm1 (DYNAMICS) S.D.=  2.06296229685803E-07
DEBUG_STATS_RL:               GsNm1 (DYNAMICS)  min= -5.09306617902288E-07
DEBUG_STATS_RL:               GsNm1 (DYNAMICS)  max=  3.82058831708502E-07
DEBUG_STATS_RL:               GsNm1 (DYNAMICS) mean= -2.76343658767941E-10
DEBUG_STATS_RL:               GsNm1 (DYNAMICS) S.D.=  2.05504603701821E-08
DEBUG_STATS_RL:    cg2d_b (SOLVE_FOR_PRESSURE)  min= -2.68364098948045E+04
DEBUG_STATS_RL:    cg2d_b (SOLVE_FOR_PRESSURE)  max=  2.25893797701880E+04
DEBUG_STATS_RL:    cg2d_b (SOLVE_FOR_PRESSURE) mean=  3.82736654277825E+00
DEBUG_STATS_RL:    cg2d_b (SOLVE_FOR_PRESSURE) S.D.=  3.92655938498222E+03
 cg2d: Sum(rhs),rhsMax =   3.30161656542817E-01  1.76268725438462E+00
(PID.TID 0000.0001)  cg2d: iter=     1 ; resid.=  3.22163102291509E-01
(PID.TID 0000.0001)  cg2d: iter=     2 ; resid.=  3.36120702175812E-01
(PID.TID 0000.0001)  cg2d: iter=     3 ; resid.=  3.10865006183241E-01
(PID.TID 0000.0001)  cg2d: iter=     4 ; resid.=  2.86570181823073E-01
(PID.TID 0000.0001)  cg2d: iter=     5 ; resid.=  2.92903734699995E-01
(PID.TID 0000.0001)  cg2d: iter=     6 ; resid.=  2.41802555190271E-01
(PID.TID 0000.0001)  cg2d: iter=     7 ; resid.=  1.79362651067178E-01
(PID.TID 0000.0001)  cg2d: iter=     8 ; resid.=  1.24895295201633E-01
(PID.TID 0000.0001)  cg2d: iter=     9 ; resid.=  9.63216045077888E-02
(PID.TID 0000.0001)  cg2d: iter=    10 ; resid.=  8.15717900356963E-02
(PID.TID 0000.0001)  cg2d: iter=    11 ; resid.=  7.34858927615723E-02
(PID.TID 0000.0001)  cg2d: iter=    12 ; resid.=  6.49183727168844E-02
(PID.TID 0000.0001)  cg2d: iter=    13 ; resid.=  5.59647058773353E-02
(PID.TID 0000.0001)  cg2d: iter=    14 ; resid.=  4.50647263636918E-02
(PID.TID 0000.0001)  cg2d: iter=    15 ; resid.=  3.49560474897897E-02
(PID.TID 0000.0001)  cg2d: iter=    16 ; resid.=  3.13472189618034E-02
(PID.TID 0000.0001)  cg2d: iter=    17 ; resid.=  2.56466613653472E-02
(PID.TID 0000.0001)  cg2d: iter=    18 ; resid.=  2.27817192551780E-02
(PID.TID 0000.0001)  cg2d: iter=    19 ; resid.=  1.79555763959986E-02
(PID.TID 0000.0001)  cg2d: iter=    20 ; resid.=  1.45518194373173E-02
(PID.TID 0000.0001)  cg2d: iter=    21 ; resid.=  1.24579046347410E-02
(PID.TID 0000.0001)  cg2d: iter=    22 ; resid.=  1.09765273846842E-02
(PID.TID 0000.0001)  cg2d: iter=    23 ; resid.=  8.94894719665684E-03
(PID.TID 0000.0001)  cg2d: iter=    24 ; resid.=  7.89178453015295E-03
(PID.TID 0000.0001)  cg2d: iter=    25 ; resid.=  6.23091606998739E-03
(PID.TID 0000.0001)  cg2d: iter=    26 ; resid.=  4.83684787547426E-03
(PID.TID 0000.0001)  cg2d: iter=    27 ; resid.=  3.88117372251511E-03
(PID.TID 0000.0001)  cg2d: iter=    28 ; resid.=  2.90413108305205E-03
(PID.TID 0000.0001)  cg2d: iter=    29 ; resid.=  2.25293505604481E-03
(PID.TID 0000.0001)  cg2d: iter=    30 ; resid.=  1.92788184388155E-03
(PID.TID 0000.0001)  cg2d: iter=    31 ; resid.=  1.64335890507080E-03
(PID.TID 0000.0001)  cg2d: iter=    32 ; resid.=  1.35024329402567E-03
(PID.TID 0000.0001)  cg2d: iter=    33 ; resid.=  1.12223844787571E-03
(PID.TID 0000.0001)  cg2d: iter=    34 ; resid.=  9.59362875775787E-04
(PID.TID 0000.0001)  cg2d: iter=    35 ; resid.=  7.82949249083783E-04
(PID.TID 0000.0001)  cg2d: iter=    36 ; resid.=  6.74943962581375E-04
(PID.TID 0000.0001)  cg2d: iter=    37 ; resid.=  5.63691479569419E-04
(PID.TID 0000.0001)  cg2d: iter=    38 ; resid.=  5.15721078889880E-04
(PID.TID 0000.0001)  cg2d: iter=    39 ; resid.=  4.33926948255862E-04
(PID.TID 0000.0001)  cg2d: iter=    40 ; resid.=  3.68798763475092E-04
(PID.TID 0000.0001)  cg2d: iter=    41 ; resid.=  3.26614636725710E-04
(PID.TID 0000.0001)  cg2d: iter=    42 ; resid.=  2.76806512239104E-04
(PID.TID 0000.0001)  cg2d: iter=    43 ; resid.=  2.17695917136985E-04
(PID.TID 0000.0001)  cg2d: iter=    44 ; resid.=  1.80613491638297E-04
(PID.TID 0000.0001)  cg2d: iter=    45 ; resid.=  1.45341954079032E-04
(PID.TID 0000.0001)  cg2d: iter=    46 ; resid.=  1.16087048932309E-04
(PID.TID 0000.0001)  cg2d: iter=    47 ; resid.=  1.02363614131879E-04
(PID.TID 0000.0001)  cg2d: iter=    48 ; resid.=  7.97821861885639E-05
(PID.TID 0000.0001)  cg2d: iter=    49 ; resid.=  7.06485099143376E-05
(PID.TID 0000.0001)  cg2d: iter=    50 ; resid.=  6.32753171186347E-05
(PID.TID 0000.0001)  cg2d: iter=    51 ; resid.=  5.92806738081757E-05
(PID.TID 0000.0001)  cg2d: iter=    52 ; resid.=  5.26798398405428E-05
(PID.TID 0000.0001)  cg2d: iter=    53 ; resid.=  4.10179330865371E-05
(PID.TID 0000.0001)  cg2d: iter=    54 ; resid.=  3.20081105800560E-05
(PID.TID 0000.0001)  cg2d: iter=    55 ; resid.=  2.65725112558890E-05
(PID.TID 0000.0001)  cg2d: iter=    56 ; resid.=  2.20036529392132E-05
(PID.TID 0000.0001)  cg2d: iter=    57 ; resid.=  1.71890444781955E-05
(PID.TID 0000.0001)  cg2d: iter=    58 ; resid.=  1.44008526738297E-05
(PID.TID 0000.0001)  cg2d: iter=    59 ; resid.=  1.11724362804090E-05
(PID.TID 0000.0001)  cg2d: iter=    60 ; resid.=  8.27863284679090E-06
(PID.TID 0000.0001)  cg2d: iter=    61 ; resid.=  7.23881656049764E-06
(PID.TID 0000.0001)  cg2d: iter=    62 ; resid.=  6.32264679437328E-06
(PID.TID 0000.0001)  cg2d: iter=    63 ; resid.=  5.39713400854537E-06
(PID.TID 0000.0001)  cg2d: iter=    64 ; resid.=  4.51779875919799E-06
(PID.TID 0000.0001)  cg2d: iter=    65 ; resid.=  3.54252160363362E-06
(PID.TID 0000.0001)  cg2d: iter=    66 ; resid.=  2.95297473586522E-06
(PID.TID 0000.0001)  cg2d: iter=    67 ; resid.=  2.54820940009094E-06
(PID.TID 0000.0001)  cg2d: iter=    68 ; resid.=  2.11812250967182E-06
(PID.TID 0000.0001)  cg2d: iter=    69 ; resid.=  1.86741724644807E-06
(PID.TID 0000.0001)  cg2d: iter=    70 ; resid.=  1.59387810693867E-06
(PID.TID 0000.0001)  cg2d: iter=    71 ; resid.=  1.28102835971142E-06
(PID.TID 0000.0001)  cg2d: iter=    72 ; resid.=  1.09022591960420E-06
(PID.TID 0000.0001)  cg2d: iter=    73 ; resid.=  9.34851855016038E-07
(PID.TID 0000.0001)  cg2d: iter=    74 ; resid.=  7.71471624621714E-07
(PID.TID 0000.0001)  cg2d: iter=    75 ; resid.=  6.05189165384144E-07
(PID.TID 0000.0001)  cg2d: iter=    76 ; resid.=  5.15149773488102E-07
(PID.TID 0000.0001)  cg2d: iter=    77 ; resid.=  4.18085502112463E-07
(PID.TID 0000.0001)  cg2d: iter=    78 ; resid.=  3.04654534290896E-07
(PID.TID 0000.0001)  cg2d: iter=    79 ; resid.=  2.30032786951002E-07
(PID.TID 0000.0001)  cg2d: iter=    80 ; resid.=  1.69485337546318E-07
(PID.TID 0000.0001)  cg2d: iter=    81 ; resid.=  1.30663529531453E-07
(PID.TID 0000.0001)  cg2d: iter=    82 ; resid.=  9.69548528590324E-08
(PID.TID 0000.0001)  cg2d: iter=    83 ; resid.=  7.18791605104173E-08
(PID.TID 0000.0001)  cg2d: iter=    84 ; resid.=  5.17160228453558E-08
(PID.TID 0000.0001)  cg2d: iter=    85 ; resid.=  3.78113679638271E-08
(PID.TID 0000.0001)  cg2d: iter=    86 ; resid.=  2.79928464296541E-08
(PID.TID 0000.0001)  cg2d: iter=    87 ; resid.=  2.32569262064881E-08
(PID.TID 0000.0001)  cg2d: iter=    88 ; resid.=  1.88445209120482E-08
(PID.TID 0000.0001)  cg2d: iter=    89 ; resid.=  1.64544092683640E-08
(PID.TID 0000.0001)  cg2d: iter=    90 ; resid.=  1.33497097680476E-08
(PID.TID 0000.0001)  cg2d: iter=    91 ; resid.=  9.82786190769039E-09
(PID.TID 0000.0001)  cg2d: iter=    92 ; resid.=  7.02316414742374E-09
(PID.TID 0000.0001)  cg2d: iter=    93 ; resid.=  5.62296475132074E-09
(PID.TID 0000.0001)  cg2d: iter=    94 ; resid.=  4.43927360617200E-09
(PID.TID 0000.0001)  cg2d: iter=    95 ; resid.=  3.53824435558257E-09
(PID.TID 0000.0001)  cg2d: iter=    96 ; resid.=  2.58858249664586E-09
(PID.TID 0000.0001)  cg2d: iter=    97 ; resid.=  2.06463387422819E-09
(PID.TID 0000.0001)  cg2d: iter=    98 ; resid.=  1.74592718951616E-09
(PID.TID 0000.0001)  cg2d: iter=    99 ; resid.=  1.49501916188567E-09
(PID.TID 0000.0001)  cg2d: iter=   100 ; resid.=  1.44282890414819E-09
(PID.TID 0000.0001)  cg2d: iter=   101 ; resid.=  1.18301519188428E-09
(PID.TID 0000.0001)  cg2d: iter=   102 ; resid.=  9.78798352983566E-10
(PID.TID 0000.0001)  cg2d: iter=   103 ; resid.=  7.37399796260897E-10
(PID.TID 0000.0001)  cg2d: iter=   104 ; resid.=  5.85144847758173E-10
(PID.TID 0000.0001)  cg2d: iter=   105 ; resid.=  4.62516074869686E-10
(PID.TID 0000.0001)  cg2d: iter=   106 ; resid.=  3.80251866645721E-10
(PID.TID 0000.0001)  cg2d: iter=   107 ; resid.=  2.89382470264207E-10
(PID.TID 0000.0001)  cg2d: iter=   108 ; resid.=  2.11349927039930E-10
(PID.TID 0000.0001)  cg2d: iter=   109 ; resid.=  1.59771439275345E-10
(PID.TID 0000.0001)  cg2d: iter=   110 ; resid.=  1.25061695979492E-10
(PID.TID 0000.0001)  cg2d: iter=   111 ; resid.=  1.04484493980840E-10
(PID.TID 0000.0001)  cg2d: iter=   112 ; resid.=  8.39745767529167E-11
(PID.TID 0000.0001)  cg2d: iter=   113 ; resid.=  6.69184484500671E-11
(PID.TID 0000.0001)  cg2d: iter=   114 ; resid.=  5.39567524794789E-11
(PID.TID 0000.0001)  cg2d: iter=   115 ; resid.=  4.10951719559472E-11
(PID.TID 0000.0001)  cg2d: iter=   116 ; resid.=  3.05470840097890E-11
(PID.TID 0000.0001)  cg2d: iter=   117 ; resid.=  2.31440567622158E-11
(PID.TID 0000.0001)  cg2d: iter=   118 ; resid.=  1.82845274171370E-11
(PID.TID 0000.0001)  cg2d: iter=   119 ; resid.=  1.25729855901088E-11
(PID.TID 0000.0001)  cg2d: iter=   120 ; resid.=  9.26150518593464E-12
(PID.TID 0000.0001)  cg2d: iter=   121 ; resid.=  7.00089750275583E-12
(PID.TID 0000.0001)  cg2d: iter=   122 ; resid.=  5.62442358215553E-12
(PID.TID 0000.0001)  cg2d: iter=   123 ; resid.=  4.14839421768852E-12
(PID.TID 0000.0001)  cg2d: iter=   124 ; resid.=  3.23576697972844E-12
(PID.TID 0000.0001)  cg2d: iter=   125 ; resid.=  2.34675283392307E-12
(PID.TID 0000.0001)  cg2d: iter=   126 ; resid.=  1.56347797805694E-12
(PID.TID 0000.0001)  cg2d: iter=   127 ; resid.=  1.11076252097574E-12
(PID.TID 0000.0001)  cg2d: iter=   128 ; resid.=  8.26537819298716E-13
(PID.TID 0000.0001)  cg2d: iter=   129 ; resid.=  6.59056350231074E-13
(PID.TID 0000.0001)  cg2d: iter=   130 ; resid.=  5.07701351118401E-13
(PID.TID 0000.0001)  cg2d: iter=   131 ; resid.=  3.70175802462300E-13
(PID.TID 0000.0001)  cg2d: iter=   132 ; resid.=  3.00009217718945E-13
(PID.TID 0000.0001)  cg2d: iter=   133 ; resid.=  2.54997767341251E-13
(PID.TID 0000.0001)  cg2d: iter=   134 ; resid.=  2.00393087005295E-13
(PID.TID 0000.0001)  cg2d: iter=   135 ; resid.=  1.46126669394896E-13
(PID.TID 0000.0001)  cg2d: iter=   136 ; resid.=  1.00764143058369E-13
(PID.TID 0000.0001)  cg2d: iter=   137 ; resid.=  7.59703352623686E-14
DEBUG_STATS_RL:    cg2d_x (SOLVE_FOR_PRESSURE)  min= -2.03513916903584E+01
DEBUG_STATS_RL:    cg2d_x (SOLVE_FOR_PRESSURE)  max=  9.45190447074864E+00
DEBUG_STATS_RL:    cg2d_x (SOLVE_FOR_PRESSURE) mean= -1.72701944016770E+00
DEBUG_STATS_RL:    cg2d_x (SOLVE_FOR_PRESSURE) S.D.=  6.44863318182811E+00
(PID.TID 0000.0001)      cg2d_init_res =   4.39399632837321E-01
(PID.TID 0000.0001)      cg2d_iters(min,last) =      -1     137
(PID.TID 0000.0001)      cg2d_last_res =   7.59703352623686E-14
(PID.TID 0000.0001) // =======================================================
(PID.TID 0000.0001) // Begin MONITOR dynamic field statistics
(PID.TID 0000.0001) // =======================================================
(PID.TID 0000.0001) %MON time_tsnumber                =                    53
(PID.TID 0000.0001) %MON time_secondsf                =   4.5792000000000E+06
(PID.TID 0000.0001) %MON dynstat_eta_max              =   9.6349688794582E-01
(PID.TID 0000.0001) %MON dynstat_eta_min              =  -2.0745557278654E+00
(PID.TID 0000.0001) %MON dynstat_eta_mean             =  -3.9933824096052E-03
(PID.TID 0000.0001) %MON dynstat_eta_sd               =   5.6015155375930E-01
(PID.TID 0000.0001) %MON dynstat_eta_del2             =   2.4329124771949E-03
(PID.TID 0000.0001) %MON dynstat_uvel_max             =   1.6680161835980E-01
(PID.TID 0000.0001) %MON dynstat_uvel_min             =  -1.6364598582540E-01
(PID.TID 0000.0001) %MON dynstat_uvel_mean            =   3.9753239302361E-05
(PID.TID 0000.0001) %MON dynstat_uvel_sd              =   2.1092742586878E-02
(PID.TID 0000.0001) %MON dynstat_uvel_del2            =   1.2787168851493E-04
(PID.TID 0000.0001) %MON dynstat_vvel_max             =   1.4013748110198E-01
(PID.TID 0000.0001) %MON dynstat_vvel_min             =  -1.0923882617453E-01
(PID.TID 0000.0001) %MON dynstat_vvel_mean            =   1.4790067187212E-04
(PID.TID 0000.0001) %MON dynstat_vvel_sd              =   1.2062409454283E-02
(PID.TID 0000.0001) %MON dynstat_vvel_del2            =   9.6400955304217E-05
(PID.TID 0000.0001) %MON dynstat_wvel_max             =   1.9352886685171E-04
(PID.TID 0000.0001) %MON dynstat_wvel_min             =  -1.4789113463436E-04
(PID.TID 0000.0001) %MON dynstat_wvel_mean            =   9.1059583846599E-23
(PID.TID 0000.0001) %MON dynstat_wvel_sd              =   1.8869056570165E-05
(PID.TID 0000.0001) %MON dynstat_wvel_del2            =   1.8345116458277E-07
(PID.TID 0000.0001) %MON dynstat_theta_max            =   3.0512653899679E+01
(PID.TID 0000.0001) %MON dynstat_theta_min            =  -1.9789806058470E+00
(PID.TID 0000.0001) %MON dynstat_theta_mean           =   3.6526387325388E+00
(PID.TID 0000.0001) %MON dynstat_theta_sd             =   4.4221929601445E+00
(PID.TID 0000.0001) %MON dynstat_theta_del2           =   4.8634152760007E-03
(PID.TID 0000.0001) %MON dynstat_salt_max             =   3.7493831788346E+01
(PID.TID 0000.0001) %MON dynstat_salt_min             =   2.9876076349055E+01
(PID.TID 0000.0001) %MON dynstat_salt_mean            =   3.4747977176105E+01
(PID.TID 0000.0001) %MON dynstat_salt_sd              =   2.9638230721907E-01
(PID.TID 0000.0001) %MON dynstat_salt_del2            =   9.8932424748194E-04
(PID.TID 0000.0001) %MON dynstat_sst_max              =   3.0512653899679E+01
(PID.TID 0000.0001) %MON dynstat_sst_min              =  -1.9789806058470E+00
(PID.TID 0000.0001) %MON dynstat_sst_mean             =   1.8976455133385E+01
(PID.TID 0000.0001) %MON dynstat_sst_sd               =   9.0349138204310E+00
(PID.TID 0000.0001) %MON dynstat_sst_del2             =   2.7568434605157E-02
(PID.TID 0000.0001) %MON dynstat_sss_max              =   3.7464068774903E+01
(PID.TID 0000.0001) %MON dynstat_sss_min              =   2.9876076349055E+01
(PID.TID 0000.0001) %MON dynstat_sss_mean             =   3.4873259658560E+01
(PID.TID 0000.0001) %MON dynstat_sss_sd               =   9.7862453997372E-01
(PID.TID 0000.0001) %MON dynstat_sss_del2             =   7.9197342691027E-03
(PID.TID 0000.0001) %MON forcing_qnet_max             =   3.3886517842611E+02
(PID.TID 0000.0001) %MON forcing_qnet_min             =  -1.7073901418050E+02
(PID.TID 0000.0001) %MON forcing_qnet_mean            =  -1.2401874481557E+01
(PID.TID 0000.0001) %MON forcing_qnet_sd              =   6.9891135718298E+01
(PID.TID 0000.0001) %MON forcing_qnet_del2            =   9.1294827007943E-01
(PID.TID 0000.0001) %MON forcing_qsw_max              =   0.0000000000000E+00
(PID.TID 0000.0001) %MON forcing_qsw_min              =   0.0000000000000E+00
(PID.TID 0000.0001) %MON forcing_qsw_mean             =   0.0000000000000E+00
(PID.TID 0000.0001) %MON forcing_qsw_sd               =   0.0000000000000E+00
(PID.TID 0000.0001) %MON forcing_qsw_del2             =   0.0000000000000E+00
(PID.TID 0000.0001) %MON forcing_empmr_max            =   6.9241217678003E-05
(PID.TID 0000.0001) %MON forcing_empmr_min            =  -7.4083286942065E-05
(PID.TID 0000.0001) %MON forcing_empmr_mean           =   8.5177946378889E-07
(PID.TID 0000.0001) %MON forcing_empmr_sd             =   2.7401269076073E-05
(PID.TID 0000.0001) %MON forcing_empmr_del2           =   3.5339193351951E-07
(PID.TID 0000.0001) %MON forcing_fu_max               =   3.1390599310398E-01
(PID.TID 0000.0001) %MON forcing_fu_min               =  -2.5342475722233E-01
(PID.TID 0000.0001) %MON forcing_fu_mean              =   1.8290138742845E-02
(PID.TID 0000.0001) %MON forcing_fu_sd                =   9.3499658141920E-02
(PID.TID 0000.0001) %MON forcing_fu_del2              =   7.1000949682168E-04
(PID.TID 0000.0001) %MON forcing_fv_max               =   1.6197121615211E-01
(PID.TID 0000.0001) %MON forcing_fv_min               =  -1.8927700221539E-01
(PID.TID 0000.0001) %MON forcing_fv_mean              =  -7.2897233907466E-03
(PID.TID 0000.0001) %MON forcing_fv_sd                =   4.3122711947279E-02
(PID.TID 0000.0001) %MON forcing_fv_del2              =   4.9479609729253E-04
(PID.TID 0000.0001) %MON trAdv_CFL_u_max              =   4.5354531643096E-02
(PID.TID 0000.0001) %MON trAdv_CFL_v_max              =   3.1507867681062E-02
(PID.TID 0000.0001) %MON trAdv_CFL_w_max              =   6.8278064814587E-02
(PID.TID 0000.0001) %MON advcfl_uvel_max              =   4.3607757411428E-02
(PID.TID 0000.0001) %MON advcfl_vvel_max              =   2.7226465043129E-02
(PID.TID 0000.0001) %MON advcfl_wvel_max              =   5.0428416054600E-02
(PID.TID 0000.0001) %MON advcfl_W_hf_max              =   5.9433490350065E-02
(PID.TID 0000.0001) %MON pe_b_mean                    =   4.0152663778578E-04
(PID.TID 0000.0001) %MON ke_max                       =   1.8404694566378E-02
(PID.TID 0000.0001) %MON ke_mean                      =   2.6745916412511E-04
(PID.TID 0000.0001) %MON ke_vol                       =   1.3226782436723E+18
(PID.TID 0000.0001) %MON vort_r_min                   =  -5.2369116147234E-07
(PID.TID 0000.0001) %MON vort_r_max                   =   5.9334005147331E-07
(PID.TID 0000.0001) %MON vort_a_mean                  =  -2.5274807376073E-05
(PID.TID 0000.0001) %MON vort_a_sd                    =   7.3604191994355E-05
(PID.TID 0000.0001) %MON vort_p_mean                  =  -3.1845655772537E-05
(PID.TID 0000.0001) %MON vort_p_sd                    =   1.3162333947419E-04
(PID.TID 0000.0001) %MON surfExpan_theta_mean         =  -6.2628974859214E-07
(PID.TID 0000.0001) %MON surfExpan_salt_mean          =   4.1984307681059E-07
(PID.TID 0000.0001) // =======================================================
(PID.TID 0000.0001) // End MONITOR dynamic field statistics
(PID.TID 0000.0001) // =======================================================
 EXTERNAL_FIELDS_LOAD,        53 : iP,iLd,i0,i1=    2    3    2    3 ; Wght=  0.7333333333  0.2666666667
 EXTERNAL_FIELDS_LOAD: (fu0,1),fu,fv= -1.4435E-02 -2.7199E-02 -1.7838E-02 -1.3087E-02
 EXTERNAL_FIELDS_LOAD: SST,SSS,Q,E-P= -4.3907E-01  3.4463E+01  2.3379E+02  8.5648E-06
DEBUG_STATS_RL:          Uvel (THERMODYNAMICS)  min= -1.63645985825396E-01
DEBUG_STATS_RL:          Uvel (THERMODYNAMICS)  max=  1.66801618359800E-01
DEBUG_STATS_RL:          Uvel (THERMODYNAMICS) mean=  3.47861982943034E-03
DEBUG_STATS_RL:          Uvel (THERMODYNAMICS) S.D.=  2.67976298174430E-02
DEBUG_STATS_RL:          Vvel (THERMODYNAMICS)  min= -1.09238826174532E-01
DEBUG_STATS_RL:          Vvel (THERMODYNAMICS)  max=  1.40137481101977E-01
DEBUG_STATS_RL:          Vvel (THERMODYNAMICS) mean=  1.57081156563038E-03
DEBUG_STATS_RL:          Vvel (THERMODYNAMICS) S.D.=  1.71368716773864E-02
DEBUG_STATS_RL:          Wvel (THERMODYNAMICS)  min= -1.47891134634357E-04
DEBUG_STATS_RL:          Wvel (THERMODYNAMICS)  max=  1.93528866851708E-04
DEBUG_STATS_RL:          Wvel (THERMODYNAMICS) mean=  7.64251943801617E-09
DEBUG_STATS_RL:          Wvel (THERMODYNAMICS) S.D.=  1.63917271267480E-05
DEBUG_STATS_RL:         Theta (THERMODYNAMICS)  min= -1.97701772488446E+00
DEBUG_STATS_RL:         Theta (THERMODYNAMICS)  max=  3.05464173309996E+01
DEBUG_STATS_RL:         Theta (THERMODYNAMICS) mean=  3.24826798147420E+00
DEBUG_STATS_RL:         Theta (THERMODYNAMICS) S.D.=  5.87384628784992E+00
DEBUG_STATS_RL:          Salt (THERMODYNAMICS)  min=  3.00000000000000E-02
DEBUG_STATS_RL:          Salt (THERMODYNAMICS)  max=  3.74942079888398E+01
DEBUG_STATS_RL:          Salt (THERMODYNAMICS) mean=  1.88749076927476E+01
DEBUG_STATS_RL:          Salt (THERMODYNAMICS) S.D.=  1.73004278656991E+01
DEBUG_STATS_RL:         GtNm1 (THERMODYNAMICS)  min= -3.54874009993828E-06
DEBUG_STATS_RL:         GtNm1 (THERMODYNAMICS)  max=  2.67964486952778E-06
DEBUG_STATS_RL:         GtNm1 (THERMODYNAMICS) mean=  4.30047850814111E-09
DEBUG_STATS_RL:         GtNm1 (THERMODYNAMICS) S.D.=  2.02587266115539E-07
DEBUG_STATS_RL:         GsNm1 (THERMODYNAMICS)  min= -4.91076259873284E-07
DEBUG_STATS_RL:         GsNm1 (THERMODYNAMICS)  max=  3.72601607689722E-07
DEBUG_STATS_RL:         GsNm1 (THERMODYNAMICS) mean= -3.27075608378594E-10
DEBUG_STATS_RL:         GsNm1 (THERMODYNAMICS) S.D.=  2.03044657059993E-08
DEBUG_STATS_RL:                EtaN (DYNAMICS)  min= -2.07455572786537E+00
DEBUG_STATS_RL:                EtaN (DYNAMICS)  max=  9.63496887945815E-01
DEBUG_STATS_RL:                EtaN (DYNAMICS) mean= -1.76046833860114E-01
DEBUG_STATS_RL:                EtaN (DYNAMICS) S.D.=  6.57353025670553E-01
DEBUG_STATS_RL:                Uvel (DYNAMICS)  min= -1.63645985825396E-01
DEBUG_STATS_RL:                Uvel (DYNAMICS)  max=  1.66801618359800E-01
DEBUG_STATS_RL:                Uvel (DYNAMICS) mean=  3.47861982943034E-03
DEBUG_STATS_RL:                Uvel (DYNAMICS) S.D.=  2.67976298174430E-02
DEBUG_STATS_RL:                Vvel (DYNAMICS)  min= -1.09238826174532E-01
DEBUG_STATS_RL:                Vvel (DYNAMICS)  max=  1.40137481101977E-01
DEBUG_STATS_RL:                Vvel (DYNAMICS) mean=  1.57081156563038E-03
DEBUG_STATS_RL:                Vvel (DYNAMICS) S.D.=  1.71368716773864E-02
DEBUG_STATS_RL:                Wvel (DYNAMICS)  min= -1.47891134634357E-04
DEBUG_STATS_RL:                Wvel (DYNAMICS)  max=  1.93528866851708E-04
DEBUG_STATS_RL:                Wvel (DYNAMICS) mean=  7.64251943801617E-09
DEBUG_STATS_RL:                Wvel (DYNAMICS) S.D.=  1.63917271267480E-05
DEBUG_STATS_RL:               Theta (DYNAMICS)  min= -1.97701772488446E+00
DEBUG_STATS_RL:               Theta (DYNAMICS)  max=  3.05464173309996E+01
DEBUG_STATS_RL:               Theta (DYNAMICS) mean=  3.24826798147420E+00
DEBUG_STATS_RL:               Theta (DYNAMICS) S.D.=  5.87384628784992E+00
DEBUG_STATS_RL:                Salt (DYNAMICS)  min=  3.00000000000000E-02
DEBUG_STATS_RL:                Salt (DYNAMICS)  max=  3.74942079888398E+01
DEBUG_STATS_RL:                Salt (DYNAMICS) mean=  1.88749076927476E+01
DEBUG_STATS_RL:                Salt (DYNAMICS) S.D.=  1.73004278656991E+01
DEBUG_STATS_RL:                  Gu (DYNAMICS)  min= -1.60471039665045E-01
DEBUG_STATS_RL:                  Gu (DYNAMICS)  max=  1.64301892807035E-01
DEBUG_STATS_RL:                  Gu (DYNAMICS) mean=  3.79562363054559E-03
DEBUG_STATS_RL:                  Gu (DYNAMICS) S.D.=  2.68905788140233E-02
DEBUG_STATS_RL:                  Gv (DYNAMICS)  min= -1.05844855462502E-01
DEBUG_STATS_RL:                  Gv (DYNAMICS)  max=  1.43046765036497E-01
DEBUG_STATS_RL:                  Gv (DYNAMICS) mean=  3.58173333167040E-03
DEBUG_STATS_RL:                  Gv (DYNAMICS) S.D.=  1.84616207252908E-02
DEBUG_STATS_RL:               GuNm1 (DYNAMICS)  min= -9.78661147882243E-06
DEBUG_STATS_RL:               GuNm1 (DYNAMICS)  max=  9.20309269189467E-06
DEBUG_STATS_RL:               GuNm1 (DYNAMICS) mean=  9.88395827945427E-09
DEBUG_STATS_RL:               GuNm1 (DYNAMICS) S.D.=  1.20849224668585E-06
DEBUG_STATS_RL:               GvNm1 (DYNAMICS)  min= -9.21962973030734E-06
DEBUG_STATS_RL:               GvNm1 (DYNAMICS)  max=  1.63721024580856E-05
DEBUG_STATS_RL:               GvNm1 (DYNAMICS) mean=  7.44404156846411E-07
DEBUG_STATS_RL:               GvNm1 (DYNAMICS) S.D.=  2.63440569650772E-06
DEBUG_STATS_RL:               GtNm1 (DYNAMICS)  min= -3.54874009993828E-06
DEBUG_STATS_RL:               GtNm1 (DYNAMICS)  max=  2.67964486952778E-06
DEBUG_STATS_RL:               GtNm1 (DYNAMICS) mean=  4.30047850814111E-09
DEBUG_STATS_RL:               GtNm1 (DYNAMICS) S.D.=  2.02587266115539E-07
DEBUG_STATS_RL:               GsNm1 (DYNAMICS)  min= -4.91076259873284E-07
DEBUG_STATS_RL:               GsNm1 (DYNAMICS)  max=  3.72601607689722E-07
DEBUG_STATS_RL:               GsNm1 (DYNAMICS) mean= -3.27075608378594E-10
DEBUG_STATS_RL:               GsNm1 (DYNAMICS) S.D.=  2.03044657059993E-08
DEBUG_STATS_RL:    cg2d_b (SOLVE_FOR_PRESSURE)  min= -2.59496709588459E+04
DEBUG_STATS_RL:    cg2d_b (SOLVE_FOR_PRESSURE)  max=  2.33856225451891E+04
DEBUG_STATS_RL:    cg2d_b (SOLVE_FOR_PRESSURE) mean=  3.89446828111859E+00
DEBUG_STATS_RL:    cg2d_b (SOLVE_FOR_PRESSURE) S.D.=  3.94181608633311E+03
 cg2d: Sum(rhs),rhsMax =   3.47429995743976E-01  1.70444386689323E+00
(PID.TID 0000.0001)  cg2d: iter=     1 ; resid.=  3.24540358658990E-01
(PID.TID 0000.0001)  cg2d: iter=     2 ; resid.=  3.29834564530398E-01
(PID.TID 0000.0001)  cg2d: iter=     3 ; resid.=  3.05363516765907E-01
(PID.TID 0000.0001)  cg2d: iter=     4 ; resid.=  2.84066928013842E-01
(PID.TID 0000.0001)  cg2d: iter=     5 ; resid.=  2.84904810463679E-01
(PID.TID 0000.0001)  cg2d: iter=     6 ; resid.=  2.36553339937884E-01
(PID.TID 0000.0001)  cg2d: iter=     7 ; resid.=  1.78807852325512E-01
(PID.TID 0000.0001)  cg2d: iter=     8 ; resid.=  1.25752368417382E-01
(PID.TID 0000.0001)  cg2d: iter=     9 ; resid.=  9.72996952623585E-02
(PID.TID 0000.0001)  cg2d: iter=    10 ; resid.=  8.29514296899593E-02
(PID.TID 0000.0001)  cg2d: iter=    11 ; resid.=  7.51020158290299E-02
(PID.TID 0000.0001)  cg2d: iter=    12 ; resid.=  6.52124079635183E-02
(PID.TID 0000.0001)  cg2d: iter=    13 ; resid.=  5.53057161842938E-02
(PID.TID 0000.0001)  cg2d: iter=    14 ; resid.=  4.44711558320571E-02
(PID.TID 0000.0001)  cg2d: iter=    15 ; resid.=  3.48155389005710E-02
(PID.TID 0000.0001)  cg2d: iter=    16 ; resid.=  3.13728006249479E-02
(PID.TID 0000.0001)  cg2d: iter=    17 ; resid.=  2.59645814516790E-02
(PID.TID 0000.0001)  cg2d: iter=    18 ; resid.=  2.35857090989814E-02
(PID.TID 0000.0001)  cg2d: iter=    19 ; resid.=  1.82583580266624E-02
(PID.TID 0000.0001)  cg2d: iter=    20 ; resid.=  1.46921998197431E-02
(PID.TID 0000.0001)  cg2d: iter=    21 ; resid.=  1.24454864225105E-02
(PID.TID 0000.0001)  cg2d: iter=    22 ; resid.=  1.09385901173280E-02
(PID.TID 0000.0001)  cg2d: iter=    23 ; resid.=  8.94341081796335E-03
(PID.TID 0000.0001)  cg2d: iter=    24 ; resid.=  8.00923589075282E-03
(PID.TID 0000.0001)  cg2d: iter=    25 ; resid.=  6.34226705224493E-03
(PID.TID 0000.0001)  cg2d: iter=    26 ; resid.=  4.97537728302977E-03
(PID.TID 0000.0001)  cg2d: iter=    27 ; resid.=  3.97852982419112E-03
(PID.TID 0000.0001)  cg2d: iter=    28 ; resid.=  2.99997962884394E-03
(PID.TID 0000.0001)  cg2d: iter=    29 ; resid.=  2.34934193326481E-03
(PID.TID 0000.0001)  cg2d: iter=    30 ; resid.=  1.99093401621288E-03
(PID.TID 0000.0001)  cg2d: iter=    31 ; resid.=  1.70556619785461E-03
(PID.TID 0000.0001)  cg2d: iter=    32 ; resid.=  1.39981853168071E-03
(PID.TID 0000.0001)  cg2d: iter=    33 ; resid.=  1.16209118454320E-03
(PID.TID 0000.0001)  cg2d: iter=    34 ; resid.=  9.96623466920293E-04
(PID.TID 0000.0001)  cg2d: iter=    35 ; resid.=  8.17201087593863E-04
(PID.TID 0000.0001)  cg2d: iter=    36 ; resid.=  7.10486223340438E-04
(PID.TID 0000.0001)  cg2d: iter=    37 ; resid.=  6.03990621760139E-04
(PID.TID 0000.0001)  cg2d: iter=    38 ; resid.=  5.57918536959802E-04
(PID.TID 0000.0001)  cg2d: iter=    39 ; resid.=  4.70425073177555E-04
(PID.TID 0000.0001)  cg2d: iter=    40 ; resid.=  4.02951579746222E-04
(PID.TID 0000.0001)  cg2d: iter=    41 ; resid.=  3.53309292607127E-04
(PID.TID 0000.0001)  cg2d: iter=    42 ; resid.=  2.96601324956065E-04
(PID.TID 0000.0001)  cg2d: iter=    43 ; resid.=  2.33406514397444E-04
(PID.TID 0000.0001)  cg2d: iter=    44 ; resid.=  1.90115276898251E-04
(PID.TID 0000.0001)  cg2d: iter=    45 ; resid.=  1.50049982934169E-04
(PID.TID 0000.0001)  cg2d: iter=    46 ; resid.=  1.21078992061420E-04
(PID.TID 0000.0001)  cg2d: iter=    47 ; resid.=  1.07095925860897E-04
(PID.TID 0000.0001)  cg2d: iter=    48 ; resid.=  8.44492934257203E-05
(PID.TID 0000.0001)  cg2d: iter=    49 ; resid.=  7.44617912885504E-05
(PID.TID 0000.0001)  cg2d: iter=    50 ; resid.=  6.64145184993301E-05
(PID.TID 0000.0001)  cg2d: iter=    51 ; resid.=  6.15365259820269E-05
(PID.TID 0000.0001)  cg2d: iter=    52 ; resid.=  5.32146086683745E-05
(PID.TID 0000.0001)  cg2d: iter=    53 ; resid.=  4.16370090459360E-05
(PID.TID 0000.0001)  cg2d: iter=    54 ; resid.=  3.25230967286452E-05
(PID.TID 0000.0001)  cg2d: iter=    55 ; resid.=  2.71011700717109E-05
(PID.TID 0000.0001)  cg2d: iter=    56 ; resid.=  2.28501874998490E-05
(PID.TID 0000.0001)  cg2d: iter=    57 ; resid.=  1.81699963410042E-05
(PID.TID 0000.0001)  cg2d: iter=    58 ; resid.=  1.49675172815053E-05
(PID.TID 0000.0001)  cg2d: iter=    59 ; resid.=  1.16484143243564E-05
(PID.TID 0000.0001)  cg2d: iter=    60 ; resid.=  8.51230339668855E-06
(PID.TID 0000.0001)  cg2d: iter=    61 ; resid.=  7.27230273399266E-06
(PID.TID 0000.0001)  cg2d: iter=    62 ; resid.=  6.32541699044173E-06
(PID.TID 0000.0001)  cg2d: iter=    63 ; resid.=  5.43624036438436E-06
(PID.TID 0000.0001)  cg2d: iter=    64 ; resid.=  4.53239644573755E-06
(PID.TID 0000.0001)  cg2d: iter=    65 ; resid.=  3.59883791910755E-06
(PID.TID 0000.0001)  cg2d: iter=    66 ; resid.=  3.04829616849500E-06
(PID.TID 0000.0001)  cg2d: iter=    67 ; resid.=  2.62973952967372E-06
(PID.TID 0000.0001)  cg2d: iter=    68 ; resid.=  2.15827923422645E-06
(PID.TID 0000.0001)  cg2d: iter=    69 ; resid.=  1.90078405654189E-06
(PID.TID 0000.0001)  cg2d: iter=    70 ; resid.=  1.60177279520922E-06
(PID.TID 0000.0001)  cg2d: iter=    71 ; resid.=  1.29063200541538E-06
(PID.TID 0000.0001)  cg2d: iter=    72 ; resid.=  1.08564042506820E-06
(PID.TID 0000.0001)  cg2d: iter=    73 ; resid.=  9.29217105910888E-07
(PID.TID 0000.0001)  cg2d: iter=    74 ; resid.=  7.63356403908154E-07
(PID.TID 0000.0001)  cg2d: iter=    75 ; resid.=  6.03494721091164E-07
(PID.TID 0000.0001)  cg2d: iter=    76 ; resid.=  5.22205044998284E-07
(PID.TID 0000.0001)  cg2d: iter=    77 ; resid.=  4.26428865827753E-07
(PID.TID 0000.0001)  cg2d: iter=    78 ; resid.=  3.16129936117566E-07
(PID.TID 0000.0001)  cg2d: iter=    79 ; resid.=  2.40524407165881E-07
(PID.TID 0000.0001)  cg2d: iter=    80 ; resid.=  1.77223649453269E-07
(PID.TID 0000.0001)  cg2d: iter=    81 ; resid.=  1.34761381370049E-07
(PID.TID 0000.0001)  cg2d: iter=    82 ; resid.=  9.98474524748968E-08
(PID.TID 0000.0001)  cg2d: iter=    83 ; resid.=  7.25275785565295E-08
(PID.TID 0000.0001)  cg2d: iter=    84 ; resid.=  5.11316525327003E-08
(PID.TID 0000.0001)  cg2d: iter=    85 ; resid.=  3.69809004507688E-08
(PID.TID 0000.0001)  cg2d: iter=    86 ; resid.=  2.72944408742158E-08
(PID.TID 0000.0001)  cg2d: iter=    87 ; resid.=  2.25485560240231E-08
(PID.TID 0000.0001)  cg2d: iter=    88 ; resid.=  1.78641655105910E-08
(PID.TID 0000.0001)  cg2d: iter=    89 ; resid.=  1.53954164430559E-08
(PID.TID 0000.0001)  cg2d: iter=    90 ; resid.=  1.25689895381412E-08
(PID.TID 0000.0001)  cg2d: iter=    91 ; resid.=  9.10526838255485E-09
(PID.TID 0000.0001)  cg2d: iter=    92 ; resid.=  6.57201016262394E-09
(PID.TID 0000.0001)  cg2d: iter=    93 ; resid.=  5.42245982666306E-09
(PID.TID 0000.0001)  cg2d: iter=    94 ; resid.=  4.35848894171024E-09
(PID.TID 0000.0001)  cg2d: iter=    95 ; resid.=  3.58556125391315E-09
(PID.TID 0000.0001)  cg2d: iter=    96 ; resid.=  2.67272398494373E-09
(PID.TID 0000.0001)  cg2d: iter=    97 ; resid.=  2.10288723488370E-09
(PID.TID 0000.0001)  cg2d: iter=    98 ; resid.=  1.75643255871852E-09
(PID.TID 0000.0001)  cg2d: iter=    99 ; resid.=  1.49284105686091E-09
(PID.TID 0000.0001)  cg2d: iter=   100 ; resid.=  1.42507031595092E-09
(PID.TID 0000.0001)  cg2d: iter=   101 ; resid.=  1.16236277763365E-09
(PID.TID 0000.0001)  cg2d: iter=   102 ; resid.=  9.50789020081955E-10
(PID.TID 0000.0001)  cg2d: iter=   103 ; resid.=  7.19981241790710E-10
(PID.TID 0000.0001)  cg2d: iter=   104 ; resid.=  5.71034647903346E-10
(PID.TID 0000.0001)  cg2d: iter=   105 ; resid.=  4.58394065232832E-10
(PID.TID 0000.0001)  cg2d: iter=   106 ; resid.=  3.86745436487866E-10
(PID.TID 0000.0001)  cg2d: iter=   107 ; resid.=  3.01590282601249E-10
(PID.TID 0000.0001)  cg2d: iter=   108 ; resid.=  2.22584970228278E-10
(PID.TID 0000.0001)  cg2d: iter=   109 ; resid.=  1.66498185179686E-10
(PID.TID 0000.0001)  cg2d: iter=   110 ; resid.=  1.26378871120277E-10
(PID.TID 0000.0001)  cg2d: iter=   111 ; resid.=  1.01653577871378E-10
(PID.TID 0000.0001)  cg2d: iter=   112 ; resid.=  7.75866842951227E-11
(PID.TID 0000.0001)  cg2d: iter=   113 ; resid.=  6.04603544161037E-11
(PID.TID 0000.0001)  cg2d: iter=   114 ; resid.=  4.89260093031053E-11
(PID.TID 0000.0001)  cg2d: iter=   115 ; resid.=  3.82626052353161E-11
(PID.TID 0000.0001)  cg2d: iter=   116 ; resid.=  2.93537219104989E-11
(PID.TID 0000.0001)  cg2d: iter=   117 ; resid.=  2.33277577862111E-11
(PID.TID 0000.0001)  cg2d: iter=   118 ; resid.=  1.94439580114204E-11
(PID.TID 0000.0001)  cg2d: iter=   119 ; resid.=  1.34594775277795E-11
(PID.TID 0000.0001)  cg2d: iter=   120 ; resid.=  1.02952994226324E-11
(PID.TID 0000.0001)  cg2d: iter=   121 ; resid.=  7.96157417164516E-12
(PID.TID 0000.0001)  cg2d: iter=   122 ; resid.=  6.37924478955512E-12
(PID.TID 0000.0001)  cg2d: iter=   123 ; resid.=  4.55944504034982E-12
(PID.TID 0000.0001)  cg2d: iter=   124 ; resid.=  3.39983183675858E-12
(PID.TID 0000.0001)  cg2d: iter=   125 ; resid.=  2.39114887548894E-12
(PID.TID 0000.0001)  cg2d: iter=   126 ; resid.=  1.54104039095864E-12
(PID.TID 0000.0001)  cg2d: iter=   127 ; resid.=  1.08943855565482E-12
(PID.TID 0000.0001)  cg2d: iter=   128 ; resid.=  8.09042821421763E-13
(PID.TID 0000.0001)  cg2d: iter=   129 ; resid.=  6.62063786769656E-13
(PID.TID 0000.0001)  cg2d: iter=   130 ; resid.=  5.13366753917438E-13
(PID.TID 0000.0001)  cg2d: iter=   131 ; resid.=  3.72308400761134E-13
(PID.TID 0000.0001)  cg2d: iter=   132 ; resid.=  2.94146917247252E-13
(PID.TID 0000.0001)  cg2d: iter=   133 ; resid.=  2.42683442586444E-13
(PID.TID 0000.0001)  cg2d: iter=   134 ; resid.=  1.90900224564453E-13
(PID.TID 0000.0001)  cg2d: iter=   135 ; resid.=  1.41121776709576E-13
(PID.TID 0000.0001)  cg2d: iter=   136 ; resid.=  1.01115876660749E-13
(PID.TID 0000.0001)  cg2d: iter=   137 ; resid.=  8.00429336987215E-14
DEBUG_STATS_RL:    cg2d_x (SOLVE_FOR_PRESSURE)  min= -1.93488999369968E+01
DEBUG_STATS_RL:    cg2d_x (SOLVE_FOR_PRESSURE)  max=  9.71211605554279E+00
DEBUG_STATS_RL:    cg2d_x (SOLVE_FOR_PRESSURE) mean= -1.68493443777971E+00
DEBUG_STATS_RL:    cg2d_x (SOLVE_FOR_PRESSURE) S.D.=  6.37567545580288E+00
(PID.TID 0000.0001)      cg2d_init_res =   4.47179067122700E-01
(PID.TID 0000.0001)      cg2d_iters(min,last) =      -1     137
(PID.TID 0000.0001)      cg2d_last_res =   8.00429336987215E-14
(PID.TID 0000.0001) // =======================================================
(PID.TID 0000.0001) // Begin MONITOR dynamic field statistics
(PID.TID 0000.0001) // =======================================================
(PID.TID 0000.0001) %MON time_tsnumber                =                    54
(PID.TID 0000.0001) %MON time_secondsf                =   4.6656000000000E+06
(PID.TID 0000.0001) %MON dynstat_eta_max              =   9.9002202401046E-01
(PID.TID 0000.0001) %MON dynstat_eta_min              =  -1.9723649273186E+00
(PID.TID 0000.0001) %MON dynstat_eta_mean             =  -4.0633947532218E-03
(PID.TID 0000.0001) %MON dynstat_eta_sd               =   5.5335064171144E-01
(PID.TID 0000.0001) %MON dynstat_eta_del2             =   2.4373045664627E-03
(PID.TID 0000.0001) %MON dynstat_uvel_max             =   1.5886358092277E-01
(PID.TID 0000.0001) %MON dynstat_uvel_min             =  -1.6219695507535E-01
(PID.TID 0000.0001) %MON dynstat_uvel_mean            =   3.1551419100362E-04
(PID.TID 0000.0001) %MON dynstat_uvel_sd              =   2.0939931892864E-02
(PID.TID 0000.0001) %MON dynstat_uvel_del2            =   1.2716425216995E-04
(PID.TID 0000.0001) %MON dynstat_vvel_max             =   1.4136889424279E-01
(PID.TID 0000.0001) %MON dynstat_vvel_min             =  -1.0670130379187E-01
(PID.TID 0000.0001) %MON dynstat_vvel_mean            =   1.7955062279339E-04
(PID.TID 0000.0001) %MON dynstat_vvel_sd              =   1.2029066485225E-02
(PID.TID 0000.0001) %MON dynstat_vvel_del2            =   9.5348941912136E-05
(PID.TID 0000.0001) %MON dynstat_wvel_max             =   1.9773893094238E-04
(PID.TID 0000.0001) %MON dynstat_wvel_min             =  -1.5501141472813E-04
(PID.TID 0000.0001) %MON dynstat_wvel_mean            =   6.7686859428542E-23
(PID.TID 0000.0001) %MON dynstat_wvel_sd              =   1.8608808690511E-05
(PID.TID 0000.0001) %MON dynstat_wvel_del2            =   1.8014827921157E-07
(PID.TID 0000.0001) %MON dynstat_theta_max            =   3.0546417331000E+01
(PID.TID 0000.0001) %MON dynstat_theta_min            =  -1.9770177248845E+00
(PID.TID 0000.0001) %MON dynstat_theta_mean           =   3.6527212727381E+00
(PID.TID 0000.0001) %MON dynstat_theta_sd             =   4.4224712014994E+00
(PID.TID 0000.0001) %MON dynstat_theta_del2           =   4.8796240004954E-03
(PID.TID 0000.0001) %MON dynstat_salt_max             =   3.7494207988840E+01
(PID.TID 0000.0001) %MON dynstat_salt_min             =   2.9879609128714E+01
(PID.TID 0000.0001) %MON dynstat_salt_mean            =   3.4747968764476E+01
(PID.TID 0000.0001) %MON dynstat_salt_sd              =   2.9637297064555E-01
(PID.TID 0000.0001) %MON dynstat_salt_del2            =   9.9037631280724E-04
(PID.TID 0000.0001) %MON dynstat_sst_max              =   3.0546417331000E+01
(PID.TID 0000.0001) %MON dynstat_sst_min              =  -1.9770177248845E+00
(PID.TID 0000.0001) %MON dynstat_sst_mean             =   1.8982989201432E+01
(PID.TID 0000.0001) %MON dynstat_sst_sd               =   9.0389569657078E+00
(PID.TID 0000.0001) %MON dynstat_sst_del2             =   2.7654660993694E-02
(PID.TID 0000.0001) %MON dynstat_sss_max              =   3.7464976726198E+01
(PID.TID 0000.0001) %MON dynstat_sss_min              =   2.9879609128714E+01
(PID.TID 0000.0001) %MON dynstat_sss_mean             =   3.4872954178576E+01
(PID.TID 0000.0001) %MON dynstat_sss_sd               =   9.7888241493980E-01
(PID.TID 0000.0001) %MON dynstat_sss_del2             =   7.9365376255605E-03
(PID.TID 0000.0001) %MON forcing_qnet_max             =   3.3606702677409E+02
(PID.TID 0000.0001) %MON forcing_qnet_min             =  -1.7043973490397E+02
(PID.TID 0000.0001) %MON forcing_qnet_mean            =  -1.2178534981930E+01
(PID.TID 0000.0001) %MON forcing_qnet_sd              =   6.8564785019729E+01
(PID.TID 0000.0001) %MON forcing_qnet_del2            =   9.0838036604570E-01
(PID.TID 0000.0001) %MON forcing_qsw_max              =   0.0000000000000E+00
(PID.TID 0000.0001) %MON forcing_qsw_min              =   0.0000000000000E+00
(PID.TID 0000.0001) %MON forcing_qsw_mean             =   0.0000000000000E+00
(PID.TID 0000.0001) %MON forcing_qsw_sd               =   0.0000000000000E+00
(PID.TID 0000.0001) %MON forcing_qsw_del2             =   0.0000000000000E+00
(PID.TID 0000.0001) %MON forcing_empmr_max            =   6.9235461334453E-05
(PID.TID 0000.0001) %MON forcing_empmr_min            =  -7.4482466535149E-05
(PID.TID 0000.0001) %MON forcing_empmr_mean           =   8.3868953291453E-07
(PID.TID 0000.0001) %MON forcing_empmr_sd             =   2.7327088528464E-05
(PID.TID 0000.0001) %MON forcing_empmr_del2           =   3.5326487369371E-07
(PID.TID 0000.0001) %MON forcing_fu_max               =   3.1523034572601E-01
(PID.TID 0000.0001) %MON forcing_fu_min               =  -2.5880938669046E-01
(PID.TID 0000.0001) %MON forcing_fu_mean              =   1.8384338332303E-02
(PID.TID 0000.0001) %MON forcing_fu_sd                =   9.3654975852564E-02
(PID.TID 0000.0001) %MON forcing_fu_del2              =   7.0776369504339E-04
(PID.TID 0000.0001) %MON forcing_fv_max               =   1.6049519777298E-01
(PID.TID 0000.0001) %MON forcing_fv_min               =  -1.8779096603394E-01
(PID.TID 0000.0001) %MON forcing_fv_mean              =  -7.3001517407161E-03
(PID.TID 0000.0001) %MON forcing_fv_sd                =   4.2910526443214E-02
(PID.TID 0000.0001) %MON forcing_fv_del2              =   4.8979344061927E-04
(PID.TID 0000.0001) %MON trAdv_CFL_u_max              =   4.3616614458846E-02
(PID.TID 0000.0001) %MON trAdv_CFL_v_max              =   3.1019071116927E-02
(PID.TID 0000.0001) %MON trAdv_CFL_w_max              =   5.9433490350065E-02
(PID.TID 0000.0001) %MON advcfl_uvel_max              =   4.1532477721215E-02
(PID.TID 0000.0001) %MON advcfl_vvel_max              =   2.7465708866896E-02
(PID.TID 0000.0001) %MON advcfl_wvel_max              =   4.6807242831293E-02
(PID.TID 0000.0001) %MON advcfl_W_hf_max              =   5.0248951863006E-02
(PID.TID 0000.0001) %MON pe_b_mean                    =   3.9183701019129E-04
(PID.TID 0000.0001) %MON ke_max                       =   1.8469388289411E-02
(PID.TID 0000.0001) %MON ke_mean                      =   2.6422961219316E-04
(PID.TID 0000.0001) %MON ke_vol                       =   1.3226782436723E+18
(PID.TID 0000.0001) %MON vort_r_min                   =  -5.1542793627100E-07
(PID.TID 0000.0001) %MON vort_r_max                   =   6.0258908372153E-07
(PID.TID 0000.0001) %MON vort_a_mean                  =  -2.5274807578919E-05
(PID.TID 0000.0001) %MON vort_a_sd                    =   7.3604225645442E-05
(PID.TID 0000.0001) %MON vort_p_mean                  =  -3.1845656028118E-05
(PID.TID 0000.0001) %MON vort_p_sd                    =   1.3162337949452E-04
(PID.TID 0000.0001) %MON surfExpan_theta_mean         =  -6.1213382053436E-07
(PID.TID 0000.0001) %MON surfExpan_salt_mean          =   3.9607976316345E-07
(PID.TID 0000.0001) // =======================================================
(PID.TID 0000.0001) // End MONITOR dynamic field statistics
(PID.TID 0000.0001) // =======================================================
 EXTERNAL_FIELDS_LOAD,        54 : iP,iLd,i0,i1=    2    3    2    3 ; Wght=  0.7000000000  0.3000000000
 EXTERNAL_FIELDS_LOAD: (fu0,1),fu,fv= -1.4435E-02 -2.7199E-02 -1.8264E-02 -1.2518E-02
 EXTERNAL_FIELDS_LOAD: SST,SSS,Q,E-P= -4.2747E-01  3.4469E+01  2.3296E+02  8.5883E-06
DEBUG_STATS_RL:          Uvel (THERMODYNAMICS)  min= -1.62196955075354E-01
DEBUG_STATS_RL:          Uvel (THERMODYNAMICS)  max=  1.58863580922771E-01
DEBUG_STATS_RL:          Uvel (THERMODYNAMICS) mean=  3.90287740033269E-03
DEBUG_STATS_RL:          Uvel (THERMODYNAMICS) S.D.=  2.65942992345103E-02
DEBUG_STATS_RL:          Vvel (THERMODYNAMICS)  min= -1.06701303791873E-01
DEBUG_STATS_RL:          Vvel (THERMODYNAMICS)  max=  1.41368894242787E-01
DEBUG_STATS_RL:          Vvel (THERMODYNAMICS) mean=  1.51282016283726E-03
DEBUG_STATS_RL:          Vvel (THERMODYNAMICS) S.D.=  1.71069419288740E-02
DEBUG_STATS_RL:          Wvel (THERMODYNAMICS)  min= -1.55011414728131E-04
DEBUG_STATS_RL:          Wvel (THERMODYNAMICS)  max=  1.97738930942384E-04
DEBUG_STATS_RL:          Wvel (THERMODYNAMICS) mean= -4.60487408506741E-09
DEBUG_STATS_RL:          Wvel (THERMODYNAMICS) S.D.=  1.61393092360595E-05
DEBUG_STATS_RL:         Theta (THERMODYNAMICS)  min= -1.97508819467906E+00
DEBUG_STATS_RL:         Theta (THERMODYNAMICS)  max=  3.05771670849108E+01
DEBUG_STATS_RL:         Theta (THERMODYNAMICS) mean=  3.24844398956044E+00
DEBUG_STATS_RL:         Theta (THERMODYNAMICS) S.D.=  5.87449741919650E+00
DEBUG_STATS_RL:          Salt (THERMODYNAMICS)  min=  3.00000000000000E-02
DEBUG_STATS_RL:          Salt (THERMODYNAMICS)  max=  3.74945545617695E+01
DEBUG_STATS_RL:          Salt (THERMODYNAMICS) mean=  1.88748919633010E+01
DEBUG_STATS_RL:          Salt (THERMODYNAMICS) S.D.=  1.73004135478006E+01
DEBUG_STATS_RL:         GtNm1 (THERMODYNAMICS)  min= -4.34915874388439E-06
DEBUG_STATS_RL:         GtNm1 (THERMODYNAMICS)  max=  2.75016487558908E-06
DEBUG_STATS_RL:         GtNm1 (THERMODYNAMICS) mean=  4.08029500277821E-09
DEBUG_STATS_RL:         GtNm1 (THERMODYNAMICS) S.D.=  2.00461285682414E-07
DEBUG_STATS_RL:         GsNm1 (THERMODYNAMICS)  min= -6.28240683243040E-07
DEBUG_STATS_RL:         GsNm1 (THERMODYNAMICS)  max=  4.64484593999365E-07
DEBUG_STATS_RL:         GsNm1 (THERMODYNAMICS) mean= -3.78086961712797E-10
DEBUG_STATS_RL:         GsNm1 (THERMODYNAMICS) S.D.=  2.03418414961958E-08
DEBUG_STATS_RL:                EtaN (DYNAMICS)  min= -1.97236492731857E+00
DEBUG_STATS_RL:                EtaN (DYNAMICS)  max=  9.90022024010462E-01
DEBUG_STATS_RL:                EtaN (DYNAMICS) mean= -1.71756823423008E-01
DEBUG_STATS_RL:                EtaN (DYNAMICS) S.D.=  6.49915948603760E-01
DEBUG_STATS_RL:                Uvel (DYNAMICS)  min= -1.62196955075354E-01
DEBUG_STATS_RL:                Uvel (DYNAMICS)  max=  1.58863580922771E-01
DEBUG_STATS_RL:                Uvel (DYNAMICS) mean=  3.90287740033269E-03
DEBUG_STATS_RL:                Uvel (DYNAMICS) S.D.=  2.65942992345103E-02
DEBUG_STATS_RL:                Vvel (DYNAMICS)  min= -1.06701303791873E-01
DEBUG_STATS_RL:                Vvel (DYNAMICS)  max=  1.41368894242787E-01
DEBUG_STATS_RL:                Vvel (DYNAMICS) mean=  1.51282016283726E-03
DEBUG_STATS_RL:                Vvel (DYNAMICS) S.D.=  1.71069419288740E-02
DEBUG_STATS_RL:                Wvel (DYNAMICS)  min= -1.55011414728131E-04
DEBUG_STATS_RL:                Wvel (DYNAMICS)  max=  1.97738930942384E-04
DEBUG_STATS_RL:                Wvel (DYNAMICS) mean= -4.60487408506741E-09
DEBUG_STATS_RL:                Wvel (DYNAMICS) S.D.=  1.61393092360595E-05
DEBUG_STATS_RL:               Theta (DYNAMICS)  min= -1.97508819467906E+00
DEBUG_STATS_RL:               Theta (DYNAMICS)  max=  3.05771670849108E+01
DEBUG_STATS_RL:               Theta (DYNAMICS) mean=  3.24844398956044E+00
DEBUG_STATS_RL:               Theta (DYNAMICS) S.D.=  5.87449741919650E+00
DEBUG_STATS_RL:                Salt (DYNAMICS)  min=  3.00000000000000E-02
DEBUG_STATS_RL:                Salt (DYNAMICS)  max=  3.74945545617695E+01
DEBUG_STATS_RL:                Salt (DYNAMICS) mean=  1.88748919633010E+01
DEBUG_STATS_RL:                Salt (DYNAMICS) S.D.=  1.73004135478006E+01
DEBUG_STATS_RL:                  Gu (DYNAMICS)  min= -1.58768597208495E-01
DEBUG_STATS_RL:                  Gu (DYNAMICS)  max=  1.55347233598588E-01
DEBUG_STATS_RL:                  Gu (DYNAMICS) mean=  4.21421477155310E-03
DEBUG_STATS_RL:                  Gu (DYNAMICS) S.D.=  2.67233778848075E-02
DEBUG_STATS_RL:                  Gv (DYNAMICS)  min= -1.02474929210639E-01
DEBUG_STATS_RL:                  Gv (DYNAMICS)  max=  1.44051995631329E-01
DEBUG_STATS_RL:                  Gv (DYNAMICS) mean=  3.57186302358644E-03
DEBUG_STATS_RL:                  Gv (DYNAMICS) S.D.=  1.84275385759119E-02
DEBUG_STATS_RL:               GuNm1 (DYNAMICS)  min= -9.79428459581153E-06
DEBUG_STATS_RL:               GuNm1 (DYNAMICS)  max=  9.26457323599180E-06
DEBUG_STATS_RL:               GuNm1 (DYNAMICS) mean=  1.07380927144423E-08
DEBUG_STATS_RL:               GuNm1 (DYNAMICS) S.D.=  1.21040269011657E-06
DEBUG_STATS_RL:               GvNm1 (DYNAMICS)  min= -9.27720254325500E-06
DEBUG_STATS_RL:               GvNm1 (DYNAMICS)  max=  1.63144374234834E-05
DEBUG_STATS_RL:               GvNm1 (DYNAMICS) mean=  7.44896284911095E-07
DEBUG_STATS_RL:               GvNm1 (DYNAMICS) S.D.=  2.63961419838164E-06
DEBUG_STATS_RL:               GtNm1 (DYNAMICS)  min= -4.34915874388439E-06
DEBUG_STATS_RL:               GtNm1 (DYNAMICS)  max=  2.75016487558908E-06
DEBUG_STATS_RL:               GtNm1 (DYNAMICS) mean=  4.08029500277821E-09
DEBUG_STATS_RL:               GtNm1 (DYNAMICS) S.D.=  2.00461285682414E-07
DEBUG_STATS_RL:               GsNm1 (DYNAMICS)  min= -6.28240683243040E-07
DEBUG_STATS_RL:               GsNm1 (DYNAMICS)  max=  4.64484593999365E-07
DEBUG_STATS_RL:               GsNm1 (DYNAMICS) mean= -3.78086961712797E-10
DEBUG_STATS_RL:               GsNm1 (DYNAMICS) S.D.=  2.03418414961958E-08
DEBUG_STATS_RL:    cg2d_b (SOLVE_FOR_PRESSURE)  min= -2.48816069904769E+04
DEBUG_STATS_RL:    cg2d_b (SOLVE_FOR_PRESSURE)  max=  2.40809760187165E+04
DEBUG_STATS_RL:    cg2d_b (SOLVE_FOR_PRESSURE) mean=  3.96052272235713E+00
DEBUG_STATS_RL:    cg2d_b (SOLVE_FOR_PRESSURE) S.D.=  3.95844684263870E+03
 cg2d: Sum(rhs),rhsMax =   3.68489467170134E-01  1.63429056578883E+00
(PID.TID 0000.0001)  cg2d: iter=     1 ; resid.=  3.24735834180507E-01
(PID.TID 0000.0001)  cg2d: iter=     2 ; resid.=  3.17404212241820E-01
(PID.TID 0000.0001)  cg2d: iter=     3 ; resid.=  2.94077111437919E-01
(PID.TID 0000.0001)  cg2d: iter=     4 ; resid.=  2.75289708281401E-01
(PID.TID 0000.0001)  cg2d: iter=     5 ; resid.=  2.68206543427113E-01
(PID.TID 0000.0001)  cg2d: iter=     6 ; resid.=  2.25337505263861E-01
(PID.TID 0000.0001)  cg2d: iter=     7 ; resid.=  1.75730328510608E-01
(PID.TID 0000.0001)  cg2d: iter=     8 ; resid.=  1.26118414293269E-01
(PID.TID 0000.0001)  cg2d: iter=     9 ; resid.=  9.81611070804435E-02
(PID.TID 0000.0001)  cg2d: iter=    10 ; resid.=  8.45504204233505E-02
(PID.TID 0000.0001)  cg2d: iter=    11 ; resid.=  7.65157930743823E-02
(PID.TID 0000.0001)  cg2d: iter=    12 ; resid.=  6.46099178744160E-02
(PID.TID 0000.0001)  cg2d: iter=    13 ; resid.=  5.35480198316587E-02
(PID.TID 0000.0001)  cg2d: iter=    14 ; resid.=  4.30481390935723E-02
(PID.TID 0000.0001)  cg2d: iter=    15 ; resid.=  3.42843381998270E-02
(PID.TID 0000.0001)  cg2d: iter=    16 ; resid.=  3.11247530133832E-02
(PID.TID 0000.0001)  cg2d: iter=    17 ; resid.=  2.62372968603069E-02
(PID.TID 0000.0001)  cg2d: iter=    18 ; resid.=  2.41849451310887E-02
(PID.TID 0000.0001)  cg2d: iter=    19 ; resid.=  1.83278058444547E-02
(PID.TID 0000.0001)  cg2d: iter=    20 ; resid.=  1.47186971713160E-02
(PID.TID 0000.0001)  cg2d: iter=    21 ; resid.=  1.23435082984289E-02
(PID.TID 0000.0001)  cg2d: iter=    22 ; resid.=  1.08289669664592E-02
(PID.TID 0000.0001)  cg2d: iter=    23 ; resid.=  8.90487330662210E-03
(PID.TID 0000.0001)  cg2d: iter=    24 ; resid.=  8.03616856735644E-03
(PID.TID 0000.0001)  cg2d: iter=    25 ; resid.=  6.32992883993290E-03
(PID.TID 0000.0001)  cg2d: iter=    26 ; resid.=  5.04596451967003E-03
(PID.TID 0000.0001)  cg2d: iter=    27 ; resid.=  4.05201493510568E-03
(PID.TID 0000.0001)  cg2d: iter=    28 ; resid.=  3.11460614102030E-03
(PID.TID 0000.0001)  cg2d: iter=    29 ; resid.=  2.47891131307854E-03
(PID.TID 0000.0001)  cg2d: iter=    30 ; resid.=  2.09052986035329E-03
(PID.TID 0000.0001)  cg2d: iter=    31 ; resid.=  1.78429286738901E-03
(PID.TID 0000.0001)  cg2d: iter=    32 ; resid.=  1.44036602668911E-03
(PID.TID 0000.0001)  cg2d: iter=    33 ; resid.=  1.19755422574434E-03
(PID.TID 0000.0001)  cg2d: iter=    34 ; resid.=  1.03055163358072E-03
(PID.TID 0000.0001)  cg2d: iter=    35 ; resid.=  8.53860939006222E-04
(PID.TID 0000.0001)  cg2d: iter=    36 ; resid.=  7.55434535389739E-04
(PID.TID 0000.0001)  cg2d: iter=    37 ; resid.=  6.50783270395968E-04
(PID.TID 0000.0001)  cg2d: iter=    38 ; resid.=  5.99675495060024E-04
(PID.TID 0000.0001)  cg2d: iter=    39 ; resid.=  5.05294262644180E-04
(PID.TID 0000.0001)  cg2d: iter=    40 ; resid.=  4.36605255677126E-04
(PID.TID 0000.0001)  cg2d: iter=    41 ; resid.=  3.79160431033367E-04
(PID.TID 0000.0001)  cg2d: iter=    42 ; resid.=  3.18261793343931E-04
(PID.TID 0000.0001)  cg2d: iter=    43 ; resid.=  2.51762463949576E-04
(PID.TID 0000.0001)  cg2d: iter=    44 ; resid.=  1.98193936320148E-04
(PID.TID 0000.0001)  cg2d: iter=    45 ; resid.=  1.53034542368049E-04
(PID.TID 0000.0001)  cg2d: iter=    46 ; resid.=  1.24011987795829E-04
(PID.TID 0000.0001)  cg2d: iter=    47 ; resid.=  1.08964578446270E-04
(PID.TID 0000.0001)  cg2d: iter=    48 ; resid.=  8.76711255028818E-05
(PID.TID 0000.0001)  cg2d: iter=    49 ; resid.=  7.63933719812153E-05
(PID.TID 0000.0001)  cg2d: iter=    50 ; resid.=  6.73911083890330E-05
(PID.TID 0000.0001)  cg2d: iter=    51 ; resid.=  6.13028165859191E-05
(PID.TID 0000.0001)  cg2d: iter=    52 ; resid.=  5.17856364545246E-05
(PID.TID 0000.0001)  cg2d: iter=    53 ; resid.=  4.13012678799990E-05
(PID.TID 0000.0001)  cg2d: iter=    54 ; resid.=  3.28410502237112E-05
(PID.TID 0000.0001)  cg2d: iter=    55 ; resid.=  2.79199539914648E-05
(PID.TID 0000.0001)  cg2d: iter=    56 ; resid.=  2.39686383877143E-05
(PID.TID 0000.0001)  cg2d: iter=    57 ; resid.=  1.90536841103923E-05
(PID.TID 0000.0001)  cg2d: iter=    58 ; resid.=  1.51350386449965E-05
(PID.TID 0000.0001)  cg2d: iter=    59 ; resid.=  1.17645303409130E-05
(PID.TID 0000.0001)  cg2d: iter=    60 ; resid.=  8.56632660472645E-06
(PID.TID 0000.0001)  cg2d: iter=    61 ; resid.=  7.24744884086726E-06
(PID.TID 0000.0001)  cg2d: iter=    62 ; resid.=  6.36229170422213E-06
(PID.TID 0000.0001)  cg2d: iter=    63 ; resid.=  5.50440742503792E-06
(PID.TID 0000.0001)  cg2d: iter=    64 ; resid.=  4.51649194864639E-06
(PID.TID 0000.0001)  cg2d: iter=    65 ; resid.=  3.58497536964051E-06
(PID.TID 0000.0001)  cg2d: iter=    66 ; resid.=  3.06318812434285E-06
(PID.TID 0000.0001)  cg2d: iter=    67 ; resid.=  2.63743044514251E-06
(PID.TID 0000.0001)  cg2d: iter=    68 ; resid.=  2.15390363609592E-06
(PID.TID 0000.0001)  cg2d: iter=    69 ; resid.=  1.89086976868455E-06
(PID.TID 0000.0001)  cg2d: iter=    70 ; resid.=  1.58229351365665E-06
(PID.TID 0000.0001)  cg2d: iter=    71 ; resid.=  1.28787383163085E-06
(PID.TID 0000.0001)  cg2d: iter=    72 ; resid.=  1.07270166622917E-06
(PID.TID 0000.0001)  cg2d: iter=    73 ; resid.=  9.16167876811186E-07
(PID.TID 0000.0001)  cg2d: iter=    74 ; resid.=  7.47514661130493E-07
(PID.TID 0000.0001)  cg2d: iter=    75 ; resid.=  5.94209410502101E-07
(PID.TID 0000.0001)  cg2d: iter=    76 ; resid.=  5.19478908709890E-07
(PID.TID 0000.0001)  cg2d: iter=    77 ; resid.=  4.25074094047339E-07
(PID.TID 0000.0001)  cg2d: iter=    78 ; resid.=  3.22990843127896E-07
(PID.TID 0000.0001)  cg2d: iter=    79 ; resid.=  2.48270686565630E-07
(PID.TID 0000.0001)  cg2d: iter=    80 ; resid.=  1.84872674086051E-07
(PID.TID 0000.0001)  cg2d: iter=    81 ; resid.=  1.39828194360670E-07
(PID.TID 0000.0001)  cg2d: iter=    82 ; resid.=  1.04746370883864E-07
(PID.TID 0000.0001)  cg2d: iter=    83 ; resid.=  7.43598606243824E-08
(PID.TID 0000.0001)  cg2d: iter=    84 ; resid.=  5.16244113787337E-08
(PID.TID 0000.0001)  cg2d: iter=    85 ; resid.=  3.70542529333187E-08
(PID.TID 0000.0001)  cg2d: iter=    86 ; resid.=  2.72657434613109E-08
(PID.TID 0000.0001)  cg2d: iter=    87 ; resid.=  2.22526011620065E-08
(PID.TID 0000.0001)  cg2d: iter=    88 ; resid.=  1.71910236167126E-08
(PID.TID 0000.0001)  cg2d: iter=    89 ; resid.=  1.44896452392217E-08
(PID.TID 0000.0001)  cg2d: iter=    90 ; resid.=  1.16668090810671E-08
(PID.TID 0000.0001)  cg2d: iter=    91 ; resid.=  8.32107344839719E-09
(PID.TID 0000.0001)  cg2d: iter=    92 ; resid.=  6.04182380473873E-09
(PID.TID 0000.0001)  cg2d: iter=    93 ; resid.=  5.07881409040639E-09
(PID.TID 0000.0001)  cg2d: iter=    94 ; resid.=  4.17889887738828E-09
(PID.TID 0000.0001)  cg2d: iter=    95 ; resid.=  3.57010768268886E-09
(PID.TID 0000.0001)  cg2d: iter=    96 ; resid.=  2.70633251896841E-09
(PID.TID 0000.0001)  cg2d: iter=    97 ; resid.=  2.10410505478377E-09
(PID.TID 0000.0001)  cg2d: iter=    98 ; resid.=  1.74943069734600E-09
(PID.TID 0000.0001)  cg2d: iter=    99 ; resid.=  1.48621176673507E-09
(PID.TID 0000.0001)  cg2d: iter=   100 ; resid.=  1.40739457235355E-09
(PID.TID 0000.0001)  cg2d: iter=   101 ; resid.=  1.15025143199582E-09
(PID.TID 0000.0001)  cg2d: iter=   102 ; resid.=  9.37606674710313E-10
(PID.TID 0000.0001)  cg2d: iter=   103 ; resid.=  7.11121498092840E-10
(PID.TID 0000.0001)  cg2d: iter=   104 ; resid.=  5.55674665620979E-10
(PID.TID 0000.0001)  cg2d: iter=   105 ; resid.=  4.48114597611285E-10
(PID.TID 0000.0001)  cg2d: iter=   106 ; resid.=  3.76753867636070E-10
(PID.TID 0000.0001)  cg2d: iter=   107 ; resid.=  2.95785463027131E-10
(PID.TID 0000.0001)  cg2d: iter=   108 ; resid.=  2.21272846095449E-10
(PID.TID 0000.0001)  cg2d: iter=   109 ; resid.=  1.62721716663546E-10
(PID.TID 0000.0001)  cg2d: iter=   110 ; resid.=  1.20234935565064E-10
(PID.TID 0000.0001)  cg2d: iter=   111 ; resid.=  9.41932123746450E-11
(PID.TID 0000.0001)  cg2d: iter=   112 ; resid.=  6.76491605439896E-11
(PID.TID 0000.0001)  cg2d: iter=   113 ; resid.=  5.07745568536616E-11
(PID.TID 0000.0001)  cg2d: iter=   114 ; resid.=  4.01607643479574E-11
(PID.TID 0000.0001)  cg2d: iter=   115 ; resid.=  3.11994165791444E-11
(PID.TID 0000.0001)  cg2d: iter=   116 ; resid.=  2.37633117117164E-11
(PID.TID 0000.0001)  cg2d: iter=   117 ; resid.=  1.91057063924014E-11
(PID.TID 0000.0001)  cg2d: iter=   118 ; resid.=  1.65424712392032E-11
(PID.TID 0000.0001)  cg2d: iter=   119 ; resid.=  1.17311244876813E-11
(PID.TID 0000.0001)  cg2d: iter=   120 ; resid.=  9.33324591254075E-12
(PID.TID 0000.0001)  cg2d: iter=   121 ; resid.=  7.51618314198859E-12
(PID.TID 0000.0001)  cg2d: iter=   122 ; resid.=  6.30012284100855E-12
(PID.TID 0000.0001)  cg2d: iter=   123 ; resid.=  4.55379159648047E-12
(PID.TID 0000.0001)  cg2d: iter=   124 ; resid.=  3.36509377832029E-12
(PID.TID 0000.0001)  cg2d: iter=   125 ; resid.=  2.38326899367505E-12
(PID.TID 0000.0001)  cg2d: iter=   126 ; resid.=  1.53128893888997E-12
(PID.TID 0000.0001)  cg2d: iter=   127 ; resid.=  1.09519622242135E-12
(PID.TID 0000.0001)  cg2d: iter=   128 ; resid.=  8.03687757181713E-13
(PID.TID 0000.0001)  cg2d: iter=   129 ; resid.=  6.47380394456470E-13
(PID.TID 0000.0001)  cg2d: iter=   130 ; resid.=  4.90403496118373E-13
(PID.TID 0000.0001)  cg2d: iter=   131 ; resid.=  3.45882813050774E-13
(PID.TID 0000.0001)  cg2d: iter=   132 ; resid.=  2.60852405956150E-13
(PID.TID 0000.0001)  cg2d: iter=   133 ; resid.=  2.11723223921317E-13
(PID.TID 0000.0001)  cg2d: iter=   134 ; resid.=  1.70361086150524E-13
(PID.TID 0000.0001)  cg2d: iter=   135 ; resid.=  1.28437793249992E-13
(PID.TID 0000.0001)  cg2d: iter=   136 ; resid.=  9.48163001660869E-14
DEBUG_STATS_RL:    cg2d_x (SOLVE_FOR_PRESSURE)  min= -1.80479852638454E+01
DEBUG_STATS_RL:    cg2d_x (SOLVE_FOR_PRESSURE)  max=  9.62841106128790E+00
DEBUG_STATS_RL:    cg2d_x (SOLVE_FOR_PRESSURE) mean= -1.64589235979595E+00
DEBUG_STATS_RL:    cg2d_x (SOLVE_FOR_PRESSURE) S.D.=  6.40570848164440E+00
(PID.TID 0000.0001)      cg2d_init_res =   4.56182275457800E-01
(PID.TID 0000.0001)      cg2d_iters(min,last) =      -1     136
(PID.TID 0000.0001)      cg2d_last_res =   9.48163001660869E-14
(PID.TID 0000.0001) // =======================================================
(PID.TID 0000.0001) // Begin MONITOR dynamic field statistics
(PID.TID 0000.0001) // =======================================================
(PID.TID 0000.0001) %MON time_tsnumber                =                    55
(PID.TID 0000.0001) %MON time_secondsf                =   4.7520000000000E+06
(PID.TID 0000.0001) %MON dynstat_eta_max              =   9.8148940482038E-01
(PID.TID 0000.0001) %MON dynstat_eta_min              =  -1.8397538495254E+00
(PID.TID 0000.0001) %MON dynstat_eta_mean             =  -4.1323143721748E-03
(PID.TID 0000.0001) %MON dynstat_eta_sd               =   5.5776794463915E-01
(PID.TID 0000.0001) %MON dynstat_eta_del2             =   2.4416728868813E-03
(PID.TID 0000.0001) %MON dynstat_uvel_max             =   1.4998113487953E-01
(PID.TID 0000.0001) %MON dynstat_uvel_min             =  -1.6049581852066E-01
(PID.TID 0000.0001) %MON dynstat_uvel_mean            =   6.0057061143070E-04
(PID.TID 0000.0001) %MON dynstat_uvel_sd              =   2.0798532755125E-02
(PID.TID 0000.0001) %MON dynstat_uvel_del2            =   1.2642868625895E-04
(PID.TID 0000.0001) %MON dynstat_vvel_max             =   1.4225389402251E-01
(PID.TID 0000.0001) %MON dynstat_vvel_min             =  -1.0382412699482E-01
(PID.TID 0000.0001) %MON dynstat_vvel_mean            =   2.1087592582366E-04
(PID.TID 0000.0001) %MON dynstat_vvel_sd              =   1.1998199409259E-02
(PID.TID 0000.0001) %MON dynstat_vvel_del2            =   9.4337774537296E-05
(PID.TID 0000.0001) %MON dynstat_wvel_max             =   1.9377620183121E-04
(PID.TID 0000.0001) %MON dynstat_wvel_min             =  -1.5814224112420E-04
(PID.TID 0000.0001) %MON dynstat_wvel_mean            =  -4.1286461189894E-24
(PID.TID 0000.0001) %MON dynstat_wvel_sd              =   1.8342811862458E-05
(PID.TID 0000.0001) %MON dynstat_wvel_del2            =   1.7681443298785E-07
(PID.TID 0000.0001) %MON dynstat_theta_max            =   3.0577167084911E+01
(PID.TID 0000.0001) %MON dynstat_theta_min            =  -1.9750881946791E+00
(PID.TID 0000.0001) %MON dynstat_theta_mean           =   3.6528018224220E+00
(PID.TID 0000.0001) %MON dynstat_theta_sd             =   4.4227441136662E+00
(PID.TID 0000.0001) %MON dynstat_theta_del2           =   4.8926276514132E-03
(PID.TID 0000.0001) %MON dynstat_salt_max             =   3.7494554561770E+01
(PID.TID 0000.0001) %MON dynstat_salt_min             =   2.9883558567984E+01
(PID.TID 0000.0001) %MON dynstat_salt_mean            =   3.4747961053350E+01
(PID.TID 0000.0001) %MON dynstat_salt_sd              =   2.9636452719797E-01
(PID.TID 0000.0001) %MON dynstat_salt_del2            =   9.9042558866546E-04
(PID.TID 0000.0001) %MON dynstat_sst_max              =   3.0577167084911E+01
(PID.TID 0000.0001) %MON dynstat_sst_min              =  -1.9750881946791E+00
(PID.TID 0000.0001) %MON dynstat_sst_mean             =   1.8989165118499E+01
(PID.TID 0000.0001) %MON dynstat_sst_sd               =   9.0432476626808E+00
(PID.TID 0000.0001) %MON dynstat_sst_del2             =   2.7696176527708E-02
(PID.TID 0000.0001) %MON dynstat_sss_max              =   3.7465876632741E+01
(PID.TID 0000.0001) %MON dynstat_sss_min              =   2.9883558567984E+01
(PID.TID 0000.0001) %MON dynstat_sss_mean             =   3.4872584824219E+01
(PID.TID 0000.0001) %MON dynstat_sss_sd               =   9.7914679504321E-01
(PID.TID 0000.0001) %MON dynstat_sss_del2             =   7.9418497843409E-03
(PID.TID 0000.0001) %MON forcing_qnet_max             =   3.3326887512207E+02
(PID.TID 0000.0001) %MON forcing_qnet_min             =  -1.7014045562744E+02
(PID.TID 0000.0001) %MON forcing_qnet_mean            =  -1.1955195482304E+01
(PID.TID 0000.0001) %MON forcing_qnet_sd              =   6.7256363910996E+01
(PID.TID 0000.0001) %MON forcing_qnet_del2            =   9.0397400238124E-01
(PID.TID 0000.0001) %MON forcing_qsw_max              =   0.0000000000000E+00
(PID.TID 0000.0001) %MON forcing_qsw_min              =   0.0000000000000E+00
(PID.TID 0000.0001) %MON forcing_qsw_mean             =   0.0000000000000E+00
(PID.TID 0000.0001) %MON forcing_qsw_sd               =   0.0000000000000E+00
(PID.TID 0000.0001) %MON forcing_qsw_del2             =   0.0000000000000E+00
(PID.TID 0000.0001) %MON forcing_empmr_max            =   6.9229704990903E-05
(PID.TID 0000.0001) %MON forcing_empmr_min            =  -7.4881646128233E-05
(PID.TID 0000.0001) %MON forcing_empmr_mean           =   8.2559960204017E-07
(PID.TID 0000.0001) %MON forcing_empmr_sd             =   2.7255145290589E-05
(PID.TID 0000.0001) %MON forcing_empmr_del2           =   3.5320210303148E-07
(PID.TID 0000.0001) %MON forcing_fu_max               =   3.1678166687489E-01
(PID.TID 0000.0001) %MON forcing_fu_min               =  -2.6419401615858E-01
(PID.TID 0000.0001) %MON forcing_fu_mean              =   1.8478537921761E-02
(PID.TID 0000.0001) %MON forcing_fu_sd                =   9.3831537675814E-02
(PID.TID 0000.0001) %MON forcing_fu_del2              =   7.0632006807691E-04
(PID.TID 0000.0001) %MON forcing_fv_max               =   1.5941785573959E-01
(PID.TID 0000.0001) %MON forcing_fv_min               =  -1.8630492985249E-01
(PID.TID 0000.0001) %MON forcing_fv_mean              =  -7.3105800906856E-03
(PID.TID 0000.0001) %MON forcing_fv_sd                =   4.2714976969337E-02
(PID.TID 0000.0001) %MON forcing_fv_del2              =   4.8525323250971E-04
(PID.TID 0000.0001) %MON trAdv_CFL_u_max              =   4.1540913264485E-02
(PID.TID 0000.0001) %MON trAdv_CFL_v_max              =   3.0391719278622E-02
(PID.TID 0000.0001) %MON trAdv_CFL_w_max              =   4.9311194263485E-02
(PID.TID 0000.0001) %MON advcfl_uvel_max              =   4.2166317027768E-02
(PID.TID 0000.0001) %MON advcfl_vvel_max              =   2.7637650130407E-02
(PID.TID 0000.0001) %MON advcfl_wvel_max              =   4.5869215995113E-02
(PID.TID 0000.0001) %MON advcfl_W_hf_max              =   5.3736558294703E-02
(PID.TID 0000.0001) %MON pe_b_mean                    =   3.9811829915014E-04
(PID.TID 0000.0001) %MON ke_max                       =   1.8499853845864E-02
(PID.TID 0000.0001) %MON ke_mean                      =   2.6133951172398E-04
(PID.TID 0000.0001) %MON ke_vol                       =   1.3226782436723E+18
(PID.TID 0000.0001) %MON vort_r_min                   =  -5.0559359488639E-07
(PID.TID 0000.0001) %MON vort_r_max                   =   6.2015011562048E-07
(PID.TID 0000.0001) %MON vort_a_mean                  =  -2.5274807757765E-05
(PID.TID 0000.0001) %MON vort_a_sd                    =   7.3604263768555E-05
(PID.TID 0000.0001) %MON vort_p_mean                  =  -3.1845656253459E-05
(PID.TID 0000.0001) %MON vort_p_sd                    =   1.3162340886490E-04
(PID.TID 0000.0001) %MON surfExpan_theta_mean         =  -5.6894452885542E-07
(PID.TID 0000.0001) %MON surfExpan_salt_mean          =   3.6009152819703E-07
(PID.TID 0000.0001) // =======================================================
(PID.TID 0000.0001) // End MONITOR dynamic field statistics
(PID.TID 0000.0001) // =======================================================
 EXTERNAL_FIELDS_LOAD,        55 : iP,iLd,i0,i1=    2    3    2    3 ; Wght=  0.6666666667  0.3333333333
 EXTERNAL_FIELDS_LOAD: (fu0,1),fu,fv= -1.4435E-02 -2.7199E-02 -1.8689E-02 -1.1950E-02
 EXTERNAL_FIELDS_LOAD: SST,SSS,Q,E-P= -4.1587E-01  3.4474E+01  2.3212E+02  8.6117E-06
DEBUG_STATS_RL:          Uvel (THERMODYNAMICS)  min= -1.60495818520658E-01
DEBUG_STATS_RL:          Uvel (THERMODYNAMICS)  max=  1.49981134879529E-01
DEBUG_STATS_RL:          Uvel (THERMODYNAMICS) mean=  4.31425866898277E-03
DEBUG_STATS_RL:          Uvel (THERMODYNAMICS) S.D.=  2.64142403175399E-02
DEBUG_STATS_RL:          Vvel (THERMODYNAMICS)  min= -1.03824126994815E-01
DEBUG_STATS_RL:          Vvel (THERMODYNAMICS)  max=  1.42253894022513E-01
DEBUG_STATS_RL:          Vvel (THERMODYNAMICS) mean=  1.43708405942843E-03
DEBUG_STATS_RL:          Vvel (THERMODYNAMICS) S.D.=  1.70751408907059E-02
DEBUG_STATS_RL:          Wvel (THERMODYNAMICS)  min= -1.58142241124197E-04
DEBUG_STATS_RL:          Wvel (THERMODYNAMICS)  max=  1.93776201831208E-04
DEBUG_STATS_RL:          Wvel (THERMODYNAMICS) mean= -2.12486299722014E-08
DEBUG_STATS_RL:          Wvel (THERMODYNAMICS) S.D.=  1.58731067755592E-05
DEBUG_STATS_RL:         Theta (THERMODYNAMICS)  min= -1.97319779207042E+00
DEBUG_STATS_RL:         Theta (THERMODYNAMICS)  max=  3.06043165888446E+01
DEBUG_STATS_RL:         Theta (THERMODYNAMICS) mean=  3.24861641893452E+00
DEBUG_STATS_RL:         Theta (THERMODYNAMICS) S.D.=  5.87512350110117E+00
DEBUG_STATS_RL:          Salt (THERMODYNAMICS)  min=  3.00000000000000E-02
DEBUG_STATS_RL:          Salt (THERMODYNAMICS)  max=  3.74948721143890E+01
DEBUG_STATS_RL:          Salt (THERMODYNAMICS) mean=  1.88748748449080E+01
DEBUG_STATS_RL:          Salt (THERMODYNAMICS) S.D.=  1.73003979696783E+01
DEBUG_STATS_RL:         GtNm1 (THERMODYNAMICS)  min= -4.02858226153589E-06
DEBUG_STATS_RL:         GtNm1 (THERMODYNAMICS)  max=  2.55185916213755E-06
DEBUG_STATS_RL:         GtNm1 (THERMODYNAMICS) mean=  4.00711378214992E-09
DEBUG_STATS_RL:         GtNm1 (THERMODYNAMICS) S.D.=  1.97976590380094E-07
DEBUG_STATS_RL:         GsNm1 (THERMODYNAMICS)  min= -5.70924358934012E-07
DEBUG_STATS_RL:         GsNm1 (THERMODYNAMICS)  max=  4.21181951540474E-07
DEBUG_STATS_RL:         GsNm1 (THERMODYNAMICS) mean= -4.12608304729965E-10
DEBUG_STATS_RL:         GsNm1 (THERMODYNAMICS) S.D.=  2.01416218762766E-08
DEBUG_STATS_RL:                EtaN (DYNAMICS)  min= -1.83975384952540E+00
DEBUG_STATS_RL:                EtaN (DYNAMICS)  max=  9.81489404820382E-01
DEBUG_STATS_RL:                EtaN (DYNAMICS) mean= -1.67776998959833E-01
DEBUG_STATS_RL:                EtaN (DYNAMICS) S.D.=  6.52977419127870E-01
DEBUG_STATS_RL:                Uvel (DYNAMICS)  min= -1.60495818520658E-01
DEBUG_STATS_RL:                Uvel (DYNAMICS)  max=  1.49981134879529E-01
DEBUG_STATS_RL:                Uvel (DYNAMICS) mean=  4.31425866898277E-03
DEBUG_STATS_RL:                Uvel (DYNAMICS) S.D.=  2.64142403175399E-02
DEBUG_STATS_RL:                Vvel (DYNAMICS)  min= -1.03824126994815E-01
DEBUG_STATS_RL:                Vvel (DYNAMICS)  max=  1.42253894022513E-01
DEBUG_STATS_RL:                Vvel (DYNAMICS) mean=  1.43708405942843E-03
DEBUG_STATS_RL:                Vvel (DYNAMICS) S.D.=  1.70751408907059E-02
DEBUG_STATS_RL:                Wvel (DYNAMICS)  min= -1.58142241124197E-04
DEBUG_STATS_RL:                Wvel (DYNAMICS)  max=  1.93776201831208E-04
DEBUG_STATS_RL:                Wvel (DYNAMICS) mean= -2.12486299722014E-08
DEBUG_STATS_RL:                Wvel (DYNAMICS) S.D.=  1.58731067755592E-05
DEBUG_STATS_RL:               Theta (DYNAMICS)  min= -1.97319779207042E+00
DEBUG_STATS_RL:               Theta (DYNAMICS)  max=  3.06043165888446E+01
DEBUG_STATS_RL:               Theta (DYNAMICS) mean=  3.24861641893452E+00
DEBUG_STATS_RL:               Theta (DYNAMICS) S.D.=  5.87512350110117E+00
DEBUG_STATS_RL:                Salt (DYNAMICS)  min=  3.00000000000000E-02
DEBUG_STATS_RL:                Salt (DYNAMICS)  max=  3.74948721143890E+01
DEBUG_STATS_RL:                Salt (DYNAMICS) mean=  1.88748748449080E+01
DEBUG_STATS_RL:                Salt (DYNAMICS) S.D.=  1.73003979696783E+01
DEBUG_STATS_RL:                  Gu (DYNAMICS)  min= -1.56829418295566E-01
DEBUG_STATS_RL:                  Gu (DYNAMICS)  max=  1.45807703057397E-01
DEBUG_STATS_RL:                  Gu (DYNAMICS) mean=  4.60449194137525E-03
DEBUG_STATS_RL:                  Gu (DYNAMICS) S.D.=  2.65835073155987E-02
DEBUG_STATS_RL:                  Gv (DYNAMICS)  min= -1.00033247165208E-01
DEBUG_STATS_RL:                  Gv (DYNAMICS)  max=  1.44719020280418E-01
DEBUG_STATS_RL:                  Gv (DYNAMICS) mean=  3.55467325442284E-03
DEBUG_STATS_RL:                  Gv (DYNAMICS) S.D.=  1.83767815692219E-02
DEBUG_STATS_RL:               GuNm1 (DYNAMICS)  min= -9.80782334839615E-06
DEBUG_STATS_RL:               GuNm1 (DYNAMICS)  max=  9.32018447094306E-06
DEBUG_STATS_RL:               GuNm1 (DYNAMICS) mean=  1.13621089793568E-08
DEBUG_STATS_RL:               GuNm1 (DYNAMICS) S.D.=  1.21193103051491E-06
DEBUG_STATS_RL:               GvNm1 (DYNAMICS)  min= -9.36853405882217E-06
DEBUG_STATS_RL:               GvNm1 (DYNAMICS)  max=  1.62504990639835E-05
DEBUG_STATS_RL:               GvNm1 (DYNAMICS) mean=  7.45324691152948E-07
DEBUG_STATS_RL:               GvNm1 (DYNAMICS) S.D.=  2.64454406209421E-06
DEBUG_STATS_RL:               GtNm1 (DYNAMICS)  min= -4.02858226153589E-06
DEBUG_STATS_RL:               GtNm1 (DYNAMICS)  max=  2.55185916213755E-06
DEBUG_STATS_RL:               GtNm1 (DYNAMICS) mean=  4.00711378214992E-09
DEBUG_STATS_RL:               GtNm1 (DYNAMICS) S.D.=  1.97976590380094E-07
DEBUG_STATS_RL:               GsNm1 (DYNAMICS)  min= -5.70924358934012E-07
DEBUG_STATS_RL:               GsNm1 (DYNAMICS)  max=  4.21181951540474E-07
DEBUG_STATS_RL:               GsNm1 (DYNAMICS) mean= -4.12608304729965E-10
DEBUG_STATS_RL:               GsNm1 (DYNAMICS) S.D.=  2.01416218762766E-08
DEBUG_STATS_RL:    cg2d_b (SOLVE_FOR_PRESSURE)  min= -2.36643659255631E+04
DEBUG_STATS_RL:    cg2d_b (SOLVE_FOR_PRESSURE)  max=  2.46721408924266E+04
DEBUG_STATS_RL:    cg2d_b (SOLVE_FOR_PRESSURE) mean=  4.02552986649586E+00
DEBUG_STATS_RL:    cg2d_b (SOLVE_FOR_PRESSURE) S.D.=  3.97559709864531E+03
 cg2d: Sum(rhs),rhsMax =   3.77717591739174E-01  1.62053227163897E+00
(PID.TID 0000.0001)  cg2d: iter=     1 ; resid.=  3.10369981135661E-01
(PID.TID 0000.0001)  cg2d: iter=     2 ; resid.=  2.88203861305981E-01
(PID.TID 0000.0001)  cg2d: iter=     3 ; resid.=  2.66542336813838E-01
(PID.TID 0000.0001)  cg2d: iter=     4 ; resid.=  2.49590064566816E-01
(PID.TID 0000.0001)  cg2d: iter=     5 ; resid.=  2.34288823096623E-01
(PID.TID 0000.0001)  cg2d: iter=     6 ; resid.=  1.99477035341969E-01
(PID.TID 0000.0001)  cg2d: iter=     7 ; resid.=  1.61547227348701E-01
(PID.TID 0000.0001)  cg2d: iter=     8 ; resid.=  1.19997588666646E-01
(PID.TID 0000.0001)  cg2d: iter=     9 ; resid.=  9.41932067580633E-02
(PID.TID 0000.0001)  cg2d: iter=    10 ; resid.=  8.22001691969039E-02
(PID.TID 0000.0001)  cg2d: iter=    11 ; resid.=  7.41001268349672E-02
(PID.TID 0000.0001)  cg2d: iter=    12 ; resid.=  6.06613896386573E-02
(PID.TID 0000.0001)  cg2d: iter=    13 ; resid.=  4.89516975598931E-02
(PID.TID 0000.0001)  cg2d: iter=    14 ; resid.=  3.93844737963207E-02
(PID.TID 0000.0001)  cg2d: iter=    15 ; resid.=  3.19683818930761E-02
(PID.TID 0000.0001)  cg2d: iter=    16 ; resid.=  2.91296941525906E-02
(PID.TID 0000.0001)  cg2d: iter=    17 ; resid.=  2.50510715149455E-02
(PID.TID 0000.0001)  cg2d: iter=    18 ; resid.=  2.31601963136621E-02
(PID.TID 0000.0001)  cg2d: iter=    19 ; resid.=  1.73649704733134E-02
(PID.TID 0000.0001)  cg2d: iter=    20 ; resid.=  1.40043082161832E-02
(PID.TID 0000.0001)  cg2d: iter=    21 ; resid.=  1.16837478698005E-02
(PID.TID 0000.0001)  cg2d: iter=    22 ; resid.=  1.02657787044869E-02
(PID.TID 0000.0001)  cg2d: iter=    23 ; resid.=  8.46430802781970E-03
(PID.TID 0000.0001)  cg2d: iter=    24 ; resid.=  7.61005649286757E-03
(PID.TID 0000.0001)  cg2d: iter=    25 ; resid.=  5.93101691817755E-03
(PID.TID 0000.0001)  cg2d: iter=    26 ; resid.=  4.81859673300914E-03
(PID.TID 0000.0001)  cg2d: iter=    27 ; resid.=  3.91481378135940E-03
(PID.TID 0000.0001)  cg2d: iter=    28 ; resid.=  3.10324752506406E-03
(PID.TID 0000.0001)  cg2d: iter=    29 ; resid.=  2.51516609536102E-03
(PID.TID 0000.0001)  cg2d: iter=    30 ; resid.=  2.11011211604840E-03
(PID.TID 0000.0001)  cg2d: iter=    31 ; resid.=  1.78115774847773E-03
(PID.TID 0000.0001)  cg2d: iter=    32 ; resid.=  1.41020137876755E-03
(PID.TID 0000.0001)  cg2d: iter=    33 ; resid.=  1.18499362304950E-03
(PID.TID 0000.0001)  cg2d: iter=    34 ; resid.=  1.02277541863178E-03
(PID.TID 0000.0001)  cg2d: iter=    35 ; resid.=  8.61185962224539E-04
(PID.TID 0000.0001)  cg2d: iter=    36 ; resid.=  7.67416696244906E-04
(PID.TID 0000.0001)  cg2d: iter=    37 ; resid.=  6.62546239336977E-04
(PID.TID 0000.0001)  cg2d: iter=    38 ; resid.=  6.02188423570154E-04
(PID.TID 0000.0001)  cg2d: iter=    39 ; resid.=  5.10148451679005E-04
(PID.TID 0000.0001)  cg2d: iter=    40 ; resid.=  4.46740036354222E-04
(PID.TID 0000.0001)  cg2d: iter=    41 ; resid.=  3.87473114025869E-04
(PID.TID 0000.0001)  cg2d: iter=    42 ; resid.=  3.26712087338695E-04
(PID.TID 0000.0001)  cg2d: iter=    43 ; resid.=  2.58528717564932E-04
(PID.TID 0000.0001)  cg2d: iter=    44 ; resid.=  1.94652518333852E-04
(PID.TID 0000.0001)  cg2d: iter=    45 ; resid.=  1.46356907005913E-04
(PID.TID 0000.0001)  cg2d: iter=    46 ; resid.=  1.18307914590438E-04
(PID.TID 0000.0001)  cg2d: iter=    47 ; resid.=  1.02677355064432E-04
(PID.TID 0000.0001)  cg2d: iter=    48 ; resid.=  8.41309376337763E-05
(PID.TID 0000.0001)  cg2d: iter=    49 ; resid.=  7.17960029954082E-05
(PID.TID 0000.0001)  cg2d: iter=    50 ; resid.=  6.23377894360575E-05
(PID.TID 0000.0001)  cg2d: iter=    51 ; resid.=  5.55456556271154E-05
(PID.TID 0000.0001)  cg2d: iter=    52 ; resid.=  4.63768659816067E-05
(PID.TID 0000.0001)  cg2d: iter=    53 ; resid.=  3.81597698781232E-05
(PID.TID 0000.0001)  cg2d: iter=    54 ; resid.=  3.08901225271274E-05
(PID.TID 0000.0001)  cg2d: iter=    55 ; resid.=  2.69693987024447E-05
(PID.TID 0000.0001)  cg2d: iter=    56 ; resid.=  2.33062247389830E-05
(PID.TID 0000.0001)  cg2d: iter=    57 ; resid.=  1.84514139109839E-05
(PID.TID 0000.0001)  cg2d: iter=    58 ; resid.=  1.41425923376435E-05
(PID.TID 0000.0001)  cg2d: iter=    59 ; resid.=  1.10802518910323E-05
(PID.TID 0000.0001)  cg2d: iter=    60 ; resid.=  8.13305382448431E-06
(PID.TID 0000.0001)  cg2d: iter=    61 ; resid.=  6.89012469075890E-06
(PID.TID 0000.0001)  cg2d: iter=    62 ; resid.=  6.09039347670713E-06
(PID.TID 0000.0001)  cg2d: iter=    63 ; resid.=  5.27482716324927E-06
(PID.TID 0000.0001)  cg2d: iter=    64 ; resid.=  4.22542058574852E-06
(PID.TID 0000.0001)  cg2d: iter=    65 ; resid.=  3.34332990176766E-06
(PID.TID 0000.0001)  cg2d: iter=    66 ; resid.=  2.86652374069747E-06
(PID.TID 0000.0001)  cg2d: iter=    67 ; resid.=  2.46892097621901E-06
(PID.TID 0000.0001)  cg2d: iter=    68 ; resid.=  2.00827722050358E-06
(PID.TID 0000.0001)  cg2d: iter=    69 ; resid.=  1.74098432973745E-06
(PID.TID 0000.0001)  cg2d: iter=    70 ; resid.=  1.45328381027843E-06
(PID.TID 0000.0001)  cg2d: iter=    71 ; resid.=  1.20249699451869E-06
(PID.TID 0000.0001)  cg2d: iter=    72 ; resid.=  9.99367876122708E-07
(PID.TID 0000.0001)  cg2d: iter=    73 ; resid.=  8.50400773231263E-07
(PID.TID 0000.0001)  cg2d: iter=    74 ; resid.=  6.81807575882216E-07
(PID.TID 0000.0001)  cg2d: iter=    75 ; resid.=  5.45573980607495E-07
(PID.TID 0000.0001)  cg2d: iter=    76 ; resid.=  4.78850194774030E-07
(PID.TID 0000.0001)  cg2d: iter=    77 ; resid.=  3.94807809051621E-07
(PID.TID 0000.0001)  cg2d: iter=    78 ; resid.=  3.10216311386885E-07
(PID.TID 0000.0001)  cg2d: iter=    79 ; resid.=  2.42377146283362E-07
(PID.TID 0000.0001)  cg2d: iter=    80 ; resid.=  1.83034593727487E-07
(PID.TID 0000.0001)  cg2d: iter=    81 ; resid.=  1.38338279154199E-07
(PID.TID 0000.0001)  cg2d: iter=    82 ; resid.=  1.04845389489255E-07
(PID.TID 0000.0001)  cg2d: iter=    83 ; resid.=  7.25604888539631E-08
(PID.TID 0000.0001)  cg2d: iter=    84 ; resid.=  5.00013719933772E-08
(PID.TID 0000.0001)  cg2d: iter=    85 ; resid.=  3.56403951211092E-08
(PID.TID 0000.0001)  cg2d: iter=    86 ; resid.=  2.64775746791757E-08
(PID.TID 0000.0001)  cg2d: iter=    87 ; resid.=  2.15674080964808E-08
(PID.TID 0000.0001)  cg2d: iter=    88 ; resid.=  1.64046263896142E-08
(PID.TID 0000.0001)  cg2d: iter=    89 ; resid.=  1.35549940308647E-08
(PID.TID 0000.0001)  cg2d: iter=    90 ; resid.=  1.06939372177186E-08
(PID.TID 0000.0001)  cg2d: iter=    91 ; resid.=  7.50317615159706E-09
(PID.TID 0000.0001)  cg2d: iter=    92 ; resid.=  5.40016575890851E-09
(PID.TID 0000.0001)  cg2d: iter=    93 ; resid.=  4.51901309399288E-09
(PID.TID 0000.0001)  cg2d: iter=    94 ; resid.=  3.75797231107585E-09
(PID.TID 0000.0001)  cg2d: iter=    95 ; resid.=  3.30996514002946E-09
(PID.TID 0000.0001)  cg2d: iter=    96 ; resid.=  2.53236218494342E-09
(PID.TID 0000.0001)  cg2d: iter=    97 ; resid.=  1.95607394088912E-09
(PID.TID 0000.0001)  cg2d: iter=    98 ; resid.=  1.61784686663597E-09
(PID.TID 0000.0001)  cg2d: iter=    99 ; resid.=  1.38801849924044E-09
(PID.TID 0000.0001)  cg2d: iter=   100 ; resid.=  1.31683913525801E-09
(PID.TID 0000.0001)  cg2d: iter=   101 ; resid.=  1.08712377120408E-09
(PID.TID 0000.0001)  cg2d: iter=   102 ; resid.=  8.85124564886265E-10
(PID.TID 0000.0001)  cg2d: iter=   103 ; resid.=  6.69287130607600E-10
(PID.TID 0000.0001)  cg2d: iter=   104 ; resid.=  5.11157583586797E-10
(PID.TID 0000.0001)  cg2d: iter=   105 ; resid.=  4.08190390471357E-10
(PID.TID 0000.0001)  cg2d: iter=   106 ; resid.=  3.36151796810728E-10
(PID.TID 0000.0001)  cg2d: iter=   107 ; resid.=  2.64729474039895E-10
(PID.TID 0000.0001)  cg2d: iter=   108 ; resid.=  2.03279289851652E-10
(PID.TID 0000.0001)  cg2d: iter=   109 ; resid.=  1.48052797878169E-10
(PID.TID 0000.0001)  cg2d: iter=   110 ; resid.=  1.09108354882131E-10
(PID.TID 0000.0001)  cg2d: iter=   111 ; resid.=  8.43970955975132E-11
(PID.TID 0000.0001)  cg2d: iter=   112 ; resid.=  5.72206647898171E-11
(PID.TID 0000.0001)  cg2d: iter=   113 ; resid.=  4.05423414287546E-11
(PID.TID 0000.0001)  cg2d: iter=   114 ; resid.=  2.99805506037109E-11
(PID.TID 0000.0001)  cg2d: iter=   115 ; resid.=  2.16412441926918E-11
(PID.TID 0000.0001)  cg2d: iter=   116 ; resid.=  1.50063328981865E-11
(PID.TID 0000.0001)  cg2d: iter=   117 ; resid.=  1.08576976562320E-11
(PID.TID 0000.0001)  cg2d: iter=   118 ; resid.=  8.78177539803689E-12
(PID.TID 0000.0001)  cg2d: iter=   119 ; resid.=  5.87186603734301E-12
(PID.TID 0000.0001)  cg2d: iter=   120 ; resid.=  4.25201765372827E-12
(PID.TID 0000.0001)  cg2d: iter=   121 ; resid.=  3.23747502429336E-12
(PID.TID 0000.0001)  cg2d: iter=   122 ; resid.=  2.83369821352083E-12
(PID.TID 0000.0001)  cg2d: iter=   123 ; resid.=  2.28299372395054E-12
(PID.TID 0000.0001)  cg2d: iter=   124 ; resid.=  1.81805576985640E-12
(PID.TID 0000.0001)  cg2d: iter=   125 ; resid.=  1.43215687702593E-12
(PID.TID 0000.0001)  cg2d: iter=   126 ; resid.=  1.00555521010700E-12
(PID.TID 0000.0001)  cg2d: iter=   127 ; resid.=  7.62865286679281E-13
(PID.TID 0000.0001)  cg2d: iter=   128 ; resid.=  5.66524092697787E-13
(PID.TID 0000.0001)  cg2d: iter=   129 ; resid.=  4.44874177834867E-13
(PID.TID 0000.0001)  cg2d: iter=   130 ; resid.=  3.31206687839936E-13
(PID.TID 0000.0001)  cg2d: iter=   131 ; resid.=  2.22924141761094E-13
(PID.TID 0000.0001)  cg2d: iter=   132 ; resid.=  1.50914107885647E-13
(PID.TID 0000.0001)  cg2d: iter=   133 ; resid.=  1.11376990191579E-13
(PID.TID 0000.0001)  cg2d: iter=   134 ; resid.=  8.73791327031589E-14
DEBUG_STATS_RL:    cg2d_x (SOLVE_FOR_PRESSURE)  min= -1.87791847321367E+01
DEBUG_STATS_RL:    cg2d_x (SOLVE_FOR_PRESSURE)  max=  9.42841091167429E+00
DEBUG_STATS_RL:    cg2d_x (SOLVE_FOR_PRESSURE) mean= -1.61132072853194E+00
DEBUG_STATS_RL:    cg2d_x (SOLVE_FOR_PRESSURE) S.D.=  6.51396318653424E+00
(PID.TID 0000.0001)      cg2d_init_res =   4.48571453848467E-01
(PID.TID 0000.0001)      cg2d_iters(min,last) =      -1     134
(PID.TID 0000.0001)      cg2d_last_res =   8.73791327031589E-14
(PID.TID 0000.0001) // =======================================================
(PID.TID 0000.0001) // Begin MONITOR dynamic field statistics
(PID.TID 0000.0001) // =======================================================
(PID.TID 0000.0001) %MON time_tsnumber                =                    56
(PID.TID 0000.0001) %MON time_secondsf                =   4.8384000000000E+06
(PID.TID 0000.0001) %MON dynstat_eta_max              =   9.6110202973227E-01
(PID.TID 0000.0001) %MON dynstat_eta_min              =  -1.9142899828888E+00
(PID.TID 0000.0001) %MON dynstat_eta_mean             =  -4.2001412664636E-03
(PID.TID 0000.0001) %MON dynstat_eta_sd               =   5.7016617884246E-01
(PID.TID 0000.0001) %MON dynstat_eta_del2             =   2.4455732616966E-03
(PID.TID 0000.0001) %MON dynstat_uvel_max             =   1.4052783015107E-01
(PID.TID 0000.0001) %MON dynstat_uvel_min             =  -1.5853040964556E-01
(PID.TID 0000.0001) %MON dynstat_uvel_mean            =   8.8487145001631E-04
(PID.TID 0000.0001) %MON dynstat_uvel_sd              =   2.0672403315799E-02
(PID.TID 0000.0001) %MON dynstat_uvel_del2            =   1.2580559033222E-04
(PID.TID 0000.0001) %MON dynstat_vvel_max             =   1.4278245397207E-01
(PID.TID 0000.0001) %MON dynstat_vvel_min             =  -1.0063894245478E-01
(PID.TID 0000.0001) %MON dynstat_vvel_mean            =   2.3911975556581E-04
(PID.TID 0000.0001) %MON dynstat_vvel_sd              =   1.1969075117891E-02
(PID.TID 0000.0001) %MON dynstat_vvel_del2            =   9.3448351334474E-05
(PID.TID 0000.0001) %MON dynstat_wvel_max             =   1.8218717761168E-04
(PID.TID 0000.0001) %MON dynstat_wvel_min             =  -1.5727420788057E-04
(PID.TID 0000.0001) %MON dynstat_wvel_mean            =  -8.6426325424177E-23
(PID.TID 0000.0001) %MON dynstat_wvel_sd              =   1.8077534247278E-05
(PID.TID 0000.0001) %MON dynstat_wvel_del2            =   1.7364528519671E-07
(PID.TID 0000.0001) %MON dynstat_theta_max            =   3.0604316588845E+01
(PID.TID 0000.0001) %MON dynstat_theta_min            =  -1.9731977920704E+00
(PID.TID 0000.0001) %MON dynstat_theta_mean           =   3.6528797243726E+00
(PID.TID 0000.0001) %MON dynstat_theta_sd             =   4.4230091209105E+00
(PID.TID 0000.0001) %MON dynstat_theta_del2           =   4.9040914712580E-03
(PID.TID 0000.0001) %MON dynstat_salt_max             =   3.7494872114389E+01
(PID.TID 0000.0001) %MON dynstat_salt_min             =   2.9887883980183E+01
(PID.TID 0000.0001) %MON dynstat_salt_mean            =   3.4747954308771E+01
(PID.TID 0000.0001) %MON dynstat_salt_sd              =   2.9635712313046E-01
(PID.TID 0000.0001) %MON dynstat_salt_del2            =   9.9046772929054E-04
(PID.TID 0000.0001) %MON dynstat_sst_max              =   3.0604316588845E+01
(PID.TID 0000.0001) %MON dynstat_sst_min              =  -1.9731977920704E+00
(PID.TID 0000.0001) %MON dynstat_sst_mean             =   1.8995242758034E+01
(PID.TID 0000.0001) %MON dynstat_sst_sd               =   9.0475665611153E+00
(PID.TID 0000.0001) %MON dynstat_sst_del2             =   2.7733485241322E-02
(PID.TID 0000.0001) %MON dynstat_sss_max              =   3.7466777526631E+01
(PID.TID 0000.0001) %MON dynstat_sss_min              =   2.9887883980183E+01
(PID.TID 0000.0001) %MON dynstat_sss_mean             =   3.4872203433935E+01
(PID.TID 0000.0001) %MON dynstat_sss_sd               =   9.7942286222689E-01
(PID.TID 0000.0001) %MON dynstat_sss_del2             =   7.9482167434374E-03
(PID.TID 0000.0001) %MON forcing_qnet_max             =   3.3047072347005E+02
(PID.TID 0000.0001) %MON forcing_qnet_min             =  -1.6984117635091E+02
(PID.TID 0000.0001) %MON forcing_qnet_mean            =  -1.1731855982677E+01
(PID.TID 0000.0001) %MON forcing_qnet_sd              =   6.5966939273954E+01
(PID.TID 0000.0001) %MON forcing_qnet_del2            =   8.9973155248247E-01
(PID.TID 0000.0001) %MON forcing_qsw_max              =   0.0000000000000E+00
(PID.TID 0000.0001) %MON forcing_qsw_min              =   0.0000000000000E+00
(PID.TID 0000.0001) %MON forcing_qsw_mean             =   0.0000000000000E+00
(PID.TID 0000.0001) %MON forcing_qsw_sd               =   0.0000000000000E+00
(PID.TID 0000.0001) %MON forcing_qsw_del2             =   0.0000000000000E+00
(PID.TID 0000.0001) %MON forcing_empmr_max            =   6.9223948647353E-05
(PID.TID 0000.0001) %MON forcing_empmr_min            =  -7.5280825721317E-05
(PID.TID 0000.0001) %MON forcing_empmr_mean           =   8.1250967116582E-07
(PID.TID 0000.0001) %MON forcing_empmr_sd             =   2.7185457124815E-05
(PID.TID 0000.0001) %MON forcing_empmr_del2           =   3.5320365580887E-07
(PID.TID 0000.0001) %MON forcing_fu_max               =   3.1872308254242E-01
(PID.TID 0000.0001) %MON forcing_fu_min               =  -2.6957864562670E-01
(PID.TID 0000.0001) %MON forcing_fu_mean              =   1.8572737511220E-02
(PID.TID 0000.0001) %MON forcing_fu_sd                =   9.4029223939401E-02
(PID.TID 0000.0001) %MON forcing_fu_del2              =   7.0568353900108E-04
(PID.TID 0000.0001) %MON forcing_fv_max               =   1.5834051370621E-01
(PID.TID 0000.0001) %MON forcing_fv_min               =  -1.8481889367104E-01
(PID.TID 0000.0001) %MON forcing_fv_mean              =  -7.3210084406550E-03
(PID.TID 0000.0001) %MON forcing_fv_sd                =   4.2536292965649E-02
(PID.TID 0000.0001) %MON forcing_fv_del2              =   4.8118856330786E-04
(PID.TID 0000.0001) %MON trAdv_CFL_u_max              =   4.2174881308335E-02
(PID.TID 0000.0001) %MON trAdv_CFL_v_max              =   2.9635571912940E-02
(PID.TID 0000.0001) %MON trAdv_CFL_w_max              =   4.2928881636452E-02
(PID.TID 0000.0001) %MON advcfl_uvel_max              =   4.2740567986326E-02
(PID.TID 0000.0001) %MON advcfl_vvel_max              =   2.7740340851524E-02
(PID.TID 0000.0001) %MON advcfl_wvel_max              =   4.7029397569209E-02
(PID.TID 0000.0001) %MON advcfl_W_hf_max              =   5.7107125619754E-02
(PID.TID 0000.0001) %MON pe_b_mean                    =   4.1601373675783E-04
(PID.TID 0000.0001) %MON ke_max                       =   1.8493083833144E-02
(PID.TID 0000.0001) %MON ke_mean                      =   2.5884731548219E-04
(PID.TID 0000.0001) %MON ke_vol                       =   1.3226782436723E+18
(PID.TID 0000.0001) %MON vort_r_min                   =  -4.9434314497061E-07
(PID.TID 0000.0001) %MON vort_r_max                   =   6.2941817758830E-07
(PID.TID 0000.0001) %MON vort_a_mean                  =  -2.5274807904977E-05
(PID.TID 0000.0001) %MON vort_a_sd                    =   7.3604305114519E-05
(PID.TID 0000.0001) %MON vort_p_mean                  =  -3.1845656438943E-05
(PID.TID 0000.0001) %MON vort_p_sd                    =   1.3162342829681E-04
(PID.TID 0000.0001) %MON surfExpan_theta_mean         =  -4.9672696377687E-07
(PID.TID 0000.0001) %MON surfExpan_salt_mean          =   3.1319869900007E-07
(PID.TID 0000.0001) // =======================================================
(PID.TID 0000.0001) // End MONITOR dynamic field statistics
(PID.TID 0000.0001) // =======================================================
 EXTERNAL_FIELDS_LOAD,        56 : iP,iLd,i0,i1=    2    3    2    3 ; Wght=  0.6333333333  0.3666666667
 EXTERNAL_FIELDS_LOAD: (fu0,1),fu,fv= -1.4435E-02 -2.7199E-02 -1.9115E-02 -1.1381E-02
 EXTERNAL_FIELDS_LOAD: SST,SSS,Q,E-P= -4.0427E-01  3.4479E+01  2.3128E+02  8.6352E-06
DEBUG_STATS_RL:          Uvel (THERMODYNAMICS)  min= -1.58530409645560E-01
DEBUG_STATS_RL:          Uvel (THERMODYNAMICS)  max=  1.40527830151071E-01
DEBUG_STATS_RL:          Uvel (THERMODYNAMICS) mean=  4.70100457111481E-03
DEBUG_STATS_RL:          Uvel (THERMODYNAMICS) S.D.=  2.62623320993771E-02
DEBUG_STATS_RL:          Vvel (THERMODYNAMICS)  min= -1.00638942454776E-01
DEBUG_STATS_RL:          Vvel (THERMODYNAMICS)  max=  1.42782453972071E-01
DEBUG_STATS_RL:          Vvel (THERMODYNAMICS) mean=  1.34604985743698E-03
DEBUG_STATS_RL:          Vvel (THERMODYNAMICS) S.D.=  1.70389653220713E-02
DEBUG_STATS_RL:          Wvel (THERMODYNAMICS)  min= -1.57274207880570E-04
DEBUG_STATS_RL:          Wvel (THERMODYNAMICS)  max=  1.82187177611679E-04
DEBUG_STATS_RL:          Wvel (THERMODYNAMICS) mean= -4.11040767513223E-08
DEBUG_STATS_RL:          Wvel (THERMODYNAMICS) S.D.=  1.56019274823611E-05
DEBUG_STATS_RL:         Theta (THERMODYNAMICS)  min= -1.97135124969990E+00
DEBUG_STATS_RL:         Theta (THERMODYNAMICS)  max=  3.06274769963675E+01
DEBUG_STATS_RL:         Theta (THERMODYNAMICS) mean=  3.24879163826433E+00
DEBUG_STATS_RL:         Theta (THERMODYNAMICS) S.D.=  5.87572238386487E+00
DEBUG_STATS_RL:          Salt (THERMODYNAMICS)  min=  3.00000000000000E-02
DEBUG_STATS_RL:          Salt (THERMODYNAMICS)  max=  3.74951625606436E+01
DEBUG_STATS_RL:          Salt (THERMODYNAMICS) mean=  1.88748573446740E+01
DEBUG_STATS_RL:          Salt (THERMODYNAMICS) S.D.=  1.73003820569402E+01
DEBUG_STATS_RL:         GtNm1 (THERMODYNAMICS)  min= -3.88498521048412E-06
DEBUG_STATS_RL:         GtNm1 (THERMODYNAMICS)  max=  2.47113495377589E-06
DEBUG_STATS_RL:         GtNm1 (THERMODYNAMICS) mean=  3.90292373103526E-09
DEBUG_STATS_RL:         GtNm1 (THERMODYNAMICS) S.D.=  1.95309313928879E-07
DEBUG_STATS_RL:         GsNm1 (THERMODYNAMICS)  min= -5.46250256904331E-07
DEBUG_STATS_RL:         GsNm1 (THERMODYNAMICS)  max=  4.02300658544015E-07
DEBUG_STATS_RL:         GsNm1 (THERMODYNAMICS) mean= -4.43839854181787E-10
DEBUG_STATS_RL:         GsNm1 (THERMODYNAMICS) S.D.=  1.99851661560379E-08
DEBUG_STATS_RL:                EtaN (DYNAMICS)  min= -1.91428998288876E+00
DEBUG_STATS_RL:                EtaN (DYNAMICS)  max=  9.61102029732273E-01
DEBUG_STATS_RL:                EtaN (DYNAMICS) mean= -1.64252877526191E-01
DEBUG_STATS_RL:                EtaN (DYNAMICS) S.D.=  6.64012557241006E-01
DEBUG_STATS_RL:                Uvel (DYNAMICS)  min= -1.58530409645560E-01
DEBUG_STATS_RL:                Uvel (DYNAMICS)  max=  1.40527830151071E-01
DEBUG_STATS_RL:                Uvel (DYNAMICS) mean=  4.70100457111481E-03
DEBUG_STATS_RL:                Uvel (DYNAMICS) S.D.=  2.62623320993771E-02
DEBUG_STATS_RL:                Vvel (DYNAMICS)  min= -1.00638942454776E-01
DEBUG_STATS_RL:                Vvel (DYNAMICS)  max=  1.42782453972071E-01
DEBUG_STATS_RL:                Vvel (DYNAMICS) mean=  1.34604985743698E-03
DEBUG_STATS_RL:                Vvel (DYNAMICS) S.D.=  1.70389653220713E-02
DEBUG_STATS_RL:                Wvel (DYNAMICS)  min= -1.57274207880570E-04
DEBUG_STATS_RL:                Wvel (DYNAMICS)  max=  1.82187177611679E-04
DEBUG_STATS_RL:                Wvel (DYNAMICS) mean= -4.11040767513223E-08
DEBUG_STATS_RL:                Wvel (DYNAMICS) S.D.=  1.56019274823611E-05
DEBUG_STATS_RL:               Theta (DYNAMICS)  min= -1.97135124969990E+00
DEBUG_STATS_RL:               Theta (DYNAMICS)  max=  3.06274769963675E+01
DEBUG_STATS_RL:               Theta (DYNAMICS) mean=  3.24879163826433E+00
DEBUG_STATS_RL:               Theta (DYNAMICS) S.D.=  5.87572238386487E+00
DEBUG_STATS_RL:                Salt (DYNAMICS)  min=  3.00000000000000E-02
DEBUG_STATS_RL:                Salt (DYNAMICS)  max=  3.74951625606436E+01
DEBUG_STATS_RL:                Salt (DYNAMICS) mean=  1.88748573446740E+01
DEBUG_STATS_RL:                Salt (DYNAMICS) S.D.=  1.73003820569402E+01
DEBUG_STATS_RL:                  Gu (DYNAMICS)  min= -1.54643130863159E-01
DEBUG_STATS_RL:                  Gu (DYNAMICS)  max=  1.36065230490005E-01
DEBUG_STATS_RL:                  Gu (DYNAMICS) mean=  4.95724496531521E-03
DEBUG_STATS_RL:                  Gu (DYNAMICS) S.D.=  2.64767732772738E-02
DEBUG_STATS_RL:                  Gv (DYNAMICS)  min= -1.02739645289757E-01
DEBUG_STATS_RL:                  Gv (DYNAMICS)  max=  1.45038486240906E-01
DEBUG_STATS_RL:                  Gv (DYNAMICS) mean=  3.53129105733382E-03
DEBUG_STATS_RL:                  Gv (DYNAMICS) S.D.=  1.83088963785374E-02
DEBUG_STATS_RL:               GuNm1 (DYNAMICS)  min= -9.82807940511929E-06
DEBUG_STATS_RL:               GuNm1 (DYNAMICS)  max=  9.36847020724662E-06
DEBUG_STATS_RL:               GuNm1 (DYNAMICS) mean=  1.17705418720822E-08
DEBUG_STATS_RL:               GuNm1 (DYNAMICS) S.D.=  1.21304630523109E-06
DEBUG_STATS_RL:               GvNm1 (DYNAMICS)  min= -9.47369833098651E-06
DEBUG_STATS_RL:               GvNm1 (DYNAMICS)  max=  1.61823495627354E-05
DEBUG_STATS_RL:               GvNm1 (DYNAMICS) mean=  7.45679886146626E-07
DEBUG_STATS_RL:               GvNm1 (DYNAMICS) S.D.=  2.64907726975045E-06
DEBUG_STATS_RL:               GtNm1 (DYNAMICS)  min= -3.88498521048412E-06
DEBUG_STATS_RL:               GtNm1 (DYNAMICS)  max=  2.47113495377589E-06
DEBUG_STATS_RL:               GtNm1 (DYNAMICS) mean=  3.90292373103526E-09
DEBUG_STATS_RL:               GtNm1 (DYNAMICS) S.D.=  1.95309313928879E-07
DEBUG_STATS_RL:               GsNm1 (DYNAMICS)  min= -5.46250256904331E-07
DEBUG_STATS_RL:               GsNm1 (DYNAMICS)  max=  4.02300658544015E-07
DEBUG_STATS_RL:               GsNm1 (DYNAMICS) mean= -4.43839854181787E-10
DEBUG_STATS_RL:               GsNm1 (DYNAMICS) S.D.=  1.99851661560379E-08
DEBUG_STATS_RL:    cg2d_b (SOLVE_FOR_PRESSURE)  min= -2.23337274381492E+04
DEBUG_STATS_RL:    cg2d_b (SOLVE_FOR_PRESSURE)  max=  2.51598960101687E+04
DEBUG_STATS_RL:    cg2d_b (SOLVE_FOR_PRESSURE) mean=  4.08948971353318E+00
DEBUG_STATS_RL:    cg2d_b (SOLVE_FOR_PRESSURE) S.D.=  3.99230356670992E+03
 cg2d: Sum(rhs),rhsMax =   3.76280119878277E-01  1.65256933370036E+00
(PID.TID 0000.0001)  cg2d: iter=     1 ; resid.=  2.86067228703036E-01
(PID.TID 0000.0001)  cg2d: iter=     2 ; resid.=  2.50010242300544E-01
(PID.TID 0000.0001)  cg2d: iter=     3 ; resid.=  2.29508356469988E-01
(PID.TID 0000.0001)  cg2d: iter=     4 ; resid.=  2.13123758596663E-01
(PID.TID 0000.0001)  cg2d: iter=     5 ; resid.=  1.91005589210735E-01
(PID.TID 0000.0001)  cg2d: iter=     6 ; resid.=  1.63484438557152E-01
(PID.TID 0000.0001)  cg2d: iter=     7 ; resid.=  1.37815053177851E-01
(PID.TID 0000.0001)  cg2d: iter=     8 ; resid.=  1.07352630912626E-01
(PID.TID 0000.0001)  cg2d: iter=     9 ; resid.=  8.53558054571063E-02
(PID.TID 0000.0001)  cg2d: iter=    10 ; resid.=  7.56300473787355E-02
(PID.TID 0000.0001)  cg2d: iter=    11 ; resid.=  6.79995039011255E-02
(PID.TID 0000.0001)  cg2d: iter=    12 ; resid.=  5.43148306311988E-02
(PID.TID 0000.0001)  cg2d: iter=    13 ; resid.=  4.28188637298511E-02
(PID.TID 0000.0001)  cg2d: iter=    14 ; resid.=  3.44808065947245E-02
(PID.TID 0000.0001)  cg2d: iter=    15 ; resid.=  2.84866532526721E-02
(PID.TID 0000.0001)  cg2d: iter=    16 ; resid.=  2.58131572658079E-02
(PID.TID 0000.0001)  cg2d: iter=    17 ; resid.=  2.25324440788791E-02
(PID.TID 0000.0001)  cg2d: iter=    18 ; resid.=  2.06926465480348E-02
(PID.TID 0000.0001)  cg2d: iter=    19 ; resid.=  1.55982273167179E-02
(PID.TID 0000.0001)  cg2d: iter=    20 ; resid.=  1.27255646655551E-02
(PID.TID 0000.0001)  cg2d: iter=    21 ; resid.=  1.06331759363208E-02
(PID.TID 0000.0001)  cg2d: iter=    22 ; resid.=  9.36803697326983E-03
(PID.TID 0000.0001)  cg2d: iter=    23 ; resid.=  7.70648660966781E-03
(PID.TID 0000.0001)  cg2d: iter=    24 ; resid.=  6.84427194610986E-03
(PID.TID 0000.0001)  cg2d: iter=    25 ; resid.=  5.26867244225616E-03
(PID.TID 0000.0001)  cg2d: iter=    26 ; resid.=  4.36015077820991E-03
(PID.TID 0000.0001)  cg2d: iter=    27 ; resid.=  3.60643457280875E-03
(PID.TID 0000.0001)  cg2d: iter=    28 ; resid.=  2.96122310378588E-03
(PID.TID 0000.0001)  cg2d: iter=    29 ; resid.=  2.43859634335706E-03
(PID.TID 0000.0001)  cg2d: iter=    30 ; resid.=  2.03023365193235E-03
(PID.TID 0000.0001)  cg2d: iter=    31 ; resid.=  1.69106651783854E-03
(PID.TID 0000.0001)  cg2d: iter=    32 ; resid.=  1.32200636777933E-03
(PID.TID 0000.0001)  cg2d: iter=    33 ; resid.=  1.13204169923330E-03
(PID.TID 0000.0001)  cg2d: iter=    34 ; resid.=  9.79084374808703E-04
(PID.TID 0000.0001)  cg2d: iter=    35 ; resid.=  8.35219858532328E-04
(PID.TID 0000.0001)  cg2d: iter=    36 ; resid.=  7.37280089336155E-04
(PID.TID 0000.0001)  cg2d: iter=    37 ; resid.=  6.30228228619577E-04
(PID.TID 0000.0001)  cg2d: iter=    38 ; resid.=  5.61170050989653E-04
(PID.TID 0000.0001)  cg2d: iter=    39 ; resid.=  4.81665404529694E-04
(PID.TID 0000.0001)  cg2d: iter=    40 ; resid.=  4.29084224423630E-04
(PID.TID 0000.0001)  cg2d: iter=    41 ; resid.=  3.74206387787264E-04
(PID.TID 0000.0001)  cg2d: iter=    42 ; resid.=  3.17268030717742E-04
(PID.TID 0000.0001)  cg2d: iter=    43 ; resid.=  2.50114873295530E-04
(PID.TID 0000.0001)  cg2d: iter=    44 ; resid.=  1.80236393482931E-04
(PID.TID 0000.0001)  cg2d: iter=    45 ; resid.=  1.32296291710084E-04
(PID.TID 0000.0001)  cg2d: iter=    46 ; resid.=  1.06157945557063E-04
(PID.TID 0000.0001)  cg2d: iter=    47 ; resid.=  8.98785780920433E-05
(PID.TID 0000.0001)  cg2d: iter=    48 ; resid.=  7.41062062513780E-05
(PID.TID 0000.0001)  cg2d: iter=    49 ; resid.=  6.10426022198897E-05
(PID.TID 0000.0001)  cg2d: iter=    50 ; resid.=  5.16723377969080E-05
(PID.TID 0000.0001)  cg2d: iter=    51 ; resid.=  4.50129898989583E-05
(PID.TID 0000.0001)  cg2d: iter=    52 ; resid.=  3.75326744205227E-05
(PID.TID 0000.0001)  cg2d: iter=    53 ; resid.=  3.21565947937236E-05
(PID.TID 0000.0001)  cg2d: iter=    54 ; resid.=  2.63860729885302E-05
(PID.TID 0000.0001)  cg2d: iter=    55 ; resid.=  2.36153696479708E-05
(PID.TID 0000.0001)  cg2d: iter=    56 ; resid.=  2.03154496086847E-05
(PID.TID 0000.0001)  cg2d: iter=    57 ; resid.=  1.61695504831056E-05
(PID.TID 0000.0001)  cg2d: iter=    58 ; resid.=  1.21537351245925E-05
(PID.TID 0000.0001)  cg2d: iter=    59 ; resid.=  9.68485158744295E-06
(PID.TID 0000.0001)  cg2d: iter=    60 ; resid.=  7.26895432698310E-06
(PID.TID 0000.0001)  cg2d: iter=    61 ; resid.=  6.21428765567623E-06
(PID.TID 0000.0001)  cg2d: iter=    62 ; resid.=  5.46709743888447E-06
(PID.TID 0000.0001)  cg2d: iter=    63 ; resid.=  4.70675766977087E-06
(PID.TID 0000.0001)  cg2d: iter=    64 ; resid.=  3.69130105538304E-06
(PID.TID 0000.0001)  cg2d: iter=    65 ; resid.=  2.93233742568175E-06
(PID.TID 0000.0001)  cg2d: iter=    66 ; resid.=  2.51797111001988E-06
(PID.TID 0000.0001)  cg2d: iter=    67 ; resid.=  2.17167737560125E-06
(PID.TID 0000.0001)  cg2d: iter=    68 ; resid.=  1.74586380034174E-06
(PID.TID 0000.0001)  cg2d: iter=    69 ; resid.=  1.46644357543209E-06
(PID.TID 0000.0001)  cg2d: iter=    70 ; resid.=  1.21586555845091E-06
(PID.TID 0000.0001)  cg2d: iter=    71 ; resid.=  1.02896888039184E-06
(PID.TID 0000.0001)  cg2d: iter=    72 ; resid.=  8.68734565778397E-07
(PID.TID 0000.0001)  cg2d: iter=    73 ; resid.=  7.41784830124847E-07
(PID.TID 0000.0001)  cg2d: iter=    74 ; resid.=  5.86176986256668E-07
(PID.TID 0000.0001)  cg2d: iter=    75 ; resid.=  4.70603279688272E-07
(PID.TID 0000.0001)  cg2d: iter=    76 ; resid.=  4.09911990217274E-07
(PID.TID 0000.0001)  cg2d: iter=    77 ; resid.=  3.42515266739038E-07
(PID.TID 0000.0001)  cg2d: iter=    78 ; resid.=  2.84322873396088E-07
(PID.TID 0000.0001)  cg2d: iter=    79 ; resid.=  2.22448047470293E-07
(PID.TID 0000.0001)  cg2d: iter=    80 ; resid.=  1.66887950130006E-07
(PID.TID 0000.0001)  cg2d: iter=    81 ; resid.=  1.24050863744931E-07
(PID.TID 0000.0001)  cg2d: iter=    82 ; resid.=  9.41111402988361E-08
(PID.TID 0000.0001)  cg2d: iter=    83 ; resid.=  6.35664849115629E-08
(PID.TID 0000.0001)  cg2d: iter=    84 ; resid.=  4.49656932642610E-08
(PID.TID 0000.0001)  cg2d: iter=    85 ; resid.=  3.15993294086566E-08
(PID.TID 0000.0001)  cg2d: iter=    86 ; resid.=  2.45589200816995E-08
(PID.TID 0000.0001)  cg2d: iter=    87 ; resid.=  2.02118003685884E-08
(PID.TID 0000.0001)  cg2d: iter=    88 ; resid.=  1.54477614603745E-08
(PID.TID 0000.0001)  cg2d: iter=    89 ; resid.=  1.26625317713737E-08
(PID.TID 0000.0001)  cg2d: iter=    90 ; resid.=  9.92029316634188E-09
(PID.TID 0000.0001)  cg2d: iter=    91 ; resid.=  6.97754205988936E-09
(PID.TID 0000.0001)  cg2d: iter=    92 ; resid.=  5.01039834769836E-09
(PID.TID 0000.0001)  cg2d: iter=    93 ; resid.=  4.14615402324155E-09
(PID.TID 0000.0001)  cg2d: iter=    94 ; resid.=  3.44071004481416E-09
(PID.TID 0000.0001)  cg2d: iter=    95 ; resid.=  3.05047033186990E-09
(PID.TID 0000.0001)  cg2d: iter=    96 ; resid.=  2.31137423061347E-09
(PID.TID 0000.0001)  cg2d: iter=    97 ; resid.=  1.75033246467560E-09
(PID.TID 0000.0001)  cg2d: iter=    98 ; resid.=  1.41540933078814E-09
(PID.TID 0000.0001)  cg2d: iter=    99 ; resid.=  1.21514392520123E-09
(PID.TID 0000.0001)  cg2d: iter=   100 ; resid.=  1.14901351109936E-09
(PID.TID 0000.0001)  cg2d: iter=   101 ; resid.=  9.59558849723401E-10
(PID.TID 0000.0001)  cg2d: iter=   102 ; resid.=  7.87681248273506E-10
(PID.TID 0000.0001)  cg2d: iter=   103 ; resid.=  6.01587168169983E-10
(PID.TID 0000.0001)  cg2d: iter=   104 ; resid.=  4.57786449091846E-10
(PID.TID 0000.0001)  cg2d: iter=   105 ; resid.=  3.67063878778812E-10
(PID.TID 0000.0001)  cg2d: iter=   106 ; resid.=  2.97009378210912E-10
(PID.TID 0000.0001)  cg2d: iter=   107 ; resid.=  2.38213997976545E-10
(PID.TID 0000.0001)  cg2d: iter=   108 ; resid.=  1.91383672663422E-10
(PID.TID 0000.0001)  cg2d: iter=   109 ; resid.=  1.42907153567255E-10
(PID.TID 0000.0001)  cg2d: iter=   110 ; resid.=  1.11709675022512E-10
(PID.TID 0000.0001)  cg2d: iter=   111 ; resid.=  8.97458583043729E-11
(PID.TID 0000.0001)  cg2d: iter=   112 ; resid.=  6.16776225454655E-11
(PID.TID 0000.0001)  cg2d: iter=   113 ; resid.=  4.58803728458076E-11
(PID.TID 0000.0001)  cg2d: iter=   114 ; resid.=  3.55973779583706E-11
(PID.TID 0000.0001)  cg2d: iter=   115 ; resid.=  2.71171738905221E-11
(PID.TID 0000.0001)  cg2d: iter=   116 ; resid.=  2.00135945475537E-11
(PID.TID 0000.0001)  cg2d: iter=   117 ; resid.=  1.61730491725061E-11
(PID.TID 0000.0001)  cg2d: iter=   118 ; resid.=  1.37298431437384E-11
(PID.TID 0000.0001)  cg2d: iter=   119 ; resid.=  1.00293615888510E-11
(PID.TID 0000.0001)  cg2d: iter=   120 ; resid.=  8.14171917385154E-12
(PID.TID 0000.0001)  cg2d: iter=   121 ; resid.=  6.60589977988527E-12
(PID.TID 0000.0001)  cg2d: iter=   122 ; resid.=  5.69608539083689E-12
(PID.TID 0000.0001)  cg2d: iter=   123 ; resid.=  4.00141095686991E-12
(PID.TID 0000.0001)  cg2d: iter=   124 ; resid.=  2.93994912597845E-12
(PID.TID 0000.0001)  cg2d: iter=   125 ; resid.=  2.11886543524387E-12
(PID.TID 0000.0001)  cg2d: iter=   126 ; resid.=  1.46718355810920E-12
(PID.TID 0000.0001)  cg2d: iter=   127 ; resid.=  1.13155211409855E-12
(PID.TID 0000.0001)  cg2d: iter=   128 ; resid.=  8.11079565895169E-13
(PID.TID 0000.0001)  cg2d: iter=   129 ; resid.=  5.87532908383490E-13
(PID.TID 0000.0001)  cg2d: iter=   130 ; resid.=  4.09529697906279E-13
(PID.TID 0000.0001)  cg2d: iter=   131 ; resid.=  2.70142001775182E-13
(PID.TID 0000.0001)  cg2d: iter=   132 ; resid.=  1.80977476899651E-13
(PID.TID 0000.0001)  cg2d: iter=   133 ; resid.=  1.41422314919343E-13
(PID.TID 0000.0001)  cg2d: iter=   134 ; resid.=  1.15449219992566E-13
(PID.TID 0000.0001)  cg2d: iter=   135 ; resid.=  8.77376102941284E-14
DEBUG_STATS_RL:    cg2d_x (SOLVE_FOR_PRESSURE)  min= -1.94222495430559E+01
DEBUG_STATS_RL:    cg2d_x (SOLVE_FOR_PRESSURE)  max=  1.04389625978342E+01
DEBUG_STATS_RL:    cg2d_x (SOLVE_FOR_PRESSURE) mean= -1.58246964210485E+00
DEBUG_STATS_RL:    cg2d_x (SOLVE_FOR_PRESSURE) S.D.=  6.66859414070799E+00
(PID.TID 0000.0001)      cg2d_init_res =   4.28311150548556E-01
(PID.TID 0000.0001)      cg2d_iters(min,last) =      -1     135
(PID.TID 0000.0001)      cg2d_last_res =   8.77376102941284E-14
(PID.TID 0000.0001) // =======================================================
(PID.TID 0000.0001) // Begin MONITOR dynamic field statistics
(PID.TID 0000.0001) // =======================================================
(PID.TID 0000.0001) %MON time_tsnumber                =                    57
(PID.TID 0000.0001) %MON time_secondsf                =   4.9248000000000E+06
(PID.TID 0000.0001) %MON dynstat_eta_max              =   1.0641144340300E+00
(PID.TID 0000.0001) %MON dynstat_eta_min              =  -1.9798419513816E+00
(PID.TID 0000.0001) %MON dynstat_eta_mean             =  -4.2668754360887E-03
(PID.TID 0000.0001) %MON dynstat_eta_sd               =   5.8661346059344E-01
(PID.TID 0000.0001) %MON dynstat_eta_del2             =   2.4485924500859E-03
(PID.TID 0000.0001) %MON dynstat_uvel_max             =   1.3248560191653E-01
(PID.TID 0000.0001) %MON dynstat_uvel_min             =  -1.5628955693097E-01
(PID.TID 0000.0001) %MON dynstat_uvel_mean            =   1.1596721333915E-03
(PID.TID 0000.0001) %MON dynstat_uvel_sd              =   2.0566946676978E-02
(PID.TID 0000.0001) %MON dynstat_uvel_del2            =   1.2543605288221E-04
(PID.TID 0000.0001) %MON dynstat_vvel_max             =   1.4294526399913E-01
(PID.TID 0000.0001) %MON dynstat_vvel_min             =  -1.0178008500301E-01
(PID.TID 0000.0001) %MON dynstat_vvel_mean            =   2.6150335035652E-04
(PID.TID 0000.0001) %MON dynstat_vvel_sd              =   1.1940422339667E-02
(PID.TID 0000.0001) %MON dynstat_vvel_del2            =   9.2752234471192E-05
(PID.TID 0000.0001) %MON dynstat_wvel_max             =   1.6393818871171E-04
(PID.TID 0000.0001) %MON dynstat_wvel_min             =  -1.5252938702998E-04
(PID.TID 0000.0001) %MON dynstat_wvel_mean            =  -1.2807977738020E-22
(PID.TID 0000.0001) %MON dynstat_wvel_sd              =   1.7819917473916E-05
(PID.TID 0000.0001) %MON dynstat_wvel_del2            =   1.7081661891128E-07
(PID.TID 0000.0001) %MON dynstat_theta_max            =   3.0627476996367E+01
(PID.TID 0000.0001) %MON dynstat_theta_min            =  -1.9713512496999E+00
(PID.TID 0000.0001) %MON dynstat_theta_mean           =   3.6529543255096E+00
(PID.TID 0000.0001) %MON dynstat_theta_sd             =   4.4232636285413E+00
(PID.TID 0000.0001) %MON dynstat_theta_del2           =   4.9135791948271E-03
(PID.TID 0000.0001) %MON dynstat_salt_max             =   3.7495162560644E+01
(PID.TID 0000.0001) %MON dynstat_salt_min             =   2.9892504063521E+01
(PID.TID 0000.0001) %MON dynstat_salt_mean            =   3.4747948758657E+01
(PID.TID 0000.0001) %MON dynstat_salt_sd              =   2.9635106888617E-01
(PID.TID 0000.0001) %MON dynstat_salt_del2            =   9.9049409004839E-04
(PID.TID 0000.0001) %MON dynstat_sst_max              =   3.0627476996367E+01
(PID.TID 0000.0001) %MON dynstat_sst_min              =  -1.9713512496999E+00
(PID.TID 0000.0001) %MON dynstat_sst_mean             =   1.9001264456542E+01
(PID.TID 0000.0001) %MON dynstat_sst_sd               =   9.0517339016563E+00
(PID.TID 0000.0001) %MON dynstat_sst_del2             =   2.7769781233720E-02
(PID.TID 0000.0001) %MON dynstat_sss_max              =   3.7467687416052E+01
(PID.TID 0000.0001) %MON dynstat_sss_min              =   2.9892504063521E+01
(PID.TID 0000.0001) %MON dynstat_sss_mean             =   3.4871825249040E+01
(PID.TID 0000.0001) %MON dynstat_sss_sd               =   9.7969555334424E-01
(PID.TID 0000.0001) %MON dynstat_sss_del2             =   7.9558984427663E-03
(PID.TID 0000.0001) %MON forcing_qnet_max             =   3.2767257181803E+02
(PID.TID 0000.0001) %MON forcing_qnet_min             =  -1.6954189707438E+02
(PID.TID 0000.0001) %MON forcing_qnet_mean            =  -1.1508516483050E+01
(PID.TID 0000.0001) %MON forcing_qnet_sd              =   6.4697646918086E+01
(PID.TID 0000.0001) %MON forcing_qnet_del2            =   8.9565534558300E-01
(PID.TID 0000.0001) %MON forcing_qsw_max              =   0.0000000000000E+00
(PID.TID 0000.0001) %MON forcing_qsw_min              =   0.0000000000000E+00
(PID.TID 0000.0001) %MON forcing_qsw_mean             =   0.0000000000000E+00
(PID.TID 0000.0001) %MON forcing_qsw_sd               =   0.0000000000000E+00
(PID.TID 0000.0001) %MON forcing_qsw_del2             =   0.0000000000000E+00
(PID.TID 0000.0001) %MON forcing_empmr_max            =   6.9218192303803E-05
(PID.TID 0000.0001) %MON forcing_empmr_min            =  -7.5680005314401E-05
(PID.TID 0000.0001) %MON forcing_empmr_mean           =   7.9941974029146E-07
(PID.TID 0000.0001) %MON forcing_empmr_sd             =   2.7118041416458E-05
(PID.TID 0000.0001) %MON forcing_empmr_del2           =   3.5326953117768E-07
(PID.TID 0000.0001) %MON forcing_fu_max               =   3.2066449820995E-01
(PID.TID 0000.0001) %MON forcing_fu_min               =  -2.7496327509483E-01
(PID.TID 0000.0001) %MON forcing_fu_mean              =   1.8666937100678E-02
(PID.TID 0000.0001) %MON forcing_fu_sd                =   9.4247901717010E-02
(PID.TID 0000.0001) %MON forcing_fu_del2              =   7.0585629130029E-04
(PID.TID 0000.0001) %MON forcing_fv_max               =   1.5726317167282E-01
(PID.TID 0000.0001) %MON forcing_fv_min               =  -1.8333285748959E-01
(PID.TID 0000.0001) %MON forcing_fv_mean              =  -7.3314367906246E-03
(PID.TID 0000.0001) %MON forcing_fv_sd                =   4.2374687785746E-02
(PID.TID 0000.0001) %MON forcing_fv_del2              =   4.7761157425794E-04
(PID.TID 0000.0001) %MON trAdv_CFL_u_max              =   4.2749248901369E-02
(PID.TID 0000.0001) %MON trAdv_CFL_v_max              =   2.8761176490552E-02
(PID.TID 0000.0001) %MON trAdv_CFL_w_max              =   4.0361467040126E-02
(PID.TID 0000.0001) %MON advcfl_uvel_max              =   4.3224000194341E-02
(PID.TID 0000.0001) %MON advcfl_vvel_max              =   2.7771972228623E-02
(PID.TID 0000.0001) %MON advcfl_wvel_max              =   4.8810123134393E-02
(PID.TID 0000.0001) %MON advcfl_W_hf_max              =   5.9269435234620E-02
(PID.TID 0000.0001) %MON pe_b_mean                    =   4.4036036733328E-04
(PID.TID 0000.0001) %MON ke_max                       =   1.8445946410825E-02
(PID.TID 0000.0001) %MON ke_mean                      =   2.5682424019671E-04
(PID.TID 0000.0001) %MON ke_vol                       =   1.3226782436723E+18
(PID.TID 0000.0001) %MON vort_r_min                   =  -4.8184655778472E-07
(PID.TID 0000.0001) %MON vort_r_max                   =   6.3007409200465E-07
(PID.TID 0000.0001) %MON vort_a_mean                  =  -2.5274808014397E-05
(PID.TID 0000.0001) %MON vort_a_sd                    =   7.3604348474270E-05
(PID.TID 0000.0001) %MON vort_p_mean                  =  -3.1845656576810E-05
(PID.TID 0000.0001) %MON vort_p_sd                    =   1.3162344024410E-04
(PID.TID 0000.0001) %MON surfExpan_theta_mean         =  -3.9654665375040E-07
(PID.TID 0000.0001) %MON surfExpan_salt_mean          =   2.5706952689538E-07
(PID.TID 0000.0001) // =======================================================
(PID.TID 0000.0001) // End MONITOR dynamic field statistics
(PID.TID 0000.0001) // =======================================================
 EXTERNAL_FIELDS_LOAD,        57 : iP,iLd,i0,i1=    2    3    2    3 ; Wght=  0.6000000000  0.4000000000
 EXTERNAL_FIELDS_LOAD: (fu0,1),fu,fv= -1.4435E-02 -2.7199E-02 -1.9540E-02 -1.0813E-02
 EXTERNAL_FIELDS_LOAD: SST,SSS,Q,E-P= -3.9268E-01  3.4484E+01  2.3045E+02  8.6586E-06
DEBUG_STATS_RL:          Uvel (THERMODYNAMICS)  min= -1.56289556930969E-01
DEBUG_STATS_RL:          Uvel (THERMODYNAMICS)  max=  1.32485601916525E-01
DEBUG_STATS_RL:          Uvel (THERMODYNAMICS) mean=  5.05373506133547E-03
DEBUG_STATS_RL:          Uvel (THERMODYNAMICS) S.D.=  2.61462695096369E-02
DEBUG_STATS_RL:          Vvel (THERMODYNAMICS)  min= -1.01780085003007E-01
DEBUG_STATS_RL:          Vvel (THERMODYNAMICS)  max=  1.42945263999135E-01
DEBUG_STATS_RL:          Vvel (THERMODYNAMICS) mean=  1.24234487273635E-03
DEBUG_STATS_RL:          Vvel (THERMODYNAMICS) S.D.=  1.69957945200480E-02
DEBUG_STATS_RL:          Wvel (THERMODYNAMICS)  min= -1.52529387029979E-04
DEBUG_STATS_RL:          Wvel (THERMODYNAMICS)  max=  1.63938188711710E-04
DEBUG_STATS_RL:          Wvel (THERMODYNAMICS) mean= -6.29312213781213E-08
DEBUG_STATS_RL:          Wvel (THERMODYNAMICS) S.D.=  1.53361499863873E-05
DEBUG_STATS_RL:         Theta (THERMODYNAMICS)  min= -1.96955192210332E+00
DEBUG_STATS_RL:         Theta (THERMODYNAMICS)  max=  3.06464298597762E+01
DEBUG_STATS_RL:         Theta (THERMODYNAMICS) mean=  3.24897386860641E+00
DEBUG_STATS_RL:         Theta (THERMODYNAMICS) S.D.=  5.87630024506511E+00
DEBUG_STATS_RL:          Salt (THERMODYNAMICS)  min=  3.00000000000000E-02
DEBUG_STATS_RL:          Salt (THERMODYNAMICS)  max=  3.74954288938643E+01
DEBUG_STATS_RL:          Salt (THERMODYNAMICS) mean=  1.88748403381541E+01
DEBUG_STATS_RL:          Salt (THERMODYNAMICS) S.D.=  1.73003666217785E+01
DEBUG_STATS_RL:         GtNm1 (THERMODYNAMICS)  min= -2.95123627797669E-06
DEBUG_STATS_RL:         GtNm1 (THERMODYNAMICS)  max=  2.44991245703848E-06
DEBUG_STATS_RL:         GtNm1 (THERMODYNAMICS) mean=  4.00771042866094E-09
DEBUG_STATS_RL:         GtNm1 (THERMODYNAMICS) S.D.=  1.93346907478118E-07
DEBUG_STATS_RL:         GsNm1 (THERMODYNAMICS)  min= -4.85746079606564E-07
DEBUG_STATS_RL:         GsNm1 (THERMODYNAMICS)  max=  3.53774189416489E-07
DEBUG_STATS_RL:         GsNm1 (THERMODYNAMICS) mean= -4.50686489735874E-10
DEBUG_STATS_RL:         GsNm1 (THERMODYNAMICS) S.D.=  1.96853446679888E-08
DEBUG_STATS_RL:                EtaN (DYNAMICS)  min= -1.97984195138156E+00
DEBUG_STATS_RL:                EtaN (DYNAMICS)  max=  1.06411443402996E+00
DEBUG_STATS_RL:                EtaN (DYNAMICS) mean= -1.61311890122819E-01
DEBUG_STATS_RL:                EtaN (DYNAMICS) S.D.=  6.79775141764318E-01
DEBUG_STATS_RL:                Uvel (DYNAMICS)  min= -1.56289556930969E-01
DEBUG_STATS_RL:                Uvel (DYNAMICS)  max=  1.32485601916525E-01
DEBUG_STATS_RL:                Uvel (DYNAMICS) mean=  5.05373506133547E-03
DEBUG_STATS_RL:                Uvel (DYNAMICS) S.D.=  2.61462695096369E-02
DEBUG_STATS_RL:                Vvel (DYNAMICS)  min= -1.01780085003007E-01
DEBUG_STATS_RL:                Vvel (DYNAMICS)  max=  1.42945263999135E-01
DEBUG_STATS_RL:                Vvel (DYNAMICS) mean=  1.24234487273635E-03
DEBUG_STATS_RL:                Vvel (DYNAMICS) S.D.=  1.69957945200480E-02
DEBUG_STATS_RL:                Wvel (DYNAMICS)  min= -1.52529387029979E-04
DEBUG_STATS_RL:                Wvel (DYNAMICS)  max=  1.63938188711710E-04
DEBUG_STATS_RL:                Wvel (DYNAMICS) mean= -6.29312213781213E-08
DEBUG_STATS_RL:                Wvel (DYNAMICS) S.D.=  1.53361499863873E-05
DEBUG_STATS_RL:               Theta (DYNAMICS)  min= -1.96955192210332E+00
DEBUG_STATS_RL:               Theta (DYNAMICS)  max=  3.06464298597762E+01
DEBUG_STATS_RL:               Theta (DYNAMICS) mean=  3.24897386860641E+00
DEBUG_STATS_RL:               Theta (DYNAMICS) S.D.=  5.87630024506511E+00
DEBUG_STATS_RL:                Salt (DYNAMICS)  min=  3.00000000000000E-02
DEBUG_STATS_RL:                Salt (DYNAMICS)  max=  3.74954288938643E+01
DEBUG_STATS_RL:                Salt (DYNAMICS) mean=  1.88748403381541E+01
DEBUG_STATS_RL:                Salt (DYNAMICS) S.D.=  1.73003666217785E+01
DEBUG_STATS_RL:                  Gu (DYNAMICS)  min= -1.52200326727464E-01
DEBUG_STATS_RL:                  Gu (DYNAMICS)  max=  1.38136710582997E-01
DEBUG_STATS_RL:                  Gu (DYNAMICS) mean=  5.26608272428911E-03
DEBUG_STATS_RL:                  Gu (DYNAMICS) S.D.=  2.64111151150783E-02
DEBUG_STATS_RL:                  Gv (DYNAMICS)  min= -1.04743934945723E-01
DEBUG_STATS_RL:                  Gv (DYNAMICS)  max=  1.45001605342376E-01
DEBUG_STATS_RL:                  Gv (DYNAMICS) mean=  3.50276752535306E-03
DEBUG_STATS_RL:                  Gv (DYNAMICS) S.D.=  1.82232979593524E-02
DEBUG_STATS_RL:               GuNm1 (DYNAMICS)  min= -9.85583673861075E-06
DEBUG_STATS_RL:               GuNm1 (DYNAMICS)  max=  9.40846559404801E-06
DEBUG_STATS_RL:               GuNm1 (DYNAMICS) mean=  1.19808243987145E-08
DEBUG_STATS_RL:               GuNm1 (DYNAMICS) S.D.=  1.21376184438840E-06
DEBUG_STATS_RL:               GvNm1 (DYNAMICS)  min= -9.58872919333311E-06
DEBUG_STATS_RL:               GvNm1 (DYNAMICS)  max=  1.61120137906247E-05
DEBUG_STATS_RL:               GvNm1 (DYNAMICS) mean=  7.45957813760886E-07
DEBUG_STATS_RL:               GvNm1 (DYNAMICS) S.D.=  2.65311228661856E-06
DEBUG_STATS_RL:               GtNm1 (DYNAMICS)  min= -2.95123627797669E-06
DEBUG_STATS_RL:               GtNm1 (DYNAMICS)  max=  2.44991245703848E-06
DEBUG_STATS_RL:               GtNm1 (DYNAMICS) mean=  4.00771042866094E-09
DEBUG_STATS_RL:               GtNm1 (DYNAMICS) S.D.=  1.93346907478118E-07
DEBUG_STATS_RL:               GsNm1 (DYNAMICS)  min= -4.85746079606564E-07
DEBUG_STATS_RL:               GsNm1 (DYNAMICS)  max=  3.53774189416489E-07
DEBUG_STATS_RL:               GsNm1 (DYNAMICS) mean= -4.50686489735874E-10
DEBUG_STATS_RL:               GsNm1 (DYNAMICS) S.D.=  1.96853446679888E-08
DEBUG_STATS_RL:    cg2d_b (SOLVE_FOR_PRESSURE)  min= -2.09283553406678E+04
DEBUG_STATS_RL:    cg2d_b (SOLVE_FOR_PRESSURE)  max=  2.55487226117438E+04
DEBUG_STATS_RL:    cg2d_b (SOLVE_FOR_PRESSURE) mean=  4.15240226347042E+00
DEBUG_STATS_RL:    cg2d_b (SOLVE_FOR_PRESSURE) S.D.=  4.00766759692232E+03
 cg2d: Sum(rhs),rhsMax =   3.76254084637210E-01  1.67810850594616E+00
(PID.TID 0000.0001)  cg2d: iter=     1 ; resid.=  2.64225277313326E-01
(PID.TID 0000.0001)  cg2d: iter=     2 ; resid.=  2.16696634010763E-01
(PID.TID 0000.0001)  cg2d: iter=     3 ; resid.=  1.95979644781913E-01
(PID.TID 0000.0001)  cg2d: iter=     4 ; resid.=  1.78460287477878E-01
(PID.TID 0000.0001)  cg2d: iter=     5 ; resid.=  1.51052298625342E-01
(PID.TID 0000.0001)  cg2d: iter=     6 ; resid.=  1.27359496206255E-01
(PID.TID 0000.0001)  cg2d: iter=     7 ; resid.=  1.10771318447220E-01
(PID.TID 0000.0001)  cg2d: iter=     8 ; resid.=  9.12757447959913E-02
(PID.TID 0000.0001)  cg2d: iter=     9 ; resid.=  7.39069212144288E-02
(PID.TID 0000.0001)  cg2d: iter=    10 ; resid.=  6.66286944617602E-02
(PID.TID 0000.0001)  cg2d: iter=    11 ; resid.=  6.02231044473017E-02
(PID.TID 0000.0001)  cg2d: iter=    12 ; resid.=  4.78012001661296E-02
(PID.TID 0000.0001)  cg2d: iter=    13 ; resid.=  3.72379323518610E-02
(PID.TID 0000.0001)  cg2d: iter=    14 ; resid.=  3.00988753995614E-02
(PID.TID 0000.0001)  cg2d: iter=    15 ; resid.=  2.52672903069871E-02
(PID.TID 0000.0001)  cg2d: iter=    16 ; resid.=  2.25331134870215E-02
(PID.TID 0000.0001)  cg2d: iter=    17 ; resid.=  1.97748376330996E-02
(PID.TID 0000.0001)  cg2d: iter=    18 ; resid.=  1.78769608812444E-02
(PID.TID 0000.0001)  cg2d: iter=    19 ; resid.=  1.37503067133322E-02
(PID.TID 0000.0001)  cg2d: iter=    20 ; resid.=  1.14141849206574E-02
(PID.TID 0000.0001)  cg2d: iter=    21 ; resid.=  9.59854445743433E-03
(PID.TID 0000.0001)  cg2d: iter=    22 ; resid.=  8.46089205492638E-03
(PID.TID 0000.0001)  cg2d: iter=    23 ; resid.=  6.90875128499371E-03
(PID.TID 0000.0001)  cg2d: iter=    24 ; resid.=  6.04676941639439E-03
(PID.TID 0000.0001)  cg2d: iter=    25 ; resid.=  4.61565367683212E-03
(PID.TID 0000.0001)  cg2d: iter=    26 ; resid.=  3.86530312312059E-03
(PID.TID 0000.0001)  cg2d: iter=    27 ; resid.=  3.26235625555603E-03
(PID.TID 0000.0001)  cg2d: iter=    28 ; resid.=  2.76198368122839E-03
(PID.TID 0000.0001)  cg2d: iter=    29 ; resid.=  2.30416146243260E-03
(PID.TID 0000.0001)  cg2d: iter=    30 ; resid.=  1.89810738484001E-03
(PID.TID 0000.0001)  cg2d: iter=    31 ; resid.=  1.56721050535578E-03
(PID.TID 0000.0001)  cg2d: iter=    32 ; resid.=  1.22061823448736E-03
(PID.TID 0000.0001)  cg2d: iter=    33 ; resid.=  1.06248651602530E-03
(PID.TID 0000.0001)  cg2d: iter=    34 ; resid.=  9.18522074227727E-04
(PID.TID 0000.0001)  cg2d: iter=    35 ; resid.=  7.81050788459655E-04
(PID.TID 0000.0001)  cg2d: iter=    36 ; resid.=  6.74826267265809E-04
(PID.TID 0000.0001)  cg2d: iter=    37 ; resid.=  5.66006445860527E-04
(PID.TID 0000.0001)  cg2d: iter=    38 ; resid.=  4.91278460261253E-04
(PID.TID 0000.0001)  cg2d: iter=    39 ; resid.=  4.29749632335785E-04
(PID.TID 0000.0001)  cg2d: iter=    40 ; resid.=  3.88171473793687E-04
(PID.TID 0000.0001)  cg2d: iter=    41 ; resid.=  3.42650926191441E-04
(PID.TID 0000.0001)  cg2d: iter=    42 ; resid.=  2.94017813630359E-04
(PID.TID 0000.0001)  cg2d: iter=    43 ; resid.=  2.32514125451877E-04
(PID.TID 0000.0001)  cg2d: iter=    44 ; resid.=  1.63772421777010E-04
(PID.TID 0000.0001)  cg2d: iter=    45 ; resid.=  1.18200615875761E-04
(PID.TID 0000.0001)  cg2d: iter=    46 ; resid.=  9.34908625554074E-05
(PID.TID 0000.0001)  cg2d: iter=    47 ; resid.=  7.68324718654419E-05
(PID.TID 0000.0001)  cg2d: iter=    48 ; resid.=  6.30689323413946E-05
(PID.TID 0000.0001)  cg2d: iter=    49 ; resid.=  4.94947383980777E-05
(PID.TID 0000.0001)  cg2d: iter=    50 ; resid.=  3.97057256634309E-05
(PID.TID 0000.0001)  cg2d: iter=    51 ; resid.=  3.30393236165519E-05
(PID.TID 0000.0001)  cg2d: iter=    52 ; resid.=  2.72138697993824E-05
(PID.TID 0000.0001)  cg2d: iter=    53 ; resid.=  2.38024156208154E-05
(PID.TID 0000.0001)  cg2d: iter=    54 ; resid.=  1.99609065671738E-05
(PID.TID 0000.0001)  cg2d: iter=    55 ; resid.=  1.81766494010979E-05
(PID.TID 0000.0001)  cg2d: iter=    56 ; resid.=  1.60939949274851E-05
(PID.TID 0000.0001)  cg2d: iter=    57 ; resid.=  1.30569137216824E-05
(PID.TID 0000.0001)  cg2d: iter=    58 ; resid.=  9.95209045948765E-06
(PID.TID 0000.0001)  cg2d: iter=    59 ; resid.=  8.09953206871386E-06
(PID.TID 0000.0001)  cg2d: iter=    60 ; resid.=  6.19796931536078E-06
(PID.TID 0000.0001)  cg2d: iter=    61 ; resid.=  5.31636823694265E-06
(PID.TID 0000.0001)  cg2d: iter=    62 ; resid.=  4.63523399583315E-06
(PID.TID 0000.0001)  cg2d: iter=    63 ; resid.=  3.95542649097864E-06
(PID.TID 0000.0001)  cg2d: iter=    64 ; resid.=  3.05959918605340E-06
(PID.TID 0000.0001)  cg2d: iter=    65 ; resid.=  2.47764515510873E-06
(PID.TID 0000.0001)  cg2d: iter=    66 ; resid.=  2.11798783837555E-06
(PID.TID 0000.0001)  cg2d: iter=    67 ; resid.=  1.83116004450507E-06
(PID.TID 0000.0001)  cg2d: iter=    68 ; resid.=  1.43330189402784E-06
(PID.TID 0000.0001)  cg2d: iter=    69 ; resid.=  1.14034779736629E-06
(PID.TID 0000.0001)  cg2d: iter=    70 ; resid.=  9.19913699627589E-07
(PID.TID 0000.0001)  cg2d: iter=    71 ; resid.=  7.86890595461755E-07
(PID.TID 0000.0001)  cg2d: iter=    72 ; resid.=  6.75032505171448E-07
(PID.TID 0000.0001)  cg2d: iter=    73 ; resid.=  5.77379826715308E-07
(PID.TID 0000.0001)  cg2d: iter=    74 ; resid.=  4.60077543726311E-07
(PID.TID 0000.0001)  cg2d: iter=    75 ; resid.=  3.66770603671118E-07
(PID.TID 0000.0001)  cg2d: iter=    76 ; resid.=  3.18621641712231E-07
(PID.TID 0000.0001)  cg2d: iter=    77 ; resid.=  2.78746164956131E-07
(PID.TID 0000.0001)  cg2d: iter=    78 ; resid.=  2.41107083578276E-07
(PID.TID 0000.0001)  cg2d: iter=    79 ; resid.=  2.01281654693644E-07
(PID.TID 0000.0001)  cg2d: iter=    80 ; resid.=  1.55553415176212E-07
(PID.TID 0000.0001)  cg2d: iter=    81 ; resid.=  1.17212336713531E-07
(PID.TID 0000.0001)  cg2d: iter=    82 ; resid.=  8.90259974687043E-08
(PID.TID 0000.0001)  cg2d: iter=    83 ; resid.=  6.05712922216414E-08
(PID.TID 0000.0001)  cg2d: iter=    84 ; resid.=  4.26520247194754E-08
(PID.TID 0000.0001)  cg2d: iter=    85 ; resid.=  3.02799349760336E-08
(PID.TID 0000.0001)  cg2d: iter=    86 ; resid.=  2.38469169204369E-08
(PID.TID 0000.0001)  cg2d: iter=    87 ; resid.=  1.96852422325418E-08
(PID.TID 0000.0001)  cg2d: iter=    88 ; resid.=  1.49462448567775E-08
(PID.TID 0000.0001)  cg2d: iter=    89 ; resid.=  1.21010954799126E-08
(PID.TID 0000.0001)  cg2d: iter=    90 ; resid.=  9.57814222472495E-09
(PID.TID 0000.0001)  cg2d: iter=    91 ; resid.=  6.93006649308180E-09
(PID.TID 0000.0001)  cg2d: iter=    92 ; resid.=  5.05272393987027E-09
(PID.TID 0000.0001)  cg2d: iter=    93 ; resid.=  4.11985540380145E-09
(PID.TID 0000.0001)  cg2d: iter=    94 ; resid.=  3.35551204749420E-09
(PID.TID 0000.0001)  cg2d: iter=    95 ; resid.=  2.91002451796140E-09
(PID.TID 0000.0001)  cg2d: iter=    96 ; resid.=  2.14484928690939E-09
(PID.TID 0000.0001)  cg2d: iter=    97 ; resid.=  1.56956233220231E-09
(PID.TID 0000.0001)  cg2d: iter=    98 ; resid.=  1.21741226516530E-09
(PID.TID 0000.0001)  cg2d: iter=    99 ; resid.=  1.01696923677420E-09
(PID.TID 0000.0001)  cg2d: iter=   100 ; resid.=  9.35916585339181E-10
(PID.TID 0000.0001)  cg2d: iter=   101 ; resid.=  7.75223014734398E-10
(PID.TID 0000.0001)  cg2d: iter=   102 ; resid.=  6.34893708977794E-10
(PID.TID 0000.0001)  cg2d: iter=   103 ; resid.=  4.98313771405012E-10
(PID.TID 0000.0001)  cg2d: iter=   104 ; resid.=  3.91338494970922E-10
(PID.TID 0000.0001)  cg2d: iter=   105 ; resid.=  3.18989019004423E-10
(PID.TID 0000.0001)  cg2d: iter=   106 ; resid.=  2.67346609284513E-10
(PID.TID 0000.0001)  cg2d: iter=   107 ; resid.=  2.16628046535994E-10
(PID.TID 0000.0001)  cg2d: iter=   108 ; resid.=  1.82106325086863E-10
(PID.TID 0000.0001)  cg2d: iter=   109 ; resid.=  1.39869515414278E-10
(PID.TID 0000.0001)  cg2d: iter=   110 ; resid.=  1.14497650258977E-10
(PID.TID 0000.0001)  cg2d: iter=   111 ; resid.=  9.76668517215372E-11
(PID.TID 0000.0001)  cg2d: iter=   112 ; resid.=  7.02662369075847E-11
(PID.TID 0000.0001)  cg2d: iter=   113 ; resid.=  5.38859117906145E-11
(PID.TID 0000.0001)  cg2d: iter=   114 ; resid.=  4.24993915259241E-11
(PID.TID 0000.0001)  cg2d: iter=   115 ; resid.=  3.25554636906369E-11
(PID.TID 0000.0001)  cg2d: iter=   116 ; resid.=  2.40464608166376E-11
(PID.TID 0000.0001)  cg2d: iter=   117 ; resid.=  1.92117390684609E-11
(PID.TID 0000.0001)  cg2d: iter=   118 ; resid.=  1.59396185244078E-11
(PID.TID 0000.0001)  cg2d: iter=   119 ; resid.=  1.17752751272360E-11
(PID.TID 0000.0001)  cg2d: iter=   120 ; resid.=  9.25441827238423E-12
(PID.TID 0000.0001)  cg2d: iter=   121 ; resid.=  7.15961862789358E-12
(PID.TID 0000.0001)  cg2d: iter=   122 ; resid.=  5.94290907984746E-12
(PID.TID 0000.0001)  cg2d: iter=   123 ; resid.=  4.16731288626663E-12
(PID.TID 0000.0001)  cg2d: iter=   124 ; resid.=  2.97915384483806E-12
(PID.TID 0000.0001)  cg2d: iter=   125 ; resid.=  2.16185147981051E-12
(PID.TID 0000.0001)  cg2d: iter=   126 ; resid.=  1.53942839727338E-12
(PID.TID 0000.0001)  cg2d: iter=   127 ; resid.=  1.19610908000307E-12
(PID.TID 0000.0001)  cg2d: iter=   128 ; resid.=  8.40402361129662E-13
(PID.TID 0000.0001)  cg2d: iter=   129 ; resid.=  5.80658381850916E-13
(PID.TID 0000.0001)  cg2d: iter=   130 ; resid.=  4.07994633772942E-13
(PID.TID 0000.0001)  cg2d: iter=   131 ; resid.=  2.76121690741564E-13
(PID.TID 0000.0001)  cg2d: iter=   132 ; resid.=  1.91120033297715E-13
(PID.TID 0000.0001)  cg2d: iter=   133 ; resid.=  1.52812034293064E-13
(PID.TID 0000.0001)  cg2d: iter=   134 ; resid.=  1.28247521670264E-13
(PID.TID 0000.0001)  cg2d: iter=   135 ; resid.=  9.86246496988766E-14
DEBUG_STATS_RL:    cg2d_x (SOLVE_FOR_PRESSURE)  min= -1.99481697188716E+01
DEBUG_STATS_RL:    cg2d_x (SOLVE_FOR_PRESSURE)  max=  1.12193572078866E+01
DEBUG_STATS_RL:    cg2d_x (SOLVE_FOR_PRESSURE) mean= -1.56040670228128E+00
DEBUG_STATS_RL:    cg2d_x (SOLVE_FOR_PRESSURE) S.D.=  6.83821539436373E+00
(PID.TID 0000.0001)      cg2d_init_res =   4.11130014411097E-01
(PID.TID 0000.0001)      cg2d_iters(min,last) =      -1     135
(PID.TID 0000.0001)      cg2d_last_res =   9.86246496988766E-14
(PID.TID 0000.0001) // =======================================================
(PID.TID 0000.0001) // Begin MONITOR dynamic field statistics
(PID.TID 0000.0001) // =======================================================
(PID.TID 0000.0001) %MON time_tsnumber                =                    58
(PID.TID 0000.0001) %MON time_secondsf                =   5.0112000000000E+06
(PID.TID 0000.0001) %MON dynstat_eta_max              =   1.1436653626796E+00
(PID.TID 0000.0001) %MON dynstat_eta_min              =  -2.0334525707312E+00
(PID.TID 0000.0001) %MON dynstat_eta_mean             =  -4.3325168810475E-03
(PID.TID 0000.0001) %MON dynstat_eta_sd               =   6.0346615567673E-01
(PID.TID 0000.0001) %MON dynstat_eta_del2             =   2.4503950538154E-03
(PID.TID 0000.0001) %MON dynstat_uvel_max             =   1.3871845811373E-01
(PID.TID 0000.0001) %MON dynstat_uvel_min             =  -1.5376398404213E-01
(PID.TID 0000.0001) %MON dynstat_uvel_mean            =   1.4177385131964E-03
(PID.TID 0000.0001) %MON dynstat_uvel_sd              =   2.0488311995831E-02
(PID.TID 0000.0001) %MON dynstat_uvel_del2            =   1.2543698887510E-04
(PID.TID 0000.0001) %MON dynstat_vvel_max             =   1.4273416270341E-01
(PID.TID 0000.0001) %MON dynstat_vvel_min             =  -1.0273240455623E-01
(PID.TID 0000.0001) %MON dynstat_vvel_mean            =   2.7554552578962E-04
(PID.TID 0000.0001) %MON dynstat_vvel_sd              =   1.1910253442738E-02
(PID.TID 0000.0001) %MON dynstat_vvel_del2            =   9.2299086246552E-05
(PID.TID 0000.0001) %MON dynstat_wvel_max             =   1.4034229640825E-04
(PID.TID 0000.0001) %MON dynstat_wvel_min             =  -1.4414897441177E-04
(PID.TID 0000.0001) %MON dynstat_wvel_mean            =  -5.6544102291848E-22
(PID.TID 0000.0001) %MON dynstat_wvel_sd              =   1.7576500588116E-05
(PID.TID 0000.0001) %MON dynstat_wvel_del2            =   1.6845158415852E-07
(PID.TID 0000.0001) %MON dynstat_theta_max            =   3.0646429859776E+01
(PID.TID 0000.0001) %MON dynstat_theta_min            =  -1.9695519221033E+00
(PID.TID 0000.0001) %MON dynstat_theta_mean           =   3.6530250111270E+00
(PID.TID 0000.0001) %MON dynstat_theta_sd             =   4.4235068496165E+00
(PID.TID 0000.0001) %MON dynstat_theta_del2           =   4.9230741503287E-03
(PID.TID 0000.0001) %MON dynstat_salt_max             =   3.7495428893864E+01
(PID.TID 0000.0001) %MON dynstat_salt_min             =   2.9897304239270E+01
(PID.TID 0000.0001) %MON dynstat_salt_mean            =   3.4747944588620E+01
(PID.TID 0000.0001) %MON dynstat_salt_sd              =   2.9634697418029E-01
(PID.TID 0000.0001) %MON dynstat_salt_del2            =   9.9072490007508E-04
(PID.TID 0000.0001) %MON dynstat_sst_max              =   3.0646429859776E+01
(PID.TID 0000.0001) %MON dynstat_sst_min              =  -1.9695519221033E+00
(PID.TID 0000.0001) %MON dynstat_sst_mean             =   1.9007476622317E+01
(PID.TID 0000.0001) %MON dynstat_sst_sd               =   9.0555440898516E+00
(PID.TID 0000.0001) %MON dynstat_sst_del2             =   2.7826734827435E-02
(PID.TID 0000.0001) %MON dynstat_sss_max              =   3.7468612847336E+01
(PID.TID 0000.0001) %MON dynstat_sss_min              =   2.9897304239270E+01
(PID.TID 0000.0001) %MON dynstat_sss_mean             =   3.4871475111983E+01
(PID.TID 0000.0001) %MON dynstat_sss_sd               =   9.7994273244402E-01
(PID.TID 0000.0001) %MON dynstat_sss_del2             =   7.9669333452301E-03
(PID.TID 0000.0001) %MON forcing_qnet_max             =   3.2487442016602E+02
(PID.TID 0000.0001) %MON forcing_qnet_min             =  -1.6924261779785E+02
(PID.TID 0000.0001) %MON forcing_qnet_mean            =  -1.1285176983424E+01
(PID.TID 0000.0001) %MON forcing_qnet_sd              =   6.3449695075861E+01
(PID.TID 0000.0001) %MON forcing_qnet_del2            =   8.9174766139185E-01
(PID.TID 0000.0001) %MON forcing_qsw_max              =   0.0000000000000E+00
(PID.TID 0000.0001) %MON forcing_qsw_min              =   0.0000000000000E+00
(PID.TID 0000.0001) %MON forcing_qsw_mean             =   0.0000000000000E+00
(PID.TID 0000.0001) %MON forcing_qsw_sd               =   0.0000000000000E+00
(PID.TID 0000.0001) %MON forcing_qsw_del2             =   0.0000000000000E+00
(PID.TID 0000.0001) %MON forcing_empmr_max            =   6.9212435960253E-05
(PID.TID 0000.0001) %MON forcing_empmr_min            =  -7.6079184907485E-05
(PID.TID 0000.0001) %MON forcing_empmr_mean           =   7.8632980941711E-07
(PID.TID 0000.0001) %MON forcing_empmr_sd             =   2.7052915154374E-05
(PID.TID 0000.0001) %MON forcing_empmr_del2           =   3.5339969316782E-07
(PID.TID 0000.0001) %MON forcing_fu_max               =   3.2260591387749E-01
(PID.TID 0000.0001) %MON forcing_fu_min               =  -2.8034790456295E-01
(PID.TID 0000.0001) %MON forcing_fu_mean              =   1.8761136690137E-02
(PID.TID 0000.0001) %MON forcing_fu_sd                =   9.4487425263087E-02
(PID.TID 0000.0001) %MON forcing_fu_del2              =   7.0683773160572E-04
(PID.TID 0000.0001) %MON forcing_fv_max               =   1.5618582963943E-01
(PID.TID 0000.0001) %MON forcing_fv_min               =  -1.8184682130814E-01
(PID.TID 0000.0001) %MON forcing_fv_mean              =  -7.3418651405940E-03
(PID.TID 0000.0001) %MON forcing_fv_sd                =   4.2230357499442E-02
(PID.TID 0000.0001) %MON forcing_fv_del2              =   4.7453329375474E-04
(PID.TID 0000.0001) %MON trAdv_CFL_u_max              =   4.3232779297924E-02
(PID.TID 0000.0001) %MON trAdv_CFL_v_max              =   2.7779753246637E-02
(PID.TID 0000.0001) %MON trAdv_CFL_w_max              =   4.1488604664234E-02
(PID.TID 0000.0001) %MON advcfl_uvel_max              =   4.4149435405629E-02
(PID.TID 0000.0001) %MON advcfl_vvel_max              =   2.7730958632521E-02
(PID.TID 0000.0001) %MON advcfl_wvel_max              =   4.9553725839636E-02
(PID.TID 0000.0001) %MON advcfl_W_hf_max              =   6.0172381376701E-02
(PID.TID 0000.0001) %MON pe_b_mean                    =   4.6602522162618E-04
(PID.TID 0000.0001) %MON ke_max                       =   1.8355403293396E-02
(PID.TID 0000.0001) %MON ke_mean                      =   2.5534007741701E-04
(PID.TID 0000.0001) %MON ke_vol                       =   1.3226782436723E+18
(PID.TID 0000.0001) %MON vort_r_min                   =  -4.6828418241156E-07
(PID.TID 0000.0001) %MON vort_r_max                   =   6.2204718340811E-07
(PID.TID 0000.0001) %MON vort_a_mean                  =  -2.5274808081413E-05
(PID.TID 0000.0001) %MON vort_a_sd                    =   7.3604392701554E-05
(PID.TID 0000.0001) %MON vort_p_mean                  =  -3.1845656661248E-05
(PID.TID 0000.0001) %MON vort_p_sd                    =   1.3162344852520E-04
(PID.TID 0000.0001) %MON surfExpan_theta_mean         =  -2.7053672178904E-07
(PID.TID 0000.0001) %MON surfExpan_salt_mean          =   1.9370189274495E-07
(PID.TID 0000.0001) // =======================================================
(PID.TID 0000.0001) // End MONITOR dynamic field statistics
(PID.TID 0000.0001) // =======================================================
 EXTERNAL_FIELDS_LOAD,        58 : iP,iLd,i0,i1=    2    3    2    3 ; Wght=  0.5666666667  0.4333333333
 EXTERNAL_FIELDS_LOAD: (fu0,1),fu,fv= -1.4435E-02 -2.7199E-02 -1.9966E-02 -1.0244E-02
 EXTERNAL_FIELDS_LOAD: SST,SSS,Q,E-P= -3.8108E-01  3.4490E+01  2.2961E+02  8.6821E-06
DEBUG_STATS_RL:          Uvel (THERMODYNAMICS)  min= -1.53763984042131E-01
DEBUG_STATS_RL:          Uvel (THERMODYNAMICS)  max=  1.38718458113732E-01
DEBUG_STATS_RL:          Uvel (THERMODYNAMICS) mean=  5.36563944530149E-03
DEBUG_STATS_RL:          Uvel (THERMODYNAMICS) S.D.=  2.60751238583750E-02
DEBUG_STATS_RL:          Vvel (THERMODYNAMICS)  min= -1.02732404556229E-01
DEBUG_STATS_RL:          Vvel (THERMODYNAMICS)  max=  1.42734162703406E-01
DEBUG_STATS_RL:          Vvel (THERMODYNAMICS) mean=  1.12885745825234E-03
DEBUG_STATS_RL:          Vvel (THERMODYNAMICS) S.D.=  1.69428348996010E-02
DEBUG_STATS_RL:          Wvel (THERMODYNAMICS)  min= -1.44148974411769E-04
DEBUG_STATS_RL:          Wvel (THERMODYNAMICS)  max=  1.40342296408254E-04
DEBUG_STATS_RL:          Wvel (THERMODYNAMICS) mean= -8.55020855169167E-08
DEBUG_STATS_RL:          Wvel (THERMODYNAMICS) S.D.=  1.50862067863630E-05
DEBUG_STATS_RL:         Theta (THERMODYNAMICS)  min= -1.96780147060152E+00
DEBUG_STATS_RL:         Theta (THERMODYNAMICS)  max=  3.06610988133710E+01
DEBUG_STATS_RL:         Theta (THERMODYNAMICS) mean=  3.24915290880386E+00
DEBUG_STATS_RL:         Theta (THERMODYNAMICS) S.D.=  5.87685938543726E+00
DEBUG_STATS_RL:          Salt (THERMODYNAMICS)  min=  3.00000000000000E-02
DEBUG_STATS_RL:          Salt (THERMODYNAMICS)  max=  3.74956747041499E+01
DEBUG_STATS_RL:          Salt (THERMODYNAMICS) mean=  1.88748235603607E+01
DEBUG_STATS_RL:          Salt (THERMODYNAMICS) S.D.=  1.73003515162985E+01
DEBUG_STATS_RL:         GtNm1 (THERMODYNAMICS)  min= -3.50132850040000E-06
DEBUG_STATS_RL:         GtNm1 (THERMODYNAMICS)  max=  2.42330828831097E-06
DEBUG_STATS_RL:         GtNm1 (THERMODYNAMICS) mean=  3.98536098217785E-09
DEBUG_STATS_RL:         GtNm1 (THERMODYNAMICS) S.D.=  1.89505080238194E-07
DEBUG_STATS_RL:         GsNm1 (THERMODYNAMICS)  min= -4.91752656414333E-07
DEBUG_STATS_RL:         GsNm1 (THERMODYNAMICS)  max=  4.22083794332720E-07
DEBUG_STATS_RL:         GsNm1 (THERMODYNAMICS) mean= -4.59579630716209E-10
DEBUG_STATS_RL:         GsNm1 (THERMODYNAMICS) S.D.=  1.94278516296498E-08
DEBUG_STATS_RL:                EtaN (DYNAMICS)  min= -2.03345257073118E+00
DEBUG_STATS_RL:                EtaN (DYNAMICS)  max=  1.14366536267957E+00
DEBUG_STATS_RL:                EtaN (DYNAMICS) mean= -1.59062864656603E-01
DEBUG_STATS_RL:                EtaN (DYNAMICS) S.D.=  6.97065789435640E-01
DEBUG_STATS_RL:                Uvel (DYNAMICS)  min= -1.53763984042131E-01
DEBUG_STATS_RL:                Uvel (DYNAMICS)  max=  1.38718458113732E-01
DEBUG_STATS_RL:                Uvel (DYNAMICS) mean=  5.36563944530149E-03
DEBUG_STATS_RL:                Uvel (DYNAMICS) S.D.=  2.60751238583750E-02
DEBUG_STATS_RL:                Vvel (DYNAMICS)  min= -1.02732404556229E-01
DEBUG_STATS_RL:                Vvel (DYNAMICS)  max=  1.42734162703406E-01
DEBUG_STATS_RL:                Vvel (DYNAMICS) mean=  1.12885745825234E-03
DEBUG_STATS_RL:                Vvel (DYNAMICS) S.D.=  1.69428348996010E-02
DEBUG_STATS_RL:                Wvel (DYNAMICS)  min= -1.44148974411769E-04
DEBUG_STATS_RL:                Wvel (DYNAMICS)  max=  1.40342296408254E-04
DEBUG_STATS_RL:                Wvel (DYNAMICS) mean= -8.55020855169167E-08
DEBUG_STATS_RL:                Wvel (DYNAMICS) S.D.=  1.50862067863630E-05
DEBUG_STATS_RL:               Theta (DYNAMICS)  min= -1.96780147060152E+00
DEBUG_STATS_RL:               Theta (DYNAMICS)  max=  3.06610988133710E+01
DEBUG_STATS_RL:               Theta (DYNAMICS) mean=  3.24915290880386E+00
DEBUG_STATS_RL:               Theta (DYNAMICS) S.D.=  5.87685938543726E+00
DEBUG_STATS_RL:                Salt (DYNAMICS)  min=  3.00000000000000E-02
DEBUG_STATS_RL:                Salt (DYNAMICS)  max=  3.74956747041499E+01
DEBUG_STATS_RL:                Salt (DYNAMICS) mean=  1.88748235603607E+01
DEBUG_STATS_RL:                Salt (DYNAMICS) S.D.=  1.73003515162985E+01
DEBUG_STATS_RL:                  Gu (DYNAMICS)  min= -1.49493419629882E-01
DEBUG_STATS_RL:                  Gu (DYNAMICS)  max=  1.45594131852176E-01
DEBUG_STATS_RL:                  Gu (DYNAMICS) mean=  5.52747018107699E-03
DEBUG_STATS_RL:                  Gu (DYNAMICS) S.D.=  2.63944811769961E-02
DEBUG_STATS_RL:                  Gv (DYNAMICS)  min= -1.06024394685715E-01
DEBUG_STATS_RL:                  Gv (DYNAMICS)  max=  1.44600620847342E-01
DEBUG_STATS_RL:                  Gv (DYNAMICS) mean=  3.47023053118805E-03
DEBUG_STATS_RL:                  Gv (DYNAMICS) S.D.=  1.81194127183612E-02
DEBUG_STATS_RL:               GuNm1 (DYNAMICS)  min= -9.89180660377619E-06
DEBUG_STATS_RL:               GuNm1 (DYNAMICS)  max=  9.43976022481357E-06
DEBUG_STATS_RL:               GuNm1 (DYNAMICS) mean=  1.20238511268526E-08
DEBUG_STATS_RL:               GuNm1 (DYNAMICS) S.D.=  1.21411756934460E-06
DEBUG_STATS_RL:               GvNm1 (DYNAMICS)  min= -9.70951653570207E-06
DEBUG_STATS_RL:               GvNm1 (DYNAMICS)  max=  1.60413955116467E-05
DEBUG_STATS_RL:               GvNm1 (DYNAMICS) mean=  7.46165468140791E-07
DEBUG_STATS_RL:               GvNm1 (DYNAMICS) S.D.=  2.65657153533341E-06
DEBUG_STATS_RL:               GtNm1 (DYNAMICS)  min= -3.50132850040000E-06
DEBUG_STATS_RL:               GtNm1 (DYNAMICS)  max=  2.42330828831097E-06
DEBUG_STATS_RL:               GtNm1 (DYNAMICS) mean=  3.98536098217785E-09
DEBUG_STATS_RL:               GtNm1 (DYNAMICS) S.D.=  1.89505080238194E-07
DEBUG_STATS_RL:               GsNm1 (DYNAMICS)  min= -4.91752656414333E-07
DEBUG_STATS_RL:               GsNm1 (DYNAMICS)  max=  4.22083794332720E-07
DEBUG_STATS_RL:               GsNm1 (DYNAMICS) mean= -4.59579630716209E-10
DEBUG_STATS_RL:               GsNm1 (DYNAMICS) S.D.=  1.94278516296498E-08
DEBUG_STATS_RL:    cg2d_b (SOLVE_FOR_PRESSURE)  min= -1.94889048987027E+04
DEBUG_STATS_RL:    cg2d_b (SOLVE_FOR_PRESSURE)  max=  2.58463054663348E+04
DEBUG_STATS_RL:    cg2d_b (SOLVE_FOR_PRESSURE) mean=  4.21426751630520E+00
DEBUG_STATS_RL:    cg2d_b (SOLVE_FOR_PRESSURE) S.D.=  4.02097053018583E+03
 cg2d: Sum(rhs),rhsMax =   3.77463205058574E-01  1.69765454459168E+00
(PID.TID 0000.0001)  cg2d: iter=     1 ; resid.=  2.46578960275808E-01
(PID.TID 0000.0001)  cg2d: iter=     2 ; resid.=  1.91637643617590E-01
(PID.TID 0000.0001)  cg2d: iter=     3 ; resid.=  1.69935153966956E-01
(PID.TID 0000.0001)  cg2d: iter=     4 ; resid.=  1.50405986959127E-01
(PID.TID 0000.0001)  cg2d: iter=     5 ; resid.=  1.19005456980886E-01
(PID.TID 0000.0001)  cg2d: iter=     6 ; resid.=  9.60433592824461E-02
(PID.TID 0000.0001)  cg2d: iter=     7 ; resid.=  8.38526781483108E-02
(PID.TID 0000.0001)  cg2d: iter=     8 ; resid.=  7.27131999347621E-02
(PID.TID 0000.0001)  cg2d: iter=     9 ; resid.=  6.00472190093222E-02
(PID.TID 0000.0001)  cg2d: iter=    10 ; resid.=  5.50910676652298E-02
(PID.TID 0000.0001)  cg2d: iter=    11 ; resid.=  5.06520066804089E-02
(PID.TID 0000.0001)  cg2d: iter=    12 ; resid.=  4.11783156359450E-02
(PID.TID 0000.0001)  cg2d: iter=    13 ; resid.=  3.24043715411979E-02
(PID.TID 0000.0001)  cg2d: iter=    14 ; resid.=  2.65714262530309E-02
(PID.TID 0000.0001)  cg2d: iter=    15 ; resid.=  2.27042934551516E-02
(PID.TID 0000.0001)  cg2d: iter=    16 ; resid.=  1.98031474408588E-02
(PID.TID 0000.0001)  cg2d: iter=    17 ; resid.=  1.72914440779569E-02
(PID.TID 0000.0001)  cg2d: iter=    18 ; resid.=  1.52372813819442E-02
(PID.TID 0000.0001)  cg2d: iter=    19 ; resid.=  1.20087875501295E-02
(PID.TID 0000.0001)  cg2d: iter=    20 ; resid.=  1.01395282446798E-02
(PID.TID 0000.0001)  cg2d: iter=    21 ; resid.=  8.57727731157961E-03
(PID.TID 0000.0001)  cg2d: iter=    22 ; resid.=  7.50294119318676E-03
(PID.TID 0000.0001)  cg2d: iter=    23 ; resid.=  6.04223501644542E-03
(PID.TID 0000.0001)  cg2d: iter=    24 ; resid.=  5.21784918016166E-03
(PID.TID 0000.0001)  cg2d: iter=    25 ; resid.=  3.98440868632061E-03
(PID.TID 0000.0001)  cg2d: iter=    26 ; resid.=  3.32267839539762E-03
(PID.TID 0000.0001)  cg2d: iter=    27 ; resid.=  2.85408978021511E-03
(PID.TID 0000.0001)  cg2d: iter=    28 ; resid.=  2.46237476174754E-03
(PID.TID 0000.0001)  cg2d: iter=    29 ; resid.=  2.08477998192372E-03
(PID.TID 0000.0001)  cg2d: iter=    30 ; resid.=  1.70027240928009E-03
(PID.TID 0000.0001)  cg2d: iter=    31 ; resid.=  1.40164959072401E-03
(PID.TID 0000.0001)  cg2d: iter=    32 ; resid.=  1.09431516595352E-03
(PID.TID 0000.0001)  cg2d: iter=    33 ; resid.=  9.62286790985975E-04
(PID.TID 0000.0001)  cg2d: iter=    34 ; resid.=  8.29367750373572E-04
(PID.TID 0000.0001)  cg2d: iter=    35 ; resid.=  6.93154726441750E-04
(PID.TID 0000.0001)  cg2d: iter=    36 ; resid.=  5.77416744236512E-04
(PID.TID 0000.0001)  cg2d: iter=    37 ; resid.=  4.71232391936841E-04
(PID.TID 0000.0001)  cg2d: iter=    38 ; resid.=  3.92216290863301E-04
(PID.TID 0000.0001)  cg2d: iter=    39 ; resid.=  3.45370695845305E-04
(PID.TID 0000.0001)  cg2d: iter=    40 ; resid.=  3.11924103799270E-04
(PID.TID 0000.0001)  cg2d: iter=    41 ; resid.=  2.80610301663885E-04
(PID.TID 0000.0001)  cg2d: iter=    42 ; resid.=  2.47634601535236E-04
(PID.TID 0000.0001)  cg2d: iter=    43 ; resid.=  2.00643197655929E-04
(PID.TID 0000.0001)  cg2d: iter=    44 ; resid.=  1.43834592657205E-04
(PID.TID 0000.0001)  cg2d: iter=    45 ; resid.=  1.04017505999046E-04
(PID.TID 0000.0001)  cg2d: iter=    46 ; resid.=  8.15744980114199E-05
(PID.TID 0000.0001)  cg2d: iter=    47 ; resid.=  6.59693066870053E-05
(PID.TID 0000.0001)  cg2d: iter=    48 ; resid.=  5.40144342526799E-05
(PID.TID 0000.0001)  cg2d: iter=    49 ; resid.=  4.02089483188589E-05
(PID.TID 0000.0001)  cg2d: iter=    50 ; resid.=  3.03001030608094E-05
(PID.TID 0000.0001)  cg2d: iter=    51 ; resid.=  2.33017500255164E-05
(PID.TID 0000.0001)  cg2d: iter=    52 ; resid.=  1.78142490917361E-05
(PID.TID 0000.0001)  cg2d: iter=    53 ; resid.=  1.48066714078698E-05
(PID.TID 0000.0001)  cg2d: iter=    54 ; resid.=  1.20330503871249E-05
(PID.TID 0000.0001)  cg2d: iter=    55 ; resid.=  1.06576292134681E-05
(PID.TID 0000.0001)  cg2d: iter=    56 ; resid.=  9.62031063568659E-06
(PID.TID 0000.0001)  cg2d: iter=    57 ; resid.=  8.10930841897390E-06
(PID.TID 0000.0001)  cg2d: iter=    58 ; resid.=  6.44898029233270E-06
(PID.TID 0000.0001)  cg2d: iter=    59 ; resid.=  5.39823337080268E-06
(PID.TID 0000.0001)  cg2d: iter=    60 ; resid.=  4.29025286230236E-06
(PID.TID 0000.0001)  cg2d: iter=    61 ; resid.=  3.66414717047270E-06
(PID.TID 0000.0001)  cg2d: iter=    62 ; resid.=  3.19906964691404E-06
(PID.TID 0000.0001)  cg2d: iter=    63 ; resid.=  2.80728288220342E-06
(PID.TID 0000.0001)  cg2d: iter=    64 ; resid.=  2.27023492555975E-06
(PID.TID 0000.0001)  cg2d: iter=    65 ; resid.=  1.88840420210903E-06
(PID.TID 0000.0001)  cg2d: iter=    66 ; resid.=  1.65157299360986E-06
(PID.TID 0000.0001)  cg2d: iter=    67 ; resid.=  1.47203236115606E-06
(PID.TID 0000.0001)  cg2d: iter=    68 ; resid.=  1.15468515996624E-06
(PID.TID 0000.0001)  cg2d: iter=    69 ; resid.=  8.80787962178242E-07
(PID.TID 0000.0001)  cg2d: iter=    70 ; resid.=  6.64865856477078E-07
(PID.TID 0000.0001)  cg2d: iter=    71 ; resid.=  5.47384992757634E-07
(PID.TID 0000.0001)  cg2d: iter=    72 ; resid.=  4.55797635727751E-07
(PID.TID 0000.0001)  cg2d: iter=    73 ; resid.=  3.73890217824705E-07
(PID.TID 0000.0001)  cg2d: iter=    74 ; resid.=  2.86753833332299E-07
(PID.TID 0000.0001)  cg2d: iter=    75 ; resid.=  2.11762424997834E-07
(PID.TID 0000.0001)  cg2d: iter=    76 ; resid.=  1.70189719874908E-07
(PID.TID 0000.0001)  cg2d: iter=    77 ; resid.=  1.47210813221324E-07
(PID.TID 0000.0001)  cg2d: iter=    78 ; resid.=  1.32415127279275E-07
(PID.TID 0000.0001)  cg2d: iter=    79 ; resid.=  1.25258583703875E-07
(PID.TID 0000.0001)  cg2d: iter=    80 ; resid.=  1.08813103361639E-07
(PID.TID 0000.0001)  cg2d: iter=    81 ; resid.=  8.84059743395038E-08
(PID.TID 0000.0001)  cg2d: iter=    82 ; resid.=  7.07213575769238E-08
(PID.TID 0000.0001)  cg2d: iter=    83 ; resid.=  5.06483521953738E-08
(PID.TID 0000.0001)  cg2d: iter=    84 ; resid.=  3.71849387024714E-08
(PID.TID 0000.0001)  cg2d: iter=    85 ; resid.=  2.67918140065799E-08
(PID.TID 0000.0001)  cg2d: iter=    86 ; resid.=  2.15833066689993E-08
(PID.TID 0000.0001)  cg2d: iter=    87 ; resid.=  1.77144673167872E-08
(PID.TID 0000.0001)  cg2d: iter=    88 ; resid.=  1.34529224473859E-08
(PID.TID 0000.0001)  cg2d: iter=    89 ; resid.=  1.09077402919731E-08
(PID.TID 0000.0001)  cg2d: iter=    90 ; resid.=  9.06095338168911E-09
(PID.TID 0000.0001)  cg2d: iter=    91 ; resid.=  6.95788245416385E-09
(PID.TID 0000.0001)  cg2d: iter=    92 ; resid.=  5.24091607161225E-09
(PID.TID 0000.0001)  cg2d: iter=    93 ; resid.=  4.17936913648919E-09
(PID.TID 0000.0001)  cg2d: iter=    94 ; resid.=  3.27897598539039E-09
(PID.TID 0000.0001)  cg2d: iter=    95 ; resid.=  2.73232495448732E-09
(PID.TID 0000.0001)  cg2d: iter=    96 ; resid.=  1.95377966039698E-09
(PID.TID 0000.0001)  cg2d: iter=    97 ; resid.=  1.37004132812613E-09
(PID.TID 0000.0001)  cg2d: iter=    98 ; resid.=  9.89230538973768E-10
(PID.TID 0000.0001)  cg2d: iter=    99 ; resid.=  7.68725497180277E-10
(PID.TID 0000.0001)  cg2d: iter=   100 ; resid.=  6.56040135961230E-10
(PID.TID 0000.0001)  cg2d: iter=   101 ; resid.=  5.20143392135092E-10
(PID.TID 0000.0001)  cg2d: iter=   102 ; resid.=  4.08090600120171E-10
(PID.TID 0000.0001)  cg2d: iter=   103 ; resid.=  3.21038747430997E-10
(PID.TID 0000.0001)  cg2d: iter=   104 ; resid.=  2.56187828112399E-10
(PID.TID 0000.0001)  cg2d: iter=   105 ; resid.=  2.07925258747266E-10
(PID.TID 0000.0001)  cg2d: iter=   106 ; resid.=  1.72987516587953E-10
(PID.TID 0000.0001)  cg2d: iter=   107 ; resid.=  1.33455157797338E-10
(PID.TID 0000.0001)  cg2d: iter=   108 ; resid.=  1.12017416674641E-10
(PID.TID 0000.0001)  cg2d: iter=   109 ; resid.=  8.68078597009479E-11
(PID.TID 0000.0001)  cg2d: iter=   110 ; resid.=  7.25324231044724E-11
(PID.TID 0000.0001)  cg2d: iter=   111 ; resid.=  6.68112759965380E-11
(PID.TID 0000.0001)  cg2d: iter=   112 ; resid.=  5.32439779919273E-11
(PID.TID 0000.0001)  cg2d: iter=   113 ; resid.=  4.31856735742118E-11
(PID.TID 0000.0001)  cg2d: iter=   114 ; resid.=  3.54798843439798E-11
(PID.TID 0000.0001)  cg2d: iter=   115 ; resid.=  2.77467220098330E-11
(PID.TID 0000.0001)  cg2d: iter=   116 ; resid.=  2.07853142421622E-11
(PID.TID 0000.0001)  cg2d: iter=   117 ; resid.=  1.65475228107128E-11
(PID.TID 0000.0001)  cg2d: iter=   118 ; resid.=  1.34672472908092E-11
(PID.TID 0000.0001)  cg2d: iter=   119 ; resid.=  1.01259562942950E-11
(PID.TID 0000.0001)  cg2d: iter=   120 ; resid.=  7.81524051164191E-12
(PID.TID 0000.0001)  cg2d: iter=   121 ; resid.=  5.87552071252579E-12
(PID.TID 0000.0001)  cg2d: iter=   122 ; resid.=  4.89476187725908E-12
(PID.TID 0000.0001)  cg2d: iter=   123 ; resid.=  3.64247173291387E-12
(PID.TID 0000.0001)  cg2d: iter=   124 ; resid.=  2.69212185025052E-12
(PID.TID 0000.0001)  cg2d: iter=   125 ; resid.=  2.03335424756088E-12
(PID.TID 0000.0001)  cg2d: iter=   126 ; resid.=  1.48449942796465E-12
(PID.TID 0000.0001)  cg2d: iter=   127 ; resid.=  1.15499773823291E-12
(PID.TID 0000.0001)  cg2d: iter=   128 ; resid.=  8.12500649285869E-13
(PID.TID 0000.0001)  cg2d: iter=   129 ; resid.=  5.58011224076995E-13
(PID.TID 0000.0001)  cg2d: iter=   130 ; resid.=  4.14014637494891E-13
(PID.TID 0000.0001)  cg2d: iter=   131 ; resid.=  3.01685848899030E-13
(PID.TID 0000.0001)  cg2d: iter=   132 ; resid.=  2.20369364477868E-13
(PID.TID 0000.0001)  cg2d: iter=   133 ; resid.=  1.76177238629787E-13
(PID.TID 0000.0001)  cg2d: iter=   134 ; resid.=  1.42564669420999E-13
(PID.TID 0000.0001)  cg2d: iter=   135 ; resid.=  1.06368255799323E-13
(PID.TID 0000.0001)  cg2d: iter=   136 ; resid.=  7.81804519762325E-14
DEBUG_STATS_RL:    cg2d_x (SOLVE_FOR_PRESSURE)  min= -2.04051432948855E+01
DEBUG_STATS_RL:    cg2d_x (SOLVE_FOR_PRESSURE)  max=  1.17414409121845E+01
DEBUG_STATS_RL:    cg2d_x (SOLVE_FOR_PRESSURE) mean= -1.54600701153638E+00
DEBUG_STATS_RL:    cg2d_x (SOLVE_FOR_PRESSURE) S.D.=  6.99707101204460E+00
(PID.TID 0000.0001)      cg2d_init_res =   3.97516509854635E-01
(PID.TID 0000.0001)      cg2d_iters(min,last) =      -1     136
(PID.TID 0000.0001)      cg2d_last_res =   7.81804519762325E-14
(PID.TID 0000.0001) // =======================================================
(PID.TID 0000.0001) // Begin MONITOR dynamic field statistics
(PID.TID 0000.0001) // =======================================================
(PID.TID 0000.0001) %MON time_tsnumber                =                    59
(PID.TID 0000.0001) %MON time_secondsf                =   5.0976000000000E+06
(PID.TID 0000.0001) %MON dynstat_eta_max              =   1.1968849044020E+00
(PID.TID 0000.0001) %MON dynstat_eta_min              =  -2.0800349943819E+00
(PID.TID 0000.0001) %MON dynstat_eta_mean             =  -4.3970656013436E-03
(PID.TID 0000.0001) %MON dynstat_eta_sd               =   6.1794899424185E-01
(PID.TID 0000.0001) %MON dynstat_eta_del2             =   2.4507495869078E-03
(PID.TID 0000.0001) %MON dynstat_uvel_max             =   1.4560795985944E-01
(PID.TID 0000.0001) %MON dynstat_uvel_min             =  -1.5094710088245E-01
(PID.TID 0000.0001) %MON dynstat_uvel_mean            =   1.6534717676847E-03
(PID.TID 0000.0001) %MON dynstat_uvel_sd              =   2.0442115724796E-02
(PID.TID 0000.0001) %MON dynstat_uvel_del2            =   1.2587852950583E-04
(PID.TID 0000.0001) %MON dynstat_vvel_max             =   1.4214256750113E-01
(PID.TID 0000.0001) %MON dynstat_vvel_min             =  -1.0329898169771E-01
(PID.TID 0000.0001) %MON dynstat_vvel_mean            =   2.7934069185017E-04
(PID.TID 0000.0001) %MON dynstat_vvel_sd              =   1.1875855437880E-02
(PID.TID 0000.0001) %MON dynstat_vvel_del2            =   9.2107288526624E-05
(PID.TID 0000.0001) %MON dynstat_wvel_max             =   1.1907628476001E-04
(PID.TID 0000.0001) %MON dynstat_wvel_min             =  -1.3247735692318E-04
(PID.TID 0000.0001) %MON dynstat_wvel_mean            =   2.0597356749180E-23
(PID.TID 0000.0001) %MON dynstat_wvel_sd              =   1.7352524598539E-05
(PID.TID 0000.0001) %MON dynstat_wvel_del2            =   1.6659686664131E-07
(PID.TID 0000.0001) %MON dynstat_theta_max            =   3.0661098813371E+01
(PID.TID 0000.0001) %MON dynstat_theta_min            =  -1.9678014706015E+00
(PID.TID 0000.0001) %MON dynstat_theta_mean           =   3.6530912620653E+00
(PID.TID 0000.0001) %MON dynstat_theta_sd             =   4.4237368706511E+00
(PID.TID 0000.0001) %MON dynstat_theta_del2           =   4.9309395328896E-03
(PID.TID 0000.0001) %MON dynstat_salt_max             =   3.7495674704150E+01
(PID.TID 0000.0001) %MON dynstat_salt_min             =   2.9902146841147E+01
(PID.TID 0000.0001) %MON dynstat_salt_mean            =   3.4747941934770E+01
(PID.TID 0000.0001) %MON dynstat_salt_sd              =   2.9634455306583E-01
(PID.TID 0000.0001) %MON dynstat_salt_del2            =   9.9133046249052E-04
(PID.TID 0000.0001) %MON dynstat_sst_max              =   3.0661098813371E+01
(PID.TID 0000.0001) %MON dynstat_sst_min              =  -1.9678014706015E+00
(PID.TID 0000.0001) %MON dynstat_sst_mean             =   1.9013436486565E+01
(PID.TID 0000.0001) %MON dynstat_sst_sd               =   9.0596390145473E+00
(PID.TID 0000.0001) %MON dynstat_sst_del2             =   2.7886571145667E-02
(PID.TID 0000.0001) %MON dynstat_sss_max              =   3.7469558600714E+01
(PID.TID 0000.0001) %MON dynstat_sss_min              =   2.9902146841147E+01
(PID.TID 0000.0001) %MON dynstat_sss_mean             =   3.4871133387511E+01
(PID.TID 0000.0001) %MON dynstat_sss_sd               =   9.8026922583538E-01
(PID.TID 0000.0001) %MON dynstat_sss_del2             =   7.9823323270299E-03
(PID.TID 0000.0001) %MON forcing_qnet_max             =   3.2207626851400E+02
(PID.TID 0000.0001) %MON forcing_qnet_min             =  -1.6894333852132E+02
(PID.TID 0000.0001) %MON forcing_qnet_mean            =  -1.1061837483797E+01
(PID.TID 0000.0001) %MON forcing_qnet_sd              =   6.2224367755894E+01
(PID.TID 0000.0001) %MON forcing_qnet_del2            =   8.8801072466035E-01
(PID.TID 0000.0001) %MON forcing_qsw_max              =   0.0000000000000E+00
(PID.TID 0000.0001) %MON forcing_qsw_min              =   0.0000000000000E+00
(PID.TID 0000.0001) %MON forcing_qsw_mean             =   0.0000000000000E+00
(PID.TID 0000.0001) %MON forcing_qsw_sd               =   0.0000000000000E+00
(PID.TID 0000.0001) %MON forcing_qsw_del2             =   0.0000000000000E+00
(PID.TID 0000.0001) %MON forcing_empmr_max            =   6.9206679616703E-05
(PID.TID 0000.0001) %MON forcing_empmr_min            =  -7.6478364500569E-05
(PID.TID 0000.0001) %MON forcing_empmr_mean           =   7.7323987854276E-07
(PID.TID 0000.0001) %MON forcing_empmr_sd             =   2.6990094911657E-05
(PID.TID 0000.0001) %MON forcing_empmr_del2           =   3.5359407078538E-07
(PID.TID 0000.0001) %MON forcing_fu_max               =   3.2454732954502E-01
(PID.TID 0000.0001) %MON forcing_fu_min               =  -2.8573253403107E-01
(PID.TID 0000.0001) %MON forcing_fu_mean              =   1.8855336279595E-02
(PID.TID 0000.0001) %MON forcing_fu_sd                =   9.4747636482451E-02
(PID.TID 0000.0001) %MON forcing_fu_del2              =   7.0862449984251E-04
(PID.TID 0000.0001) %MON forcing_fv_max               =   1.5510848760605E-01
(PID.TID 0000.0001) %MON forcing_fv_min               =  -1.8036078512669E-01
(PID.TID 0000.0001) %MON forcing_fv_mean              =  -7.3522934905635E-03
(PID.TID 0000.0001) %MON forcing_fv_sd                =   4.2103479761575E-02
(PID.TID 0000.0001) %MON forcing_fv_del2              =   4.7196348005752E-04
(PID.TID 0000.0001) %MON trAdv_CFL_u_max              =   4.4158402471722E-02
(PID.TID 0000.0001) %MON trAdv_CFL_v_max              =   2.7549011312112E-02
(PID.TID 0000.0001) %MON trAdv_CFL_w_max              =   4.2120666963691E-02
(PID.TID 0000.0001) %MON advcfl_uvel_max              =   4.4539479685112E-02
(PID.TID 0000.0001) %MON advcfl_vvel_max              =   2.7616021172764E-02
(PID.TID 0000.0001) %MON advcfl_wvel_max              =   4.9240596870826E-02
(PID.TID 0000.0001) %MON advcfl_W_hf_max              =   5.9792153343146E-02
(PID.TID 0000.0001) %MON pe_b_mean                    =   4.8866186486411E-04
(PID.TID 0000.0001) %MON ke_max                       =   1.8218726490422E-02
(PID.TID 0000.0001) %MON ke_mean                      =   2.5444358324528E-04
(PID.TID 0000.0001) %MON ke_vol                       =   1.3226782436723E+18
(PID.TID 0000.0001) %MON vort_r_min                   =  -4.5384226992661E-07
(PID.TID 0000.0001) %MON vort_r_max                   =   6.0553169449139E-07
(PID.TID 0000.0001) %MON vort_a_mean                  =  -2.5274808103324E-05
(PID.TID 0000.0001) %MON vort_a_sd                    =   7.3604436730687E-05
(PID.TID 0000.0001) %MON vort_p_mean                  =  -3.1845656688856E-05
(PID.TID 0000.0001) %MON vort_p_sd                    =   1.3162345792143E-04
(PID.TID 0000.0001) %MON surfExpan_theta_mean         =  -1.2191093348127E-07
(PID.TID 0000.0001) %MON surfExpan_salt_mean          =   1.2532602536192E-07
(PID.TID 0000.0001) // =======================================================
(PID.TID 0000.0001) // End MONITOR dynamic field statistics
(PID.TID 0000.0001) // =======================================================
 EXTERNAL_FIELDS_LOAD,        59 : iP,iLd,i0,i1=    2    3    2    3 ; Wght=  0.5333333333  0.4666666667
 EXTERNAL_FIELDS_LOAD: (fu0,1),fu,fv= -1.4435E-02 -2.7199E-02 -2.0391E-02 -9.6754E-03
 EXTERNAL_FIELDS_LOAD: SST,SSS,Q,E-P= -3.6948E-01  3.4495E+01  2.2877E+02  8.7055E-06
DEBUG_STATS_RL:          Uvel (THERMODYNAMICS)  min= -1.50947100882452E-01
DEBUG_STATS_RL:          Uvel (THERMODYNAMICS)  max=  1.45607959859443E-01
DEBUG_STATS_RL:          Uvel (THERMODYNAMICS) mean=  5.63253999574392E-03
DEBUG_STATS_RL:          Uvel (THERMODYNAMICS) S.D.=  2.60571597325784E-02
DEBUG_STATS_RL:          Vvel (THERMODYNAMICS)  min= -1.03298981697710E-01
DEBUG_STATS_RL:          Vvel (THERMODYNAMICS)  max=  1.42142567501126E-01
DEBUG_STATS_RL:          Vvel (THERMODYNAMICS) mean=  1.00879998082289E-03
DEBUG_STATS_RL:          Vvel (THERMODYNAMICS) S.D.=  1.68772034761522E-02
DEBUG_STATS_RL:          Wvel (THERMODYNAMICS)  min= -1.32477356923180E-04
DEBUG_STATS_RL:          Wvel (THERMODYNAMICS)  max=  1.19076284760008E-04
DEBUG_STATS_RL:          Wvel (THERMODYNAMICS) mean= -1.07654406254323E-07
DEBUG_STATS_RL:          Wvel (THERMODYNAMICS) S.D.=  1.48608766869333E-05
DEBUG_STATS_RL:         Theta (THERMODYNAMICS)  min= -1.96617445243964E+00
DEBUG_STATS_RL:         Theta (THERMODYNAMICS)  max=  3.06715266613973E+01
DEBUG_STATS_RL:         Theta (THERMODYNAMICS) mean=  3.24933345834331E+00
DEBUG_STATS_RL:         Theta (THERMODYNAMICS) S.D.=  5.87740040287456E+00
DEBUG_STATS_RL:          Salt (THERMODYNAMICS)  min=  3.00000000000000E-02
DEBUG_STATS_RL:          Salt (THERMODYNAMICS)  max=  3.74959036492356E+01
DEBUG_STATS_RL:          Salt (THERMODYNAMICS) mean=  1.88748076336071E+01
DEBUG_STATS_RL:          Salt (THERMODYNAMICS) S.D.=  1.73003372843761E+01
DEBUG_STATS_RL:         GtNm1 (THERMODYNAMICS)  min= -2.77919963666185E-06
DEBUG_STATS_RL:         GtNm1 (THERMODYNAMICS)  max=  2.36371282249368E-06
DEBUG_STATS_RL:         GtNm1 (THERMODYNAMICS) mean=  4.11839627169840E-09
DEBUG_STATS_RL:         GtNm1 (THERMODYNAMICS) S.D.=  1.87778429103665E-07
DEBUG_STATS_RL:         GsNm1 (THERMODYNAMICS)  min= -4.91286332940485E-07
DEBUG_STATS_RL:         GsNm1 (THERMODYNAMICS)  max=  3.55532558369879E-07
DEBUG_STATS_RL:         GsNm1 (THERMODYNAMICS) mean= -4.37721860498752E-10
DEBUG_STATS_RL:         GsNm1 (THERMODYNAMICS) S.D.=  1.91734215466603E-08
DEBUG_STATS_RL:                EtaN (DYNAMICS)  min= -2.08003499438190E+00
DEBUG_STATS_RL:                EtaN (DYNAMICS)  max=  1.19688490440202E+00
DEBUG_STATS_RL:                EtaN (DYNAMICS) mean= -1.57595006272821E-01
DEBUG_STATS_RL:                EtaN (DYNAMICS) S.D.=  7.13259022634506E-01
DEBUG_STATS_RL:                Uvel (DYNAMICS)  min= -1.50947100882452E-01
DEBUG_STATS_RL:                Uvel (DYNAMICS)  max=  1.45607959859443E-01
DEBUG_STATS_RL:                Uvel (DYNAMICS) mean=  5.63253999574392E-03
DEBUG_STATS_RL:                Uvel (DYNAMICS) S.D.=  2.60571597325784E-02
DEBUG_STATS_RL:                Vvel (DYNAMICS)  min= -1.03298981697710E-01
DEBUG_STATS_RL:                Vvel (DYNAMICS)  max=  1.42142567501126E-01
DEBUG_STATS_RL:                Vvel (DYNAMICS) mean=  1.00879998082289E-03
DEBUG_STATS_RL:                Vvel (DYNAMICS) S.D.=  1.68772034761522E-02
DEBUG_STATS_RL:                Wvel (DYNAMICS)  min= -1.32477356923180E-04
DEBUG_STATS_RL:                Wvel (DYNAMICS)  max=  1.19076284760008E-04
DEBUG_STATS_RL:                Wvel (DYNAMICS) mean= -1.07654406254323E-07
DEBUG_STATS_RL:                Wvel (DYNAMICS) S.D.=  1.48608766869333E-05
DEBUG_STATS_RL:               Theta (DYNAMICS)  min= -1.96617445243964E+00
DEBUG_STATS_RL:               Theta (DYNAMICS)  max=  3.06715266613973E+01
DEBUG_STATS_RL:               Theta (DYNAMICS) mean=  3.24933345834331E+00
DEBUG_STATS_RL:               Theta (DYNAMICS) S.D.=  5.87740040287456E+00
DEBUG_STATS_RL:                Salt (DYNAMICS)  min=  3.00000000000000E-02
DEBUG_STATS_RL:                Salt (DYNAMICS)  max=  3.74959036492356E+01
DEBUG_STATS_RL:                Salt (DYNAMICS) mean=  1.88748076336071E+01
DEBUG_STATS_RL:                Salt (DYNAMICS) S.D.=  1.73003372843761E+01
DEBUG_STATS_RL:                  Gu (DYNAMICS)  min= -1.46517393942084E-01
DEBUG_STATS_RL:                  Gu (DYNAMICS)  max=  1.51442777680545E-01
DEBUG_STATS_RL:                  Gu (DYNAMICS) mean=  5.74052664015826E-03
DEBUG_STATS_RL:                  Gu (DYNAMICS) S.D.=  2.64324906236718E-02
DEBUG_STATS_RL:                  Gv (DYNAMICS)  min= -1.07597195279854E-01
DEBUG_STATS_RL:                  Gv (DYNAMICS)  max=  1.43829269469490E-01
DEBUG_STATS_RL:                  Gv (DYNAMICS) mean=  3.43495522865408E-03
DEBUG_STATS_RL:                  Gv (DYNAMICS) S.D.=  1.79968755446845E-02
DEBUG_STATS_RL:               GuNm1 (DYNAMICS)  min= -9.93660835677720E-06
DEBUG_STATS_RL:               GuNm1 (DYNAMICS)  max=  9.46250416239334E-06
DEBUG_STATS_RL:               GuNm1 (DYNAMICS) mean=  1.19241680027581E-08
DEBUG_STATS_RL:               GuNm1 (DYNAMICS) S.D.=  1.21418085532564E-06
DEBUG_STATS_RL:               GvNm1 (DYNAMICS)  min= -9.83193610153498E-06
DEBUG_STATS_RL:               GvNm1 (DYNAMICS)  max=  1.59722141350148E-05
DEBUG_STATS_RL:               GvNm1 (DYNAMICS) mean=  7.46307457905693E-07
DEBUG_STATS_RL:               GvNm1 (DYNAMICS) S.D.=  2.65940104440780E-06
DEBUG_STATS_RL:               GtNm1 (DYNAMICS)  min= -2.77919963666185E-06
DEBUG_STATS_RL:               GtNm1 (DYNAMICS)  max=  2.36371282249368E-06
DEBUG_STATS_RL:               GtNm1 (DYNAMICS) mean=  4.11839627169840E-09
DEBUG_STATS_RL:               GtNm1 (DYNAMICS) S.D.=  1.87778429103665E-07
DEBUG_STATS_RL:               GsNm1 (DYNAMICS)  min= -4.91286332940485E-07
DEBUG_STATS_RL:               GsNm1 (DYNAMICS)  max=  3.55532558369879E-07
DEBUG_STATS_RL:               GsNm1 (DYNAMICS) mean= -4.37721860498752E-10
DEBUG_STATS_RL:               GsNm1 (DYNAMICS) S.D.=  1.91734215466603E-08
DEBUG_STATS_RL:    cg2d_b (SOLVE_FOR_PRESSURE)  min= -1.92650974369529E+04
DEBUG_STATS_RL:    cg2d_b (SOLVE_FOR_PRESSURE)  max=  2.60629253968886E+04
DEBUG_STATS_RL:    cg2d_b (SOLVE_FOR_PRESSURE) mean=  4.27508547203989E+00
DEBUG_STATS_RL:    cg2d_b (SOLVE_FOR_PRESSURE) S.D.=  4.03196720769611E+03
 cg2d: Sum(rhs),rhsMax =   3.79728012763793E-01  1.71188272161423E+00
(PID.TID 0000.0001)  cg2d: iter=     1 ; resid.=  2.34525855692992E-01
(PID.TID 0000.0001)  cg2d: iter=     2 ; resid.=  1.77462726874358E-01
(PID.TID 0000.0001)  cg2d: iter=     3 ; resid.=  1.55504560447092E-01
(PID.TID 0000.0001)  cg2d: iter=     4 ; resid.=  1.34261376797017E-01
(PID.TID 0000.0001)  cg2d: iter=     5 ; resid.=  1.00226926706226E-01
(PID.TID 0000.0001)  cg2d: iter=     6 ; resid.=  7.65518971132877E-02
(PID.TID 0000.0001)  cg2d: iter=     7 ; resid.=  6.54173008578657E-02
(PID.TID 0000.0001)  cg2d: iter=     8 ; resid.=  5.85825310740060E-02
(PID.TID 0000.0001)  cg2d: iter=     9 ; resid.=  4.89464132025464E-02
(PID.TID 0000.0001)  cg2d: iter=    10 ; resid.=  4.52874142777950E-02
(PID.TID 0000.0001)  cg2d: iter=    11 ; resid.=  4.22215474738473E-02
(PID.TID 0000.0001)  cg2d: iter=    12 ; resid.=  3.59525114726409E-02
(PID.TID 0000.0001)  cg2d: iter=    13 ; resid.=  2.91899400086380E-02
(PID.TID 0000.0001)  cg2d: iter=    14 ; resid.=  2.46019505473621E-02
(PID.TID 0000.0001)  cg2d: iter=    15 ; resid.=  2.13989450313802E-02
(PID.TID 0000.0001)  cg2d: iter=    16 ; resid.=  1.82372194791043E-02
(PID.TID 0000.0001)  cg2d: iter=    17 ; resid.=  1.57234607392485E-02
(PID.TID 0000.0001)  cg2d: iter=    18 ; resid.=  1.33672551372237E-02
(PID.TID 0000.0001)  cg2d: iter=    19 ; resid.=  1.06660652002626E-02
(PID.TID 0000.0001)  cg2d: iter=    20 ; resid.=  9.03572156471644E-03
(PID.TID 0000.0001)  cg2d: iter=    21 ; resid.=  7.62458643825621E-03
(PID.TID 0000.0001)  cg2d: iter=    22 ; resid.=  6.53811672866664E-03
(PID.TID 0000.0001)  cg2d: iter=    23 ; resid.=  5.14169327331915E-03
(PID.TID 0000.0001)  cg2d: iter=    24 ; resid.=  4.37737845109769E-03
(PID.TID 0000.0001)  cg2d: iter=    25 ; resid.=  3.37420937003503E-03
(PID.TID 0000.0001)  cg2d: iter=    26 ; resid.=  2.75769151200655E-03
(PID.TID 0000.0001)  cg2d: iter=    27 ; resid.=  2.39291263955666E-03
(PID.TID 0000.0001)  cg2d: iter=    28 ; resid.=  2.08383767804458E-03
(PID.TID 0000.0001)  cg2d: iter=    29 ; resid.=  1.80382118375420E-03
(PID.TID 0000.0001)  cg2d: iter=    30 ; resid.=  1.47382352421758E-03
(PID.TID 0000.0001)  cg2d: iter=    31 ; resid.=  1.22724585865389E-03
(PID.TID 0000.0001)  cg2d: iter=    32 ; resid.=  9.65922985301622E-04
(PID.TID 0000.0001)  cg2d: iter=    33 ; resid.=  8.60082098674925E-04
(PID.TID 0000.0001)  cg2d: iter=    34 ; resid.=  7.40383149189408E-04
(PID.TID 0000.0001)  cg2d: iter=    35 ; resid.=  6.07540515834369E-04
(PID.TID 0000.0001)  cg2d: iter=    36 ; resid.=  4.83027145614931E-04
(PID.TID 0000.0001)  cg2d: iter=    37 ; resid.=  3.80053669009469E-04
(PID.TID 0000.0001)  cg2d: iter=    38 ; resid.=  2.94071558082299E-04
(PID.TID 0000.0001)  cg2d: iter=    39 ; resid.=  2.48925190079690E-04
(PID.TID 0000.0001)  cg2d: iter=    40 ; resid.=  2.14906633111509E-04
(PID.TID 0000.0001)  cg2d: iter=    41 ; resid.=  1.92877111020139E-04
(PID.TID 0000.0001)  cg2d: iter=    42 ; resid.=  1.75635849142044E-04
(PID.TID 0000.0001)  cg2d: iter=    43 ; resid.=  1.50855486530117E-04
(PID.TID 0000.0001)  cg2d: iter=    44 ; resid.=  1.15233918186452E-04
(PID.TID 0000.0001)  cg2d: iter=    45 ; resid.=  8.74573674446482E-05
(PID.TID 0000.0001)  cg2d: iter=    46 ; resid.=  7.09370305805514E-05
(PID.TID 0000.0001)  cg2d: iter=    47 ; resid.=  5.85892685019711E-05
(PID.TID 0000.0001)  cg2d: iter=    48 ; resid.=  4.92265898296719E-05
(PID.TID 0000.0001)  cg2d: iter=    49 ; resid.=  3.68050830644206E-05
(PID.TID 0000.0001)  cg2d: iter=    50 ; resid.=  2.77076960715292E-05
(PID.TID 0000.0001)  cg2d: iter=    51 ; resid.=  2.08304185774684E-05
(PID.TID 0000.0001)  cg2d: iter=    52 ; resid.=  1.55325948250775E-05
(PID.TID 0000.0001)  cg2d: iter=    53 ; resid.=  1.29118461915352E-05
(PID.TID 0000.0001)  cg2d: iter=    54 ; resid.=  1.04247111518479E-05
(PID.TID 0000.0001)  cg2d: iter=    55 ; resid.=  9.05957255739370E-06
(PID.TID 0000.0001)  cg2d: iter=    56 ; resid.=  7.85136444491460E-06
(PID.TID 0000.0001)  cg2d: iter=    57 ; resid.=  6.50219338498183E-06
(PID.TID 0000.0001)  cg2d: iter=    58 ; resid.=  5.13351723082205E-06
(PID.TID 0000.0001)  cg2d: iter=    59 ; resid.=  4.14791795265237E-06
(PID.TID 0000.0001)  cg2d: iter=    60 ; resid.=  3.22170785274954E-06
(PID.TID 0000.0001)  cg2d: iter=    61 ; resid.=  2.56641760495976E-06
(PID.TID 0000.0001)  cg2d: iter=    62 ; resid.=  2.05663825602235E-06
(PID.TID 0000.0001)  cg2d: iter=    63 ; resid.=  1.67866597353423E-06
(PID.TID 0000.0001)  cg2d: iter=    64 ; resid.=  1.29297980292355E-06
(PID.TID 0000.0001)  cg2d: iter=    65 ; resid.=  1.03326728656671E-06
(PID.TID 0000.0001)  cg2d: iter=    66 ; resid.=  8.67076786320711E-07
(PID.TID 0000.0001)  cg2d: iter=    67 ; resid.=  7.85818998145248E-07
(PID.TID 0000.0001)  cg2d: iter=    68 ; resid.=  6.46975189645662E-07
(PID.TID 0000.0001)  cg2d: iter=    69 ; resid.=  5.08943487738678E-07
(PID.TID 0000.0001)  cg2d: iter=    70 ; resid.=  3.87609067538734E-07
(PID.TID 0000.0001)  cg2d: iter=    71 ; resid.=  3.26721979316261E-07
(PID.TID 0000.0001)  cg2d: iter=    72 ; resid.=  2.82029737221003E-07
(PID.TID 0000.0001)  cg2d: iter=    73 ; resid.=  2.34213920325974E-07
(PID.TID 0000.0001)  cg2d: iter=    74 ; resid.=  1.78838209837354E-07
(PID.TID 0000.0001)  cg2d: iter=    75 ; resid.=  1.27625806250462E-07
(PID.TID 0000.0001)  cg2d: iter=    76 ; resid.=  9.73095854167493E-08
(PID.TID 0000.0001)  cg2d: iter=    77 ; resid.=  7.95659881907070E-08
(PID.TID 0000.0001)  cg2d: iter=    78 ; resid.=  6.81809552521638E-08
(PID.TID 0000.0001)  cg2d: iter=    79 ; resid.=  6.59944552911869E-08
(PID.TID 0000.0001)  cg2d: iter=    80 ; resid.=  6.29311972873182E-08
(PID.TID 0000.0001)  cg2d: iter=    81 ; resid.=  5.67785838783457E-08
(PID.TID 0000.0001)  cg2d: iter=    82 ; resid.=  4.95221161494204E-08
(PID.TID 0000.0001)  cg2d: iter=    83 ; resid.=  3.90695514177141E-08
(PID.TID 0000.0001)  cg2d: iter=    84 ; resid.=  3.09041468045882E-08
(PID.TID 0000.0001)  cg2d: iter=    85 ; resid.=  2.27117857190428E-08
(PID.TID 0000.0001)  cg2d: iter=    86 ; resid.=  1.83286195349603E-08
(PID.TID 0000.0001)  cg2d: iter=    87 ; resid.=  1.45621745480453E-08
(PID.TID 0000.0001)  cg2d: iter=    88 ; resid.=  1.09469750793102E-08
(PID.TID 0000.0001)  cg2d: iter=    89 ; resid.=  8.90637904086193E-09
(PID.TID 0000.0001)  cg2d: iter=    90 ; resid.=  7.90254674737940E-09
(PID.TID 0000.0001)  cg2d: iter=    91 ; resid.=  6.48013804873624E-09
(PID.TID 0000.0001)  cg2d: iter=    92 ; resid.=  5.08264249580699E-09
(PID.TID 0000.0001)  cg2d: iter=    93 ; resid.=  3.99771720710307E-09
(PID.TID 0000.0001)  cg2d: iter=    94 ; resid.=  3.08499858395350E-09
(PID.TID 0000.0001)  cg2d: iter=    95 ; resid.=  2.52358694878024E-09
(PID.TID 0000.0001)  cg2d: iter=    96 ; resid.=  1.80298302493040E-09
(PID.TID 0000.0001)  cg2d: iter=    97 ; resid.=  1.24528459444363E-09
(PID.TID 0000.0001)  cg2d: iter=    98 ; resid.=  8.49096974935178E-10
(PID.TID 0000.0001)  cg2d: iter=    99 ; resid.=  6.19394303579579E-10
(PID.TID 0000.0001)  cg2d: iter=   100 ; resid.=  4.89709062190024E-10
(PID.TID 0000.0001)  cg2d: iter=   101 ; resid.=  3.70833192659640E-10
(PID.TID 0000.0001)  cg2d: iter=   102 ; resid.=  2.79416018840691E-10
(PID.TID 0000.0001)  cg2d: iter=   103 ; resid.=  2.21989677386472E-10
(PID.TID 0000.0001)  cg2d: iter=   104 ; resid.=  1.89529727676997E-10
(PID.TID 0000.0001)  cg2d: iter=   105 ; resid.=  1.66370898307583E-10
(PID.TID 0000.0001)  cg2d: iter=   106 ; resid.=  1.49824605333630E-10
(PID.TID 0000.0001)  cg2d: iter=   107 ; resid.=  1.18034392130741E-10
(PID.TID 0000.0001)  cg2d: iter=   108 ; resid.=  1.00809303918533E-10
(PID.TID 0000.0001)  cg2d: iter=   109 ; resid.=  7.70032097378003E-11
(PID.TID 0000.0001)  cg2d: iter=   110 ; resid.=  5.96180084347124E-11
(PID.TID 0000.0001)  cg2d: iter=   111 ; resid.=  5.13614455207392E-11
(PID.TID 0000.0001)  cg2d: iter=   112 ; resid.=  3.98498280891322E-11
(PID.TID 0000.0001)  cg2d: iter=   113 ; resid.=  3.16816664206017E-11
(PID.TID 0000.0001)  cg2d: iter=   114 ; resid.=  2.66472875880737E-11
(PID.TID 0000.0001)  cg2d: iter=   115 ; resid.=  2.17303051005274E-11
(PID.TID 0000.0001)  cg2d: iter=   116 ; resid.=  1.72054341832957E-11
(PID.TID 0000.0001)  cg2d: iter=   117 ; resid.=  1.42040141174517E-11
(PID.TID 0000.0001)  cg2d: iter=   118 ; resid.=  1.15413780830919E-11
(PID.TID 0000.0001)  cg2d: iter=   119 ; resid.=  8.77977151663448E-12
(PID.TID 0000.0001)  cg2d: iter=   120 ; resid.=  6.53951801682095E-12
(PID.TID 0000.0001)  cg2d: iter=   121 ; resid.=  4.58414672556339E-12
(PID.TID 0000.0001)  cg2d: iter=   122 ; resid.=  3.58427475551997E-12
(PID.TID 0000.0001)  cg2d: iter=   123 ; resid.=  2.71124561902469E-12
(PID.TID 0000.0001)  cg2d: iter=   124 ; resid.=  1.99457942759381E-12
(PID.TID 0000.0001)  cg2d: iter=   125 ; resid.=  1.51014062861819E-12
(PID.TID 0000.0001)  cg2d: iter=   126 ; resid.=  1.08248633746276E-12
(PID.TID 0000.0001)  cg2d: iter=   127 ; resid.=  8.22547080461529E-13
(PID.TID 0000.0001)  cg2d: iter=   128 ; resid.=  5.97875575854505E-13
(PID.TID 0000.0001)  cg2d: iter=   129 ; resid.=  4.20190987332031E-13
(PID.TID 0000.0001)  cg2d: iter=   130 ; resid.=  3.35094851940264E-13
(PID.TID 0000.0001)  cg2d: iter=   131 ; resid.=  2.63708361362600E-13
(PID.TID 0000.0001)  cg2d: iter=   132 ; resid.=  2.00089644281786E-13
(PID.TID 0000.0001)  cg2d: iter=   133 ; resid.=  1.53071224883625E-13
(PID.TID 0000.0001)  cg2d: iter=   134 ; resid.=  1.18143043692605E-13
(PID.TID 0000.0001)  cg2d: iter=   135 ; resid.=  8.52033370149986E-14
DEBUG_STATS_RL:    cg2d_x (SOLVE_FOR_PRESSURE)  min= -2.07889612073856E+01
DEBUG_STATS_RL:    cg2d_x (SOLVE_FOR_PRESSURE)  max=  1.19848201722111E+01
DEBUG_STATS_RL:    cg2d_x (SOLVE_FOR_PRESSURE) mean= -1.53994235596426E+00
DEBUG_STATS_RL:    cg2d_x (SOLVE_FOR_PRESSURE) S.D.=  7.12757585774284E+00
(PID.TID 0000.0001)      cg2d_init_res =   3.87970103493231E-01
(PID.TID 0000.0001)      cg2d_iters(min,last) =      -1     135
(PID.TID 0000.0001)      cg2d_last_res =   8.52033370149986E-14
(PID.TID 0000.0001) // =======================================================
(PID.TID 0000.0001) // Begin MONITOR dynamic field statistics
(PID.TID 0000.0001) // =======================================================
(PID.TID 0000.0001) %MON time_tsnumber                =                    60
(PID.TID 0000.0001) %MON time_secondsf                =   5.1840000000000E+06
(PID.TID 0000.0001) %MON dynstat_eta_max              =   1.2216942071571E+00
(PID.TID 0000.0001) %MON dynstat_eta_min              =  -2.1191601638518E+00
(PID.TID 0000.0001) %MON dynstat_eta_mean             =  -4.4605215969749E-03
(PID.TID 0000.0001) %MON dynstat_eta_sd               =   6.2837415385503E-01
(PID.TID 0000.0001) %MON dynstat_eta_del2             =   2.4496330349218E-03
(PID.TID 0000.0001) %MON dynstat_uvel_max             =   1.5081345775339E-01
(PID.TID 0000.0001) %MON dynstat_uvel_min             =  -1.4783565737333E-01
(PID.TID 0000.0001) %MON dynstat_uvel_mean            =   1.8629474898720E-03
(PID.TID 0000.0001) %MON dynstat_uvel_sd              =   2.0431967152551E-02
(PID.TID 0000.0001) %MON dynstat_uvel_del2            =   1.2677104138103E-04
(PID.TID 0000.0001) %MON dynstat_vvel_max             =   1.4116587856562E-01
(PID.TID 0000.0001) %MON dynstat_vvel_min             =  -1.0343570130897E-01
(PID.TID 0000.0001) %MON dynstat_vvel_mean            =   2.7174583183153E-04
(PID.TID 0000.0001) %MON dynstat_vvel_sd              =   1.1833973283574E-02
(PID.TID 0000.0001) %MON dynstat_vvel_del2            =   9.2160128357512E-05
(PID.TID 0000.0001) %MON dynstat_wvel_max             =   1.1786789672446E-04
(PID.TID 0000.0001) %MON dynstat_wvel_min             =  -1.1945057553766E-04
(PID.TID 0000.0001) %MON dynstat_wvel_mean            =   1.9964297677602E-22
(PID.TID 0000.0001) %MON dynstat_wvel_sd              =   1.7151197825665E-05
(PID.TID 0000.0001) %MON dynstat_wvel_del2            =   1.6521479053175E-07
(PID.TID 0000.0001) %MON dynstat_theta_max            =   3.0671526661397E+01
(PID.TID 0000.0001) %MON dynstat_theta_min            =  -1.9661744524396E+00
(PID.TID 0000.0001) %MON dynstat_theta_mean           =   3.6531525906787E+00
(PID.TID 0000.0001) %MON dynstat_theta_sd             =   4.4239534266840E+00
(PID.TID 0000.0001) %MON dynstat_theta_del2           =   4.9377199536703E-03
(PID.TID 0000.0001) %MON dynstat_salt_max             =   3.7495903649236E+01
(PID.TID 0000.0001) %MON dynstat_salt_min             =   2.9906882986837E+01
(PID.TID 0000.0001) %MON dynstat_salt_mean            =   3.4747940879846E+01
(PID.TID 0000.0001) %MON dynstat_salt_sd              =   2.9634531991671E-01
(PID.TID 0000.0001) %MON dynstat_salt_del2            =   9.9226393568730E-04
(PID.TID 0000.0001) %MON dynstat_sst_max              =   3.0671526661397E+01
(PID.TID 0000.0001) %MON dynstat_sst_min              =  -1.9661744524396E+00
(PID.TID 0000.0001) %MON dynstat_sst_mean             =   1.9019405882823E+01
(PID.TID 0000.0001) %MON dynstat_sst_sd               =   9.0637340399870E+00
(PID.TID 0000.0001) %MON dynstat_sst_del2             =   2.7956719368592E-02
(PID.TID 0000.0001) %MON dynstat_sss_max              =   3.7470527517851E+01
(PID.TID 0000.0001) %MON dynstat_sss_min              =   2.9906882986837E+01
(PID.TID 0000.0001) %MON dynstat_sss_mean             =   3.4870811067029E+01
(PID.TID 0000.0001) %MON dynstat_sss_sd               =   9.8061045038367E-01
(PID.TID 0000.0001) %MON dynstat_sss_del2             =   8.0009239492735E-03
(PID.TID 0000.0001) %MON forcing_qnet_max             =   3.1927811686198E+02
(PID.TID 0000.0001) %MON forcing_qnet_min             =  -1.6864405924479E+02
(PID.TID 0000.0001) %MON forcing_qnet_mean            =  -1.0838497984171E+01
(PID.TID 0000.0001) %MON forcing_qnet_sd              =   6.1023027857854E+01
(PID.TID 0000.0001) %MON forcing_qnet_del2            =   8.8444669970173E-01
(PID.TID 0000.0001) %MON forcing_qsw_max              =   0.0000000000000E+00
(PID.TID 0000.0001) %MON forcing_qsw_min              =   0.0000000000000E+00
(PID.TID 0000.0001) %MON forcing_qsw_mean             =   0.0000000000000E+00
(PID.TID 0000.0001) %MON forcing_qsw_sd               =   0.0000000000000E+00
(PID.TID 0000.0001) %MON forcing_qsw_del2             =   0.0000000000000E+00
(PID.TID 0000.0001) %MON forcing_empmr_max            =   6.9200923273153E-05
(PID.TID 0000.0001) %MON forcing_empmr_min            =  -7.6877544093653E-05
(PID.TID 0000.0001) %MON forcing_empmr_mean           =   7.6014994766839E-07
(PID.TID 0000.0001) %MON forcing_empmr_sd             =   2.6929596826470E-05
(PID.TID 0000.0001) %MON forcing_empmr_del2           =   3.5385255820596E-07
(PID.TID 0000.0001) %MON forcing_fu_max               =   3.2648874521255E-01
(PID.TID 0000.0001) %MON forcing_fu_min               =  -2.9111716349920E-01
(PID.TID 0000.0001) %MON forcing_fu_mean              =   1.8949535869053E-02
(PID.TID 0000.0001) %MON forcing_fu_sd                =   9.5028365431322E-02
(PID.TID 0000.0001) %MON forcing_fu_del2              =   7.1121052638075E-04
(PID.TID 0000.0001) %MON forcing_fv_max               =   1.5403114557266E-01
(PID.TID 0000.0001) %MON forcing_fv_min               =  -1.7887474894524E-01
(PID.TID 0000.0001) %MON forcing_fv_mean              =  -7.3627218405330E-03
(PID.TID 0000.0001) %MON forcing_fv_sd                =   4.1994212761373E-02
(PID.TID 0000.0001) %MON forcing_fv_del2              =   4.6991047524395E-04
(PID.TID 0000.0001) %MON trAdv_CFL_u_max              =   4.4548525971987E-02
(PID.TID 0000.0001) %MON trAdv_CFL_v_max              =   2.7434827975684E-02
(PID.TID 0000.0001) %MON trAdv_CFL_w_max              =   4.1854507340202E-02
(PID.TID 0000.0001) %MON advcfl_uvel_max              =   4.4369043273072E-02
(PID.TID 0000.0001) %MON advcfl_vvel_max              =   2.7426266176802E-02
(PID.TID 0000.0001) %MON advcfl_wvel_max              =   4.7850084714030E-02
(PID.TID 0000.0001) %MON advcfl_W_hf_max              =   5.8103674295608E-02
(PID.TID 0000.0001) %MON pe_b_mean                    =   5.0528884435310E-04
(PID.TID 0000.0001) %MON ke_max                       =   1.8033700324655E-02
(PID.TID 0000.0001) %MON ke_mean                      =   2.5414208905787E-04
(PID.TID 0000.0001) %MON ke_vol                       =   1.3226782436723E+18
(PID.TID 0000.0001) %MON vort_r_min                   =  -4.3870876175919E-07
(PID.TID 0000.0001) %MON vort_r_max                   =   5.8099870034710E-07
(PID.TID 0000.0001) %MON vort_a_mean                  =  -2.5274808079378E-05
(PID.TID 0000.0001) %MON vort_a_sd                    =   7.3604479594269E-05
(PID.TID 0000.0001) %MON vort_p_mean                  =  -3.1845656658684E-05
(PID.TID 0000.0001) %MON vort_p_sd                    =   1.3162347364487E-04
(PID.TID 0000.0001) %MON surfExpan_theta_mean         =   4.5099345630061E-08
(PID.TID 0000.0001) %MON surfExpan_salt_mean          =   5.4309365395002E-08
(PID.TID 0000.0001) // =======================================================
(PID.TID 0000.0001) // End MONITOR dynamic field statistics
(PID.TID 0000.0001) // =======================================================
(PID.TID 0000.0001) // =======================================================
(PID.TID 0000.0001) // Field Current uVel   at iteration         60
(PID.TID 0000.0001) // CMIN =         -1.478356573733349E-01
(PID.TID 0000.0001) // CMAX =          1.424790819140510E-01
(PID.TID 0000.0001) // CINT =          1.075239775138466E-02
(PID.TID 0000.0001) // SYMBOLS (CMIN->CMAX): -abcdefghijklmnopqrstuvwxyz+
(PID.TID 0000.0001) //                  0.0: .
(PID.TID 0000.0001) // RANGE I (Lo:Hi:Step):(     1:    90:     1)
(PID.TID 0000.0001) // RANGE J (Lo:Hi:Step):(    40:     1:    -1)
(PID.TID 0000.0001) // RANGE K (Lo:Hi:Step):(   1:   1:   1)
(PID.TID 0000.0001) // =======================================================
(PID.TID 0000.0001) K =   1
(PID.TID 0000.0001)                I=10      I=20      I=30      I=40      I=50      I=60      I=70      I=80      I=90
(PID.TID 0000.0001) |--J--|123456789|123456789|123456789|123456789|123456789|123456789|123456789|123456789|123456789|
(PID.TID 0000.0001)     40 nnnnn..nmmmmnnonnnn...................................................................mnnn
(PID.TID 0000.0001)     39 mnmmnnopoooppo....n......................................................nnn.........lkikm
(PID.TID 0000.0001)     38 nnonnnnnnnnnn............................................................nnnn.......lkkklm
(PID.TID 0000.0001)     37 opp...................................................................n....ln....lllm..noo
(PID.TID 0000.0001)     36 qp..........................................llm.....................mmllkkjjkm..kilmnopqrr
(PID.TID 0000.0001)     35 po..................................mmm...mmlmnn....llmn............nn.....nmlljjmooopprqp
(PID.TID 0000.0001)     34 ....................................mnm..lnooopp..nllmnnn...................ppoooppqqqqp..
(PID.TID 0000.0001)     33 .....................................nkhkmoqqpqqpopqqqpoooo..................susrrrrqqppo.
(PID.TID 0000.0001)     32 .....................................onnnooqrrsrrrrsssrqqpo.................twxssrrqponom.
(PID.TID 0000.0001)     31 .....................................rppqqqrsssssssttttsrqo...............pw+zwusrqponmn..
(PID.TID 0000.0001)     30 ....................................tutttuuuuttttttuuutsrqo.............svvvvvutsrqpnmmm..
(PID.TID 0000.0001)     29 ..................................rvuuuvvvvwwuutsssssssqpooo............sttsrqonnnnmlllm..
(PID.TID 0000.0001)     28 ................................npssrqrstssssrqpooppppponnnnn..........pqpoonnmlllkkjkmn..
(PID.TID 0000.0001)     27 ...............m...............noppoonnppppoooonnnnooponnnnnnn....mmo..ooooooonnmmmmll....
(PID.TID 0000.0001)     26 ...............oo............lmpsrqonnoppoooopoooopppqqppppoooon..nmnnpqqrqqqqrqqpppon....
(PID.TID 0000.0001)     25 ...............ppo....on....pppputsqonnoooonopoooppppqqqqppooppon....npptusrqqrrqqppon....
(PID.TID 0000.0001)     24 .............pommmo..pom....oo..nmlkijijjkkijkkklmmmmllkkkkkllllmmmn..mjlmnnllnnnlkkln....
(PID.TID 0000.0001)     23 .............hgffhk..jhj....kn...eeecb-bcddbddffghhhihihhiihgghggghjl.....jibeghhgggio....
(PID.TID 0000.0001)     22 m............baaabedcdeg....m..ibbfeca-bcdccddeggihhkkmnmlkjiiihihihjj.......jifddgijopqpm
(PID.TID 0000.0001)     21 nnn.........gffecceefhllo......kinplijhghjjjjjjkkkkillnnonlmmmnnnmmkjk.........jgeimnoqooo
(PID.TID 0000.0001)     20 ono........lknnmlklkmprpn.........qqpoiompqqppoonomkllllmlkklmonnmmkjk..........kfjlmnommn
(PID.TID 0000.0001)     19 npp........jilmmnoollnomlno....lp......qnqttrrqpopollljjjihggggghiihgi............kjjkkjjk
(PID.TID 0000.0001)     18 imo........gddeefhijjikiikmnnnlkn....oqpkorqoqpnmnnmlkjiihgfdddcdffeefk...........kihhhhgg
(PID.TID 0000.0001)     17 gjl..........gffgfgilljjjllmmnl......qmmknonmppnljklllljiihgffedeffffeg..........omihgfffe
(PID.TID 0000.0001)     16 ijk.......n..ljjigjkmpmklmoono........mlmoonnorpnkjklmmlkkkjjjjijkjkjjjk.........onkiihiii
(PID.TID 0000.0001)     15 llkk.....oo..pnmmlmlnonmmoqpp..........nnpnopprtqmlnoonnmmmmmlmnnmmmnmmmm.......nnnmllllll
(PID.TID 0000.0001)     14 mlki.....pnqqqqqppqpqponnopoo..........ppooqpsstsqprrrqpppppnnoppooooonnm......rqpppoonmmm
(PID.TID 0000.0001)     13 omkj.....onnppqppprrqonnoomlm..........pqqqsqrrrrrrrssrrstsssrqqppppppomn.....ppqqpqrqpppo
(PID.TID 0000.0001)     12 qommjjkoqqqqqppppppqqpppponmmoooop.....oqrpmnonpqqqqpqqqrssstsrqppqqponm......mpqrrsssssrr
(PID.TID 0000.0001)     11 rqppomnqrtuuuussrrssrqqqqpooooooonm...onppp..mlnnnnnnnnnnopppqqponopponm.....moqrsstttssrr
(PID.TID 0000.0001)     10 rqqqqrtuuwxyxwwuuuuusrrrrqqpopooomlm..nnnnj..mlllklmmmmmllmnnnooonnooonn...llnpqqsssttsssr
(PID.TID 0000.0001)      9 srrsssttuwyxvvuuttutsrrsssrrqqppppoonmonnn..illmnnnnnmmnnmmmnnnnnnnnnnmj..kmpqqrrrrssssttt
(PID.TID 0000.0001)      8 tttuutsrstuuttsstutttttttttttssssstuuutsrrxutrqqrrrrrqqqqqqppppppppooonl..tutssttrrrrrsttt
(PID.TID 0000.0001)      7 ttutsrrrrrrssrrrttrsutssssttttttuuwxxwwvvvxwvutuuuvvwvvuttssssssssssrrrrrvywvuvuusrrqqrrss
(PID.TID 0000.0001)      6 rrqqqqqqqqqqqqqqrssrrrqrrrrrstttuuuuuuuvvwxwvvvwwwwwxxwwvutstttttuuuuutuvwxyyyxwusrrqqqqqr
(PID.TID 0000.0001)      5 nnnnooppppooonnoppqqpppoooppqqrrqqqqqrssuuvvvvvvvvvvvutttstttttttttttuuuutttuuutsqqppppoon
(PID.TID 0000.0001)      4 lllllmmnnnnnnnnnnoooonnnnmmmmmmmlmmnnooopqrrrssssrrrqppppqrrrrrrrrrrrrrqpo...nppooonnnnmml
(PID.TID 0000.0001)      3 mmmmmlllmm.............................mmnnooooooonnnnnnooppppppppoonnnnn...noonmmnnnoonnm
(PID.TID 0000.0001)      2 ...........................................mmllmmmllllmmmnnnnnnn...mmm......mllllmmmmnn...
(PID.TID 0000.0001)      1 ..........................................................................................
(PID.TID 0000.0001) // =======================================================
(PID.TID 0000.0001) // END OF FIELD                                          =
(PID.TID 0000.0001) // =======================================================
(PID.TID 0000.0001) 
(PID.TID 0000.0001) // =======================================================
(PID.TID 0000.0001) // Field Current vVel   at iteration         60
(PID.TID 0000.0001) // CMIN =         -1.034357013089725E-01
(PID.TID 0000.0001) // CMAX =          1.411658785656174E-01
(PID.TID 0000.0001) // CINT =          9.059317773132961E-03
(PID.TID 0000.0001) // SYMBOLS (CMIN->CMAX): -abcdefghijklmnopqrstuvwxyz+
(PID.TID 0000.0001) //                  0.0: .
(PID.TID 0000.0001) // RANGE I (Lo:Hi:Step):(     1:    90:     1)
(PID.TID 0000.0001) // RANGE J (Lo:Hi:Step):(    40:     1:    -1)
(PID.TID 0000.0001) // RANGE K (Lo:Hi:Step):(   1:   1:   1)
(PID.TID 0000.0001) // =======================================================
(PID.TID 0000.0001) K =   1
(PID.TID 0000.0001)                I=10      I=20      I=30      I=40      I=50      I=60      I=70      I=80      I=90
(PID.TID 0000.0001) |--J--|123456789|123456789|123456789|123456789|123456789|123456789|123456789|123456789|123456789|
(PID.TID 0000.0001)     40 jkllk.kijkllmm...kk..................................................................mmmmk
(PID.TID 0000.0001)     39 kllmlkjjkklll...........................................................kklm........hkllll
(PID.TID 0000.0001)     38 lnn.......................................................................lml......lj.klll
(PID.TID 0000.0001)     37 no...................................................................ll...lmk...hmomj.mlkk
(PID.TID 0000.0001)     36 mm.........................................mnnm....................jkj....iikl.eimpomlijkj
(PID.TID 0000.0001)     35 ...................................kkll..lnnnnol...hkmnm...................dijijlnnmlllk..
(PID.TID 0000.0001)     34 ....................................jkm.kmnnnmmk.ijklmmmj...................fhijklmmmkli..
(PID.TID 0000.0001)     33 ....................................ihhjlmllllkjjjjjijjjiih.................jfikkjjkjhghj.
(PID.TID 0000.0001)     32 ....................................mggijjiiiihghgggggggggh................vogghhhhhhggh..
(PID.TID 0000.0001)     31 ....................................lfeeffeeffeeeeeeffffffh..............jhhfeffgghhhhhh..
(PID.TID 0000.0001)     30 ...................................mhdcccdccdeeeeeefhhhhgfg............qlgggffgghhhiiiij..
(PID.TID 0000.0001)     29 .................................olkifeeghgghiihhhijkkkjjhhh...........oliijjijiiiijjjjl..
(PID.TID 0000.0001)     28 ...............................lonnnlkjjlmllllkklllmnmlkkjjii.........kmmmmnmlkkkkjkkk....
(PID.TID 0000.0001)     27 ..............kl..............lnnmnnnmlmoonmmlllllllllllllkkjj...kmnp.kmllmmlkkkkkkkkm....
(PID.TID 0000.0001)     26 ..............lmm...........kmnonoonmlmnnmmmmmlmlkkklmmnnonnmlkk....pomnkkmnnnmmmnmmno....
(PID.TID 0000.0001)     25 ..............qqpk...kjl...oon.rrsssrrsssrqrrqqqppooqrtuuvusronml....pppprsttttttsssrp....
(PID.TID 0000.0001)     24 ............ptutrlh.mljk...nml..rtxxxy++zxwwvvvwwwwwxxxy+zxvtrponoon.....twuxxyyxwvvuo....
(PID.TID 0000.0001)     23 ............lqstrom.imoq...km...dkruwxyzzxxvuvvvuuvvvvvuvvusqonnnnnon.......ssuvvvutsp....
(PID.TID 0000.0001)     22 k...........gloqqpnljmpr......hgcbfjmmnqsrqppoooooprsstvwvvtqnmmmmmnom........oprttrpoklnm
(PID.TID 0000.0001)     21 lji........lloponmmlklooo......g.-bcdgnlllmmmmmoppppqqsuuuutsqpoonnmki.........jmttsqonnnm
(PID.TID 0000.0001)     20 hfi.......mostspljjjkklki......e......rnllklllmoppoooopqppoqqqpoommmlk...........wtqpppomj
(PID.TID 0000.0001)     19 fei.......lnutpicbeefgggfhi...hgj.....mllkjjkkklmmmnonmlkiikjihiiiijkj...........rolklkjhg
(PID.TID 0000.0001)     18 fgh.......f.trkd-bdeddfffhkmnkf.....mnppnmkjjihhilmmmlihhgggfeeeffghiil..........lljiifdef
(PID.TID 0000.0001)     17 fij.......j.kqkhhihjighiijkmnk.......nonmlihhkjijmnnnnljjihhgggfffgghhj.........imlihhfcde
(PID.TID 0000.0001)     16 jlm......jk.iljhifhkiiikkkkjk.........ikihgghjkjjklmmmlkjklkkkjihiiijklm........ekljjjjiii
(PID.TID 0000.0001)     15 mopo....lmj.ghgfffhljghklmljj.........hhffdehggghiiiiiihhijijllljjkklmnom......ihjjhijjkll
(PID.TID 0000.0001)     14 mopq....lhigeffedcgjjghknnmlj.........iefeeeffghhhgfffffgghhjllkkklmmmool.....nkhhhgfhikmm
(PID.TID 0000.0001)     13 nnnp....igigfghggfghhhilnnlkj.........lggfgjggiiiihgffgggghiklklmmmmmmnm.....nmlkjihhijkmn
(PID.TID 0000.0001)     12 ppnnomkkijmmkknnmllllkmoponnmlkkjh....mkjfd.ljkklkjiiijjjjklmlkmpqpoonnk.....lmnnonllllmop
(PID.TID 0000.0001)     11 srqqooponnqrpprssrppqpqrrrrqpooonml..jmnmfe.jfikmlkkkkkmmmnnnmmpsssqqpnj....inqrrqqpoooprs
(PID.TID 0000.0001)     10 srrssrrpppqstsrstrooprsrrrrrqqpponnp.jnpnd..bchkmmmmmmmnoppponoqttsrqpmh..hljostsrrqpoqqrs
(PID.TID 0000.0001)      9 ppprsrpooopqrrqoonkjmoqrqppqppoonlnpomnnme.gghjlmmllmmmnnoqpnnoqssrqqpib.fkklnrsrpppnnopqq
(PID.TID 0000.0001)      8 nnooppooonnnooolikkkmnopoooonoonnmmnmkjiifhkkkkllkjijkkmnmnnmmnopppoonhf.pnnopqtspommmnnoo
(PID.TID 0000.0001)      7 nnmmmmnonnmnnmmlkknoonnnnmmmnnnnmmooljihhilmmllmmllkjiikmlmnmmmmnnnnmmlkmonnooppponllmmmmn
(PID.TID 0000.0001)      6 nmllllmnnmlllllkllnoonnnmlkllmmmlkmmlkjiijklllmmmlmmlkijjjlmmmllmmmmllllnoonmmnmllmlllmmmm
(PID.TID 0000.0001)      5 llkkkkkklkjjkkkkkkllllmmmmlllkkjjjjjkkkjjklkkkmnmlmmlkkjjklmmllllmmmllmmln..mlllllllllllll
(PID.TID 0000.0001)      4 jiiiiiiiij............................kkklllkkllllllkkjkklllllkkklllllkkk...nllkkkkkkkkkkj
(PID.TID 0000.0001)      3 ..........................................lmmmlkkkkjjjjkllllkkkl..kkjk.....momllkjjjkkk...
(PID.TID 0000.0001)      2 ..........................................................................................
(PID.TID 0000.0001)      1 ..........................................................................................
(PID.TID 0000.0001) // =======================================================
(PID.TID 0000.0001) // END OF FIELD                                          =
(PID.TID 0000.0001) // =======================================================
(PID.TID 0000.0001) 
(PID.TID 0000.0001) // =======================================================
(PID.TID 0000.0001) // Field Current theta  at iteration         60
(PID.TID 0000.0001) // CMIN =         -1.966174452439644E+00
(PID.TID 0000.0001) // CMAX =          3.067152666139726E+01
(PID.TID 0000.0001) // CINT =          1.208803744956922E+00
(PID.TID 0000.0001) // SYMBOLS (CMIN->CMAX): -abcdefghijklmnopqrstuvwxyz+
(PID.TID 0000.0001) //                  0.0: .
(PID.TID 0000.0001) // RANGE I (Lo:Hi:Step):(     1:    90:     1)
(PID.TID 0000.0001) // RANGE J (Lo:Hi:Step):(    40:     1:    -1)
(PID.TID 0000.0001) // RANGE K (Lo:Hi:Step):(   1:   1:   1)
(PID.TID 0000.0001) // =======================================================
(PID.TID 0000.0001) K =   1
(PID.TID 0000.0001)                I=10      I=20      I=30      I=40      I=50      I=60      I=70      I=80      I=90
(PID.TID 0000.0001) |--J--|123456789|123456789|123456789|123456789|123456789|123456789|123456789|123456789|123456789|
(PID.TID 0000.0001)     40 -bcccba-------abcddbbbbbbbbbbbbbbbbbbbbbbbbbbbbbbbbbbbbbbbbbbbbbbbbbbbbbbbbbbbbbbbbbbaaa--
(PID.TID 0000.0001)     39 bbcccccbba----bbbddbbbbbbbbbbbbbbbbbbbbbbbbbbbbbbbbbbbbbbbbbbbbbbbbbbbbb----bbbbbbbbbaaaab
(PID.TID 0000.0001)     38 deeeeecccbba-bbbbbbbbbbbbbbbbbbbbbbbbbbbbbbbbbbbbbbbbbbbbbbbbbbbbbbbbbbb-----bbbbbbb---bcd
(PID.TID 0000.0001)     37 fggbbbbbbbbbbbbbbbbbbbbbbbbbbbbbbbbbbbbbbbbbbbbbbbbbbbbbbbbbbbbbbbbbbbbbbba-bbbbcbdeebcdde
(PID.TID 0000.0001)     36 ggbbbbbbbbbbbbbbbbbbbbbbbbbbbbbbbbbbbbbbbbbba--bbbbbbbbbbbbbbbbbbbbccccbababbcbceffghhhhgg
(PID.TID 0000.0001)     35 ffbbbbbbbbbbbbbbbbbbbbbbbbbbbbbbbbb----bbbbbccb-bbbdddefbbbbbbbbbbbbbbbbbbbbdedeefghhiiihg
(PID.TID 0000.0001)     34 bbbbbbbbbbbbbbbbbbbbbbbbbbbbbbbbbbb----bacccccddbccedefffbbbbbbbbbbbbbbbbbbbabdeffghiijibb
(PID.TID 0000.0001)     33 bbbbbbbbbbbbbbbbbbbbbbbbbbbbbbbbbbbb--abbcddccddeeeeefffgghbbbbbbbbbbbbbbbbbaacghijjkkkjjb
(PID.TID 0000.0001)     32 bbbbbbbbbbbbbbbbbbbbbbbbbbbbbbbbbbbb-abbccddddeefggggghhhhibbbbbbbbbbbbbbbbdcabiklllllkkjb
(PID.TID 0000.0001)     31 bbbbbbbbbbbbbbbbbbbbbbbbbbbbbbbbbbbbdeffgghhiiiiiiiiijjjkjjbbbbbbbbbbbbbbhjlkhjmmnmmmlllbb
(PID.TID 0000.0001)     30 bbbbbbbbbbbbbbbbbbbbbbbbbbbbbbbbbbbkkjkkkkklllkkkllllmmmmllbbbbbbbbbbbbmnnoppoopoooonnnnbb
(PID.TID 0000.0001)     29 bbbbbbbbbbbbbbbbbbbbbbbbbbbbbbbbbnonnnnnnnnnnnnnnnnnooooonmmbbbbbbbbbbbpqqqqqqqpppppoooobb
(PID.TID 0000.0001)     28 bbbbbbbbbbbbbbbbbbbbbbbbbbbbbbbnppppppppppppppqppqqpqqqqpoonnbbbbbbbbbrrrrrrrrqqqqqqppppbb
(PID.TID 0000.0001)     27 bbbbbbbbbbbbbbuubbbbbbbbbbbbbbqqrrrrsrrrssssssssssssssrrqqppppbbbrrssbttttttttssssrrrqbbbb
(PID.TID 0000.0001)     26 bbbbbbbbbbbbbbuttbbbbbbbbbbbtstttttuuuuuuuuuuuuuuuuttsssrrqqqrsubttuvvuuuuuuuuuttssrrqbbbb
(PID.TID 0000.0001)     25 bbbbbbbbbbbbbbuuvvbbbwvwbbbuuvvvvvwwwwwwwwvvvvvvvvuuuutttsssttuvwbbbwvvvvvvuuuuutssrqpbbbb
(PID.TID 0000.0001)     24 bbbbbbbbbbbbvvvvwxybwwwxbbbwwvbxwwxxxwwwwwwvwwvvvvvvvvvvvuvvvvwwwvvvbwvvvvvvvvuuutttssbbbb
(PID.TID 0000.0001)     23 bbbbbbbbbbbbwvwxxyybwwxxbbbxwwbbwxxxxxxxxxxwwwwwwwwwwwwwwwwwwwwwwwwwvbbbbwvvvvwvvvvvvvbbbb
(PID.TID 0000.0001)     22 wbbbbbbbbbbbwwwxxxyyxxyybbbxxbyyyyyyyyyyyyyxxxxxxxxxxxxwvwwwwwwwwwwvvwbbbbbbxwwwwwxxxxxxxw
(PID.TID 0000.0001)     21 wwvbbbbbbbbxxxxxyyyyyzz++bbbbbyyzzzzzzzzzzzyyyyyyyyyyyxxxwxxxxxwwwwvvvbbbbbbbbxxxyyyyzyyxw
(PID.TID 0000.0001)     20 wwvbbbbbbbyyyyyyyyzzzzzz+bbbbbbzbzzzzz+++++zzzzzzzyzyyyyxxxyxxxxxxxwwvbbbbbbbbbyyyyyyyyxxx
(PID.TID 0000.0001)     19 wwvbbbbbbbzzzzyzzyyzzzzyzzybbbzyzbbbbb+zzz++zzzzzzzzyyyyxxxxxwwwvwwwvvbbbbbbbbbbbyxxxwwwww
(PID.TID 0000.0001)     18 vutbbbbbbbzzyyxxxxxyyyyyyyzyzz+zzbbb++zzzz+zzzzzzzzzyyyyxxxxwwwvvvvvvuubbbbbbbbbbyxxwwvwww
(PID.TID 0000.0001)     17 utsbbbbbbbzbyxxxxxxyyyyxyyyyyzzbbbbbzzzzzz+zzzzzzzzzyyyyyyxxwwwvuuvuttvbbbbbbbbbxyyxxwuvvu
(PID.TID 0000.0001)     16 tssbbbbbbyzbyyxxxxxxxxxwwxxxxybbbbbbbyxxyyzzzzzzyyyyyyyyxxxxxwwwvvvuutttbbbbbbbbyyyyxwvvvu
(PID.TID 0000.0001)     15 tsrrbbbbwxxbxxxxwwwwwwwvvvvvxbbbbbbbbbwwxxxxxxxxxxxxyyxxxyyyxwwwwvvuttssrbbbbbbxxxxxyxxwvu
(PID.TID 0000.0001)     14 utrqbbbbwxxwwwwvwwwvvuuuttuuubbbbbbbbbvwvwwwwwwwwwxxxxxwxxxxxwwwvvvvtssssbbbbbvwxxxxxxwwvu
(PID.TID 0000.0001)     13 uttrbbbbwxwvwwuuuvvvvuuttttstbbbbbbbbbuvvvvvvvvvvvuvvvvvwwwxxwwvvuuuusssqbbbbvwwwwwwwwwvvu
(PID.TID 0000.0001)     12 tstsssrsuvutuutssssstutrrsssrqqrrqbbbbuuuutttttsststttttttuvuutttstttsrrbbbbbtvvvuuuuuuttt
(PID.TID 0000.0001)     11 qppqrrrsssrrrsrqqqppqrrppqqppqqqqqqbbsttsssbrrrrrrrrrrrrrrssrrrrrrrssrqpbbbbpqstssrrsrrrqq
(PID.TID 0000.0001)     10 mmmlnnopppppoponnnnnnnnmmmmmmnnoopppbqrrqrqbqqqqqqqpppqpppppoopppooopppobboopppppoooopponn
(PID.TID 0000.0001)      9 jjiiijjjkkkkkkjjjijjjjjiiijjijkllnnmmnooopbnnoooooooooooonnmmmnnmmllmnnmbmnnnnmmlllkklkkjj
(PID.TID 0000.0001)      8 ggggggghgghhiihhhgghhihgghhhhiijjjkkkkllmmmllllllllmmmllllkkkkkkkkkkkklkbkllkkjjiiihhhggff
(PID.TID 0000.0001)      7 eeeeeeffggfffggggfffffeeffggggghhhhhhiijkkkjjjkkkjjjiiiiiiiiiiiiiiiiijjjijjjiihhgfffffeeee
(PID.TID 0000.0001)      6 ddddeeeeeeeeeefeffeeeefffeeedeefffffggghhiiihhhiihgfffgggggggffghhhhhhhhhhhhhgffeeeedddddd
(PID.TID 0000.0001)      5 dddeeedddeeeeeeeeeeeeeeedddeeeeefeeeeeffffggffffffeddeeeeeeeeeeffffffffffffeeeeddddddcdccd
(PID.TID 0000.0001)      4 dddddddccddcccccccdccccccbbcccccccccccdddddddddcddddddddddddddddddddddddddbbbbbccccddccccd
(PID.TID 0000.0001)      3 ccccbbbaaabbbbbbbbbbbbbbbbbbbbbbbbbbbbbbbbbcccccccccccccbbbbbbbbbbbbbbbbbbbbbaaabbcccccbbb
(PID.TID 0000.0001)      2 bbbbbbbbbbbbbbbbbbbbbbbbbbbbbbbbbbbbbbbbbbbbccccbbbbbaaaaaaaaababbaaaabbbbbaaaaabbbbbbbbbb
(PID.TID 0000.0001)      1 bbbbbbbbbbbbbbbbbbbbbbbbbbbbbbbbbbbbbbbbbbbbbbbbbbbbbbbbbbbbbbbbbbbbbbbbbbbbbbbbbbbbbbbbbb
(PID.TID 0000.0001) // =======================================================
(PID.TID 0000.0001) // END OF FIELD                                          =
(PID.TID 0000.0001) // =======================================================
(PID.TID 0000.0001) 
(PID.TID 0000.0001) // =======================================================
(PID.TID 0000.0001) // Field Current etaN   at iteration         60
(PID.TID 0000.0001) // CMIN =         -2.119160163851760E+00
(PID.TID 0000.0001) // CMAX =          1.221694207157127E+00
(PID.TID 0000.0001) // CINT =          1.237353470744032E-01
(PID.TID 0000.0001) // SYMBOLS (CMIN->CMAX): -abcdefghijklmnopqrstuvwxyz+
(PID.TID 0000.0001) //                  0.0: .
(PID.TID 0000.0001) // RANGE I (Lo:Hi:Step):(    -1:    92:     1)
(PID.TID 0000.0001) // RANGE J (Lo:Hi:Step):(    42:    -1:    -1)
(PID.TID 0000.0001) // RANGE K (Lo:Hi:Step):(   1:   1:   1)
(PID.TID 0000.0001) // =======================================================
(PID.TID 0000.0001) K =   1
(PID.TID 0000.0001)                I=8       I=18      I=28      I=38      I=48      I=58      I=68      I=78      I=88
(PID.TID 0000.0001) |--J--|101234567|901234567|901234567|901234567|901234567|901234567|901234567|901234567|901234567|9012
(PID.TID 0000.0001)     42 ............................................-----aaabbbcccccccccdd..dddd.....eeeeefffgggg.....
(PID.TID 0000.0001)     41 ..............................................................................................
(PID.TID 0000.0001)     40 vuuuuvv.rqqqqqqqqqqqq..................................................................vvvvuuu
(PID.TID 0000.0001)     39 uutttttttssstttu...pp.....................................................jjjk........uvuuuutt
(PID.TID 0000.0001)     38 ttttuuutttuuuuv...........................................................jkkll......vtttttttt
(PID.TID 0000.0001)     37 ttuuv..................................................................ll...mmm...uttut.stttuu
(PID.TID 0000.0001)     36 uuuw.........................................kkkj....................lmnnnnmmnnn.trrsttuuuuuuw
(PID.TID 0000.0001)     35 wwww.................................ffff..jjjkkkk...poopq...........ooo....nllmnooprsstuvwwww
(PID.TID 0000.0001)     34 .....................................gggg.ijjjkklm.mmmmnopq..................mmmnnopqrtuux....
(PID.TID 0000.0001)     33 u.....................................hhghiijjkkllmmmmmnooppq.................onoppqrtuuuuu...
(PID.TID 0000.0001)     32 v.....................................iihhijjkklmmmmnnnoooppp................kpppqsttuuuuuv...
(PID.TID 0000.0001)     31 ......................................jjjjjkklmmnnnnnoooppppp..............sssssssttuuuuuu....
(PID.TID 0000.0001)     30 .....................................mmmlllmmmnnnooooppppqqqp............uvuvvvvvvvvvvvvuv....
(PID.TID 0000.0001)     29 ...................................pqppppoopppppppppppqqqqqqpp...........xxxxxxwwwvvvvvvvv....
(PID.TID 0000.0001)     28 .................................pqrrrrrrqqqqqqqqqqqqqqqqqqqqpp.........yyyyxxxwwwwvvvvvvv....
(PID.TID 0000.0001)     27 ................rr..............qqrsssssrrrrrrrrrrrrrrrrqqqqqppp...xxxx.yzyyyxxxwvvvvvvu......
(PID.TID 0000.0001)     26 ................rrs...........qqqrssssssssssssssrrrsrrrrrqqqqppppp.xxxyzzzzzyyxxwwwvvvvu......
(PID.TID 0000.0001)     25 ................rsst...ttt...qppqssssssssssssssrrrrrrrrrrqqqqppppqq...yz++zzyyxwwwwvvvuu......
(PID.TID 0000.0001)     24 ..............sssstuu.utuu...qqp.ssrrrrrrrrrrrrrrrrrrrqqqqqqpqqqqqqqqp.zzzzyyxxxwwwvvvvv......
(PID.TID 0000.0001)     23 ..............tssttuu.utuu...rqq..srqqqqqqrrrrrrrrrrrrqqqqqqqqqqqqqppqp....yxwxxwwwwvvvv......
(PID.TID 0000.0001)     22 vvv...........ttttttuuuuuu...rr.rssrqqqqrrrrrrrrssrrrrrrrrqqqqqqqqppppqq......yxxwwwwwwwwvvvv.
(PID.TID 0000.0001)     21 vvvvu........ttttttttuuuuvv.....rsssrrrrssssssssssssssssssrrqqqqqqqppppq........xxxwwwwwwvvvvv
(PID.TID 0000.0001)     20 vvuvu.......vuuuuuuuuuvuuvv......s.rssssttttttttttssssssrrrrrrqqqqqppppp.........xxxwwwwvvvvuv
(PID.TID 0000.0001)     19 uuuuu.......vvuuuuuuuuuuuuuuu...tst.....tssssttssssssrrrrrqqqqqqqppppppp...........xwwwvvvuuuu
(PID.TID 0000.0001)     18 uuuuu.......wvvuuttttuuuuttuuuuuutt...uutssssssssssssssrrrrrrqqqppppppppo..........xwvvvuuuuuu
(PID.TID 0000.0001)     17 uuttt.......w.xvuutuuvvuuuuuuuuuu.....tttsssssssssssssssrrrrrrqqqppppppoo.........yxwwvvuuuutt
(PID.TID 0000.0001)     16 uuutt......xx.xwvvvvvvvvuuuttttu.......tsrssssstttssttsssssssssrrqqqqppooo........xxwwwvvuuuut
(PID.TID 0000.0001)     15 vvuuts....vwv.wvvvvvvvuuuuttsst.........rrrsssttttssstttsstttssssrqqqqpponn......vwwwwwwwwvvuu
(PID.TID 0000.0001)     14 wvvutt....uvuuvvvvvuvuttttssrrr.........qrqrrrsssssssssssstttttssrrrrqppoon.....uvvwwwxwwwwvvu
(PID.TID 0000.0001)     13 wwvvut....uvvuvuuuuuutttttsrrqp.........pqqrrrrrrrrrrrrrsssssttsssrrrqpponn....vvvvwwwwxxxwwvv
(PID.TID 0000.0001)     12 wwvvuutrttvwvuuuuuttttttttsrqqpooonm....oppqqqqqqqqqqqqqrrrrrrsrssrqqqpoon.....wwvvvvvwwwwwwvv
(PID.TID 0000.0001)     11 vuuutttuuuuvvvuvuttttsssssrrqppooonnn..pppopq.pqqqpppqqqqqqqrrqrrrrqppoonm....vvvuuuuuuvvvvuuu
(PID.TID 0000.0001)     10 tsssrrrrrrrssrqrrrqqqqqqqqppoonnnnnnnn.poonno.oppppppqqqqrqqqqqqqrqponnnmm..utuutsrrrrsstttsss
(PID.TID 0000.0001)      9 ppppppoonnonnmmmmmmllmnnnnmmmmmlmmmnonnnnnml.qpoppqpppqqqrrqqpppppponmmllk.utsssrqpooooppppppp
(PID.TID 0000.0001)      8 llllllkjjjjjjjjjijkjijjkkjjjjjjjjjkkllllmmmmonnnnnooopppppppooooooonmmllkm.qpppoonllllllllllll
(PID.TID 0000.0001)      7 iiiihhhhhhhhhhhhhhhihhgggggggggggggggggghijkkkkklllkkllmmmmmmllmmmmlllkkklmmnnnmmljjiiiiiiiiii
(PID.TID 0000.0001)      6 gggffgggggggggggggghhgfffeeeeeeeedddddddefghiihhhhhhhgghhijjjjjjjjjjjjijjjjjjjjiihhhhhhhhggggf
(PID.TID 0000.0001)      5 fffffgggggffffffffffffeedddcccccbbbbbbbbbcdddeeeeededddddefgghgggggggggggfffeeeefffffgggggffff
(PID.TID 0000.0001)      4 ggfffggggggggggggfffeeeeeddcccbbbbbbaaabbbbbbbbbcbbbbbbccddeeeeeeeeeeeedddef..deeefffffffgggff
(PID.TID 0000.0001)      3 hhhhhhgggggg............................babaaaaaaaaabbbbcccccccccddddddddee..gfffffffggggghhhh
(PID.TID 0000.0001)      2 ............................................-----aaabbbcccccccccdd..dddd.....eeeeefffgggg.....
(PID.TID 0000.0001)      1 ..............................................................................................
(PID.TID 0000.0001)      0 vuuuuvv.rqqqqqqqqqqqq..................................................................vvvvuuu
(PID.TID 0000.0001)     -1 uutttttttssstttu...pp.....................................................jjjk........uvuuuutt
(PID.TID 0000.0001) // =======================================================
(PID.TID 0000.0001) // END OF FIELD                                          =
(PID.TID 0000.0001) // =======================================================
(PID.TID 0000.0001) 
(PID.TID 0000.0001)  MDS_WRITE_FIELD: it,rec,kS,kL,kH=      60     1  15   1  15 file=U.0000000060
(PID.TID 0000.0001)  MDS_WRITE_FIELD: it,rec,kS,kL,kH=      60     1  15   1  15 file=V.0000000060
(PID.TID 0000.0001)  MDS_WRITE_FIELD: it,rec,kS,kL,kH=      60     1  15   1  15 file=T.0000000060
(PID.TID 0000.0001)  MDS_WRITE_FIELD: it,rec,kS,kL,kH=      60     1  15   1  15 file=S.0000000060
(PID.TID 0000.0001)  MDS_WRITE_FIELD: it,rec,kS,kL,kH=      60     1   1   1   1 file=Eta.0000000060
(PID.TID 0000.0001)  MDS_WRITE_FIELD: it,rec,kS,kL,kH=      60     1  15   1  15 file=W.0000000060
(PID.TID 0000.0001)  MDS_WRITE_FIELD: it,rec,kS,kL,kH=      60     1  15   1  15 file=PH.0000000060
(PID.TID 0000.0001)  MDS_WRITE_FIELD: it,rec,kS,kL,kH=      60     1   1   1   1 file=PHL.0000000060
(PID.TID 0000.0001)  MDS_WRITE_FIELD: it,rec,kS,kL,kH=      60     1   1   1   1 file=ETAtave.0000000060
(PID.TID 0000.0001)  MDS_WRITE_FIELD: it,rec,kS,kL,kH=      60     1  15   1  15 file=Ttave.0000000060
(PID.TID 0000.0001)  MDS_WRITE_FIELD: it,rec,kS,kL,kH=      60     1  15   1  15 file=Stave.0000000060
(PID.TID 0000.0001)  MDS_WRITE_FIELD: it,rec,kS,kL,kH=      60     1  15   1  15 file=uVeltave.0000000060
(PID.TID 0000.0001)  MDS_WRITE_FIELD: it,rec,kS,kL,kH=      60     1  15   1  15 file=vVeltave.0000000060
(PID.TID 0000.0001)  MDS_WRITE_FIELD: it,rec,kS,kL,kH=      60     1  15   1  15 file=wVeltave.0000000060
(PID.TID 0000.0001)  MDS_WRITE_FIELD: it,rec,kS,kL,kH=      60     1   1   1   1 file=Eta2tave.0000000060
(PID.TID 0000.0001)  MDS_WRITE_FIELD: it,rec,kS,kL,kH=      60     1  15   1  15 file=UTtave.0000000060
(PID.TID 0000.0001)  MDS_WRITE_FIELD: it,rec,kS,kL,kH=      60     1  15   1  15 file=VTtave.0000000060
(PID.TID 0000.0001)  MDS_WRITE_FIELD: it,rec,kS,kL,kH=      60     1  15   1  15 file=WTtave.0000000060
(PID.TID 0000.0001)  MDS_WRITE_FIELD: it,rec,kS,kL,kH=      60     1  15   1  15 file=UStave.0000000060
(PID.TID 0000.0001)  MDS_WRITE_FIELD: it,rec,kS,kL,kH=      60     1  15   1  15 file=VStave.0000000060
(PID.TID 0000.0001)  MDS_WRITE_FIELD: it,rec,kS,kL,kH=      60     1  15   1  15 file=WStave.0000000060
(PID.TID 0000.0001)  MDS_WRITE_FIELD: it,rec,kS,kL,kH=      60     1  15   1  15 file=TTtave.0000000060
(PID.TID 0000.0001)  MDS_WRITE_FIELD: it,rec,kS,kL,kH=      60     1  15   1  15 file=UUtave.0000000060
(PID.TID 0000.0001)  MDS_WRITE_FIELD: it,rec,kS,kL,kH=      60     1  15   1  15 file=VVtave.0000000060
(PID.TID 0000.0001)  MDS_WRITE_FIELD: it,rec,kS,kL,kH=      60     1  15   1  15 file=UVtave.0000000060
(PID.TID 0000.0001)  MDS_WRITE_FIELD: it,rec,kS,kL,kH=      60     1  15   1  15 file=Tdiftave.0000000060
(PID.TID 0000.0001)  MDS_WRITE_FIELD: it,rec,kS,kL,kH=      60     1  15   1  15 file=PhHytave.0000000060
(PID.TID 0000.0001)  MDS_WRITE_FIELD: it,rec,kS,kL,kH=      60     1   1   1   1 file=PHLtave.0000000060
(PID.TID 0000.0001)  MDS_WRITE_FIELD: it,rec,kS,kL,kH=      60     1   1   1   1 file=uFluxtave.0000000060
(PID.TID 0000.0001)  MDS_WRITE_FIELD: it,rec,kS,kL,kH=      60     1   1   1   1 file=vFluxtave.0000000060
(PID.TID 0000.0001)  MDS_WRITE_FIELD: it,rec,kS,kL,kH=      60     1   1   1   1 file=tFluxtave.0000000060
(PID.TID 0000.0001)  MDS_WRITE_FIELD: it,rec,kS,kL,kH=      60     1   1   1   1 file=sFluxtave.0000000060
(PID.TID 0000.0001)  MDS_WRITE_FIELD: it,rec,kS,kL,kH=      60     1   1   1   1 file=PHL2tave.0000000060
(PID.TID 0000.0001)  MDS_WRITE_FIELD: it,rec,kS,kL,kH=      60     1  15   1  15 file=Convtave.0000000060
(PID.TID 0000.0001) // Time-average data written, t-step        60
(PID.TID 0000.0001) 
(PID.TID 0000.0001)  MDS_WRITE_FIELD: it,rec,kS,kL,kH=      60     1  15   1  15 file=GM_Kwx-T.0000000060
(PID.TID 0000.0001)  MDS_WRITE_FIELD: it,rec,kS,kL,kH=      60     1  15   1  15 file=GM_Kwy-T.0000000060
(PID.TID 0000.0001)  MDS_WRITE_FIELD: it,rec,kS,kL,kH=      60     1  15   1  15 file=GM_Kwz-T.0000000060
(PID.TID 0000.0001)  MDS_WRITE_FIELD: it,rec,kS,kL,kH=      60     1  15   1  15 file=pickup_cd.0000000060
(PID.TID 0000.0001)  MDS_WRITE_FIELD: it,rec,kS,kL,kH=      60     2  15   1  15 file=pickup_cd.0000000060
(PID.TID 0000.0001)  MDS_WRITE_FIELD: it,rec,kS,kL,kH=      60     3  15   1  15 file=pickup_cd.0000000060
(PID.TID 0000.0001)  MDS_WRITE_FIELD: it,rec,kS,kL,kH=      60     4  15   1  15 file=pickup_cd.0000000060
(PID.TID 0000.0001)  MDS_WRITE_FIELD: it,rec,kS,kL,kH=      60    61   1   1   1 file=pickup_cd.0000000060
(PID.TID 0000.0001)  MDS_WRITE_FIELD: it,rec,kS,kL,kH=      60    -1  15   1  15 file=pickup.0000000060
(PID.TID 0000.0001)  MDS_WRITE_FIELD: it,rec,kS,kL,kH=      60    -2  15   1  15 file=pickup.0000000060
(PID.TID 0000.0001)  MDS_WRITE_FIELD: it,rec,kS,kL,kH=      60    -3  15   1  15 file=pickup.0000000060
(PID.TID 0000.0001)  MDS_WRITE_FIELD: it,rec,kS,kL,kH=      60    -4  15   1  15 file=pickup.0000000060
(PID.TID 0000.0001)  MDS_WRITE_FIELD: it,rec,kS,kL,kH=      60    -5  15   1  15 file=pickup.0000000060
(PID.TID 0000.0001)  MDS_WRITE_FIELD: it,rec,kS,kL,kH=      60    -6  15   1  15 file=pickup.0000000060
(PID.TID 0000.0001)  MDS_WRITE_FIELD: it,rec,kS,kL,kH=      60    -7  15   1  15 file=pickup.0000000060
(PID.TID 0000.0001)  MDS_WRITE_FIELD: it,rec,kS,kL,kH=      60    -8  15   1  15 file=pickup.0000000060
(PID.TID 0000.0001)  MDS_WRITE_FIELD: it,rec,kS,kL,kH=      60  -121   1   1   1 file=pickup.0000000060
(PID.TID 0000.0001)  MDS_WRITE_FIELD: it,rec,kS,kL,kH=      60  -122   1   1   1 file=pickup.0000000060
(PID.TID 0000.0001)  MDS_WRITE_FIELD: it,rec,kS,kL,kH=      60  -123   1   1   1 file=pickup.0000000060
(PID.TID 0000.0001) %CHECKPOINT        60 0000000060
 EXTERNAL_FIELDS_LOAD,        60 : iP,iLd,i0,i1=    2    3    2    3 ; Wght=  0.5000000000  0.5000000000
 EXTERNAL_FIELDS_LOAD: (fu0,1),fu,fv= -1.4435E-02 -2.7199E-02 -2.0817E-02 -9.1068E-03
 EXTERNAL_FIELDS_LOAD: SST,SSS,Q,E-P= -3.5788E-01  3.4500E+01  2.2794E+02  8.7290E-06
DEBUG_STATS_RL:          Uvel (THERMODYNAMICS)  min= -1.47835657373335E-01
DEBUG_STATS_RL:          Uvel (THERMODYNAMICS)  max=  1.50813457753388E-01
DEBUG_STATS_RL:          Uvel (THERMODYNAMICS) mean=  5.85282583624961E-03
DEBUG_STATS_RL:          Uvel (THERMODYNAMICS) S.D.=  2.60974170751805E-02
DEBUG_STATS_RL:          Vvel (THERMODYNAMICS)  min= -1.03435701308973E-01
DEBUG_STATS_RL:          Vvel (THERMODYNAMICS)  max=  1.41165878565617E-01
DEBUG_STATS_RL:          Vvel (THERMODYNAMICS) mean=  8.85698991430900E-04
DEBUG_STATS_RL:          Vvel (THERMODYNAMICS) S.D.=  1.67962126486538E-02
DEBUG_STATS_RL:          Wvel (THERMODYNAMICS)  min= -1.19450575537662E-04
DEBUG_STATS_RL:          Wvel (THERMODYNAMICS)  max=  1.17867896724460E-04
DEBUG_STATS_RL:          Wvel (THERMODYNAMICS) mean= -1.28338282942446E-07
DEBUG_STATS_RL:          Wvel (THERMODYNAMICS) S.D.=  1.46659099878321E-05
DEBUG_STATS_RL:         Theta (THERMODYNAMICS)  min= -1.96463989042260E+00
DEBUG_STATS_RL:         Theta (THERMODYNAMICS)  max=  3.06778612831189E+01
DEBUG_STATS_RL:         Theta (THERMODYNAMICS) mean=  3.24950881808481E+00
DEBUG_STATS_RL:         Theta (THERMODYNAMICS) S.D.=  5.87791120209360E+00
DEBUG_STATS_RL:          Salt (THERMODYNAMICS)  min=  3.00000000000000E-02
DEBUG_STATS_RL:          Salt (THERMODYNAMICS)  max=  3.74961189692902E+01
DEBUG_STATS_RL:          Salt (THERMODYNAMICS) mean=  1.88747917103198E+01
DEBUG_STATS_RL:          Salt (THERMODYNAMICS) S.D.=  1.73003230870362E+01
DEBUG_STATS_RL:         GtNm1 (THERMODYNAMICS)  min= -2.96966698661757E-06
DEBUG_STATS_RL:         GtNm1 (THERMODYNAMICS)  max=  2.27179887562731E-06
DEBUG_STATS_RL:         GtNm1 (THERMODYNAMICS) mean=  4.10429323627377E-09
DEBUG_STATS_RL:         GtNm1 (THERMODYNAMICS) S.D.=  1.84643178112852E-07
DEBUG_STATS_RL:         GsNm1 (THERMODYNAMICS)  min= -4.84188495616585E-07
DEBUG_STATS_RL:         GsNm1 (THERMODYNAMICS)  max=  3.05093421698106E-07
DEBUG_STATS_RL:         GsNm1 (THERMODYNAMICS) mean= -4.23019811605510E-10
DEBUG_STATS_RL:         GsNm1 (THERMODYNAMICS) S.D.=  1.88223094106139E-08
DEBUG_STATS_RL:                EtaN (DYNAMICS)  min= -2.11916016385176E+00
DEBUG_STATS_RL:                EtaN (DYNAMICS)  max=  1.22169420715713E+00
DEBUG_STATS_RL:                EtaN (DYNAMICS) mean= -1.56976794695643E-01
DEBUG_STATS_RL:                EtaN (DYNAMICS) S.D.=  7.26562268883054E-01
DEBUG_STATS_RL:                Uvel (DYNAMICS)  min= -1.47835657373335E-01
DEBUG_STATS_RL:                Uvel (DYNAMICS)  max=  1.50813457753388E-01
DEBUG_STATS_RL:                Uvel (DYNAMICS) mean=  5.85282583624961E-03
DEBUG_STATS_RL:                Uvel (DYNAMICS) S.D.=  2.60974170751805E-02
DEBUG_STATS_RL:                Vvel (DYNAMICS)  min= -1.03435701308973E-01
DEBUG_STATS_RL:                Vvel (DYNAMICS)  max=  1.41165878565617E-01
DEBUG_STATS_RL:                Vvel (DYNAMICS) mean=  8.85698991430900E-04
DEBUG_STATS_RL:                Vvel (DYNAMICS) S.D.=  1.67962126486538E-02
DEBUG_STATS_RL:                Wvel (DYNAMICS)  min= -1.19450575537662E-04
DEBUG_STATS_RL:                Wvel (DYNAMICS)  max=  1.17867896724460E-04
DEBUG_STATS_RL:                Wvel (DYNAMICS) mean= -1.28338282942446E-07
DEBUG_STATS_RL:                Wvel (DYNAMICS) S.D.=  1.46659099878321E-05
DEBUG_STATS_RL:               Theta (DYNAMICS)  min= -1.96463989042260E+00
DEBUG_STATS_RL:               Theta (DYNAMICS)  max=  3.06778612831189E+01
DEBUG_STATS_RL:               Theta (DYNAMICS) mean=  3.24950881808481E+00
DEBUG_STATS_RL:               Theta (DYNAMICS) S.D.=  5.87791120209360E+00
DEBUG_STATS_RL:                Salt (DYNAMICS)  min=  3.00000000000000E-02
DEBUG_STATS_RL:                Salt (DYNAMICS)  max=  3.74961189692902E+01
DEBUG_STATS_RL:                Salt (DYNAMICS) mean=  1.88747917103198E+01
DEBUG_STATS_RL:                Salt (DYNAMICS) S.D.=  1.73003230870362E+01
DEBUG_STATS_RL:                  Gu (DYNAMICS)  min= -1.43709783665736E-01
DEBUG_STATS_RL:                  Gu (DYNAMICS)  max=  1.55449863662893E-01
DEBUG_STATS_RL:                  Gu (DYNAMICS) mean=  5.90682772549523E-03
DEBUG_STATS_RL:                  Gu (DYNAMICS) S.D.=  2.65261721582555E-02
DEBUG_STATS_RL:                  Gv (DYNAMICS)  min= -1.14944331361487E-01
DEBUG_STATS_RL:                  Gv (DYNAMICS)  max=  1.42683213002421E-01
DEBUG_STATS_RL:                  Gv (DYNAMICS) mean=  3.39843969073978E-03
DEBUG_STATS_RL:                  Gv (DYNAMICS) S.D.=  1.78559826319582E-02
DEBUG_STATS_RL:               GuNm1 (DYNAMICS)  min= -9.99073476226375E-06
DEBUG_STATS_RL:               GuNm1 (DYNAMICS)  max=  9.47735828482376E-06
DEBUG_STATS_RL:               GuNm1 (DYNAMICS) mean=  1.17074334409821E-08
DEBUG_STATS_RL:               GuNm1 (DYNAMICS) S.D.=  1.21405800464551E-06
DEBUG_STATS_RL:               GvNm1 (DYNAMICS)  min= -9.95202320577643E-06
DEBUG_STATS_RL:               GvNm1 (DYNAMICS)  max=  1.59059614703098E-05
DEBUG_STATS_RL:               GvNm1 (DYNAMICS) mean=  7.46391977211969E-07
DEBUG_STATS_RL:               GvNm1 (DYNAMICS) S.D.=  2.66156036909164E-06
DEBUG_STATS_RL:               GtNm1 (DYNAMICS)  min= -2.96966698661757E-06
DEBUG_STATS_RL:               GtNm1 (DYNAMICS)  max=  2.27179887562731E-06
DEBUG_STATS_RL:               GtNm1 (DYNAMICS) mean=  4.10429323627377E-09
DEBUG_STATS_RL:               GtNm1 (DYNAMICS) S.D.=  1.84643178112852E-07
DEBUG_STATS_RL:               GsNm1 (DYNAMICS)  min= -4.84188495616585E-07
DEBUG_STATS_RL:               GsNm1 (DYNAMICS)  max=  3.05093421698106E-07
DEBUG_STATS_RL:               GsNm1 (DYNAMICS) mean= -4.23019811605510E-10
DEBUG_STATS_RL:               GsNm1 (DYNAMICS) S.D.=  1.88223094106139E-08
DEBUG_STATS_RL:    cg2d_b (SOLVE_FOR_PRESSURE)  min= -1.91834191836158E+04
DEBUG_STATS_RL:    cg2d_b (SOLVE_FOR_PRESSURE)  max=  2.62107623844955E+04
DEBUG_STATS_RL:    cg2d_b (SOLVE_FOR_PRESSURE) mean=  4.33485613067339E+00
DEBUG_STATS_RL:    cg2d_b (SOLVE_FOR_PRESSURE) S.D.=  4.04031640658818E+03
 cg2d: Sum(rhs),rhsMax =   3.82865320561792E-01  1.72159305078280E+00
(PID.TID 0000.0001)  cg2d: iter=     1 ; resid.=  2.28996373697335E-01
(PID.TID 0000.0001)  cg2d: iter=     2 ; resid.=  1.75514013870824E-01
(PID.TID 0000.0001)  cg2d: iter=     3 ; resid.=  1.55962411821419E-01
(PID.TID 0000.0001)  cg2d: iter=     4 ; resid.=  1.34068043367102E-01
(PID.TID 0000.0001)  cg2d: iter=     5 ; resid.=  9.80460391388887E-02
(PID.TID 0000.0001)  cg2d: iter=     6 ; resid.=  7.41756256492682E-02
(PID.TID 0000.0001)  cg2d: iter=     7 ; resid.=  6.41199062989291E-02
(PID.TID 0000.0001)  cg2d: iter=     8 ; resid.=  5.99118109418789E-02
(PID.TID 0000.0001)  cg2d: iter=     9 ; resid.=  5.07110977453908E-02
(PID.TID 0000.0001)  cg2d: iter=    10 ; resid.=  4.66418438224437E-02
(PID.TID 0000.0001)  cg2d: iter=    11 ; resid.=  4.24862056456424E-02
(PID.TID 0000.0001)  cg2d: iter=    12 ; resid.=  3.66707160471630E-02
(PID.TID 0000.0001)  cg2d: iter=    13 ; resid.=  2.99044410884310E-02
(PID.TID 0000.0001)  cg2d: iter=    14 ; resid.=  2.51862478119405E-02
(PID.TID 0000.0001)  cg2d: iter=    15 ; resid.=  2.15794579558021E-02
(PID.TID 0000.0001)  cg2d: iter=    16 ; resid.=  1.76977599358290E-02
(PID.TID 0000.0001)  cg2d: iter=    17 ; resid.=  1.50173962724112E-02
(PID.TID 0000.0001)  cg2d: iter=    18 ; resid.=  1.23752374033326E-02
(PID.TID 0000.0001)  cg2d: iter=    19 ; resid.=  9.98505373694242E-03
(PID.TID 0000.0001)  cg2d: iter=    20 ; resid.=  8.52847537433020E-03
(PID.TID 0000.0001)  cg2d: iter=    21 ; resid.=  7.27435607159482E-03
(PID.TID 0000.0001)  cg2d: iter=    22 ; resid.=  6.23148860199866E-03
(PID.TID 0000.0001)  cg2d: iter=    23 ; resid.=  4.90539888388153E-03
(PID.TID 0000.0001)  cg2d: iter=    24 ; resid.=  4.21680272965867E-03
(PID.TID 0000.0001)  cg2d: iter=    25 ; resid.=  3.37174655485183E-03
(PID.TID 0000.0001)  cg2d: iter=    26 ; resid.=  2.77803781725814E-03
(PID.TID 0000.0001)  cg2d: iter=    27 ; resid.=  2.45207175028599E-03
(PID.TID 0000.0001)  cg2d: iter=    28 ; resid.=  2.16269692832289E-03
(PID.TID 0000.0001)  cg2d: iter=    29 ; resid.=  1.89118621501196E-03
(PID.TID 0000.0001)  cg2d: iter=    30 ; resid.=  1.53485760411457E-03
(PID.TID 0000.0001)  cg2d: iter=    31 ; resid.=  1.26570662092907E-03
(PID.TID 0000.0001)  cg2d: iter=    32 ; resid.=  9.84867333016008E-04
(PID.TID 0000.0001)  cg2d: iter=    33 ; resid.=  8.69982801036314E-04
(PID.TID 0000.0001)  cg2d: iter=    34 ; resid.=  7.37050183583107E-04
(PID.TID 0000.0001)  cg2d: iter=    35 ; resid.=  5.92791563790764E-04
(PID.TID 0000.0001)  cg2d: iter=    36 ; resid.=  4.54985961873908E-04
(PID.TID 0000.0001)  cg2d: iter=    37 ; resid.=  3.52907279349319E-04
(PID.TID 0000.0001)  cg2d: iter=    38 ; resid.=  2.63767444333797E-04
(PID.TID 0000.0001)  cg2d: iter=    39 ; resid.=  2.18629380339576E-04
(PID.TID 0000.0001)  cg2d: iter=    40 ; resid.=  1.82510704595738E-04
(PID.TID 0000.0001)  cg2d: iter=    41 ; resid.=  1.62546156000773E-04
(PID.TID 0000.0001)  cg2d: iter=    42 ; resid.=  1.50956508647794E-04
(PID.TID 0000.0001)  cg2d: iter=    43 ; resid.=  1.37190780793703E-04
(PID.TID 0000.0001)  cg2d: iter=    44 ; resid.=  1.12425273961343E-04
(PID.TID 0000.0001)  cg2d: iter=    45 ; resid.=  9.29734106958622E-05
(PID.TID 0000.0001)  cg2d: iter=    46 ; resid.=  8.00324330682087E-05
(PID.TID 0000.0001)  cg2d: iter=    47 ; resid.=  6.91098238476577E-05
(PID.TID 0000.0001)  cg2d: iter=    48 ; resid.=  5.95883688350979E-05
(PID.TID 0000.0001)  cg2d: iter=    49 ; resid.=  4.60089628635677E-05
(PID.TID 0000.0001)  cg2d: iter=    50 ; resid.=  3.56160810718122E-05
(PID.TID 0000.0001)  cg2d: iter=    51 ; resid.=  2.71375048655467E-05
(PID.TID 0000.0001)  cg2d: iter=    52 ; resid.=  2.03964034374856E-05
(PID.TID 0000.0001)  cg2d: iter=    53 ; resid.=  1.73639392809631E-05
(PID.TID 0000.0001)  cg2d: iter=    54 ; resid.=  1.40351437472382E-05
(PID.TID 0000.0001)  cg2d: iter=    55 ; resid.=  1.20224414272211E-05
(PID.TID 0000.0001)  cg2d: iter=    56 ; resid.=  9.85462033910492E-06
(PID.TID 0000.0001)  cg2d: iter=    57 ; resid.=  7.73991307051534E-06
(PID.TID 0000.0001)  cg2d: iter=    58 ; resid.=  6.02026213857385E-06
(PID.TID 0000.0001)  cg2d: iter=    59 ; resid.=  4.74083926586833E-06
(PID.TID 0000.0001)  cg2d: iter=    60 ; resid.=  3.66994527625233E-06
(PID.TID 0000.0001)  cg2d: iter=    61 ; resid.=  2.89804083853005E-06
(PID.TID 0000.0001)  cg2d: iter=    62 ; resid.=  2.24949815784713E-06
(PID.TID 0000.0001)  cg2d: iter=    63 ; resid.=  1.81404318243597E-06
(PID.TID 0000.0001)  cg2d: iter=    64 ; resid.=  1.40868591926319E-06
(PID.TID 0000.0001)  cg2d: iter=    65 ; resid.=  1.18608456642671E-06
(PID.TID 0000.0001)  cg2d: iter=    66 ; resid.=  1.01150814468008E-06
(PID.TID 0000.0001)  cg2d: iter=    67 ; resid.=  9.74019500286170E-07
(PID.TID 0000.0001)  cg2d: iter=    68 ; resid.=  8.65365466694867E-07
(PID.TID 0000.0001)  cg2d: iter=    69 ; resid.=  7.25393699326237E-07
(PID.TID 0000.0001)  cg2d: iter=    70 ; resid.=  5.99542702416282E-07
(PID.TID 0000.0001)  cg2d: iter=    71 ; resid.=  5.35471708767642E-07
(PID.TID 0000.0001)  cg2d: iter=    72 ; resid.=  4.78706787674217E-07
(PID.TID 0000.0001)  cg2d: iter=    73 ; resid.=  3.84890228144194E-07
(PID.TID 0000.0001)  cg2d: iter=    74 ; resid.=  2.83327404550254E-07
(PID.TID 0000.0001)  cg2d: iter=    75 ; resid.=  1.98798729604821E-07
(PID.TID 0000.0001)  cg2d: iter=    76 ; resid.=  1.47518955822643E-07
(PID.TID 0000.0001)  cg2d: iter=    77 ; resid.=  1.11819355250650E-07
(PID.TID 0000.0001)  cg2d: iter=    78 ; resid.=  8.43413211276444E-08
(PID.TID 0000.0001)  cg2d: iter=    79 ; resid.=  7.08614079799850E-08
(PID.TID 0000.0001)  cg2d: iter=    80 ; resid.=  5.94241684802584E-08
(PID.TID 0000.0001)  cg2d: iter=    81 ; resid.=  4.84117732110429E-08
(PID.TID 0000.0001)  cg2d: iter=    82 ; resid.=  3.87239728273972E-08
(PID.TID 0000.0001)  cg2d: iter=    83 ; resid.=  2.90855347090742E-08
(PID.TID 0000.0001)  cg2d: iter=    84 ; resid.=  2.26229945377065E-08
(PID.TID 0000.0001)  cg2d: iter=    85 ; resid.=  1.59658883951788E-08
(PID.TID 0000.0001)  cg2d: iter=    86 ; resid.=  1.21719581666609E-08
(PID.TID 0000.0001)  cg2d: iter=    87 ; resid.=  8.78861174356742E-09
(PID.TID 0000.0001)  cg2d: iter=    88 ; resid.=  6.03553077998248E-09
(PID.TID 0000.0001)  cg2d: iter=    89 ; resid.=  4.40308771972198E-09
(PID.TID 0000.0001)  cg2d: iter=    90 ; resid.=  3.78192816750595E-09
(PID.TID 0000.0001)  cg2d: iter=    91 ; resid.=  3.07348464605224E-09
(PID.TID 0000.0001)  cg2d: iter=    92 ; resid.=  2.44532122716846E-09
(PID.TID 0000.0001)  cg2d: iter=    93 ; resid.=  1.96479049219785E-09
(PID.TID 0000.0001)  cg2d: iter=    94 ; resid.=  1.63631388417505E-09
(PID.TID 0000.0001)  cg2d: iter=    95 ; resid.=  1.49724628694687E-09
(PID.TID 0000.0001)  cg2d: iter=    96 ; resid.=  1.23769380888464E-09
(PID.TID 0000.0001)  cg2d: iter=    97 ; resid.=  9.55993232720954E-10
(PID.TID 0000.0001)  cg2d: iter=    98 ; resid.=  6.99009471849669E-10
(PID.TID 0000.0001)  cg2d: iter=    99 ; resid.=  5.41496795158896E-10
(PID.TID 0000.0001)  cg2d: iter=   100 ; resid.=  4.43751126157407E-10
(PID.TID 0000.0001)  cg2d: iter=   101 ; resid.=  3.41597907754395E-10
(PID.TID 0000.0001)  cg2d: iter=   102 ; resid.=  2.51943182851287E-10
(PID.TID 0000.0001)  cg2d: iter=   103 ; resid.=  1.87717133194696E-10
(PID.TID 0000.0001)  cg2d: iter=   104 ; resid.=  1.49128671082575E-10
(PID.TID 0000.0001)  cg2d: iter=   105 ; resid.=  1.18715773105109E-10
(PID.TID 0000.0001)  cg2d: iter=   106 ; resid.=  9.76149500815570E-11
(PID.TID 0000.0001)  cg2d: iter=   107 ; resid.=  7.11079378114626E-11
(PID.TID 0000.0001)  cg2d: iter=   108 ; resid.=  5.87593003332085E-11
(PID.TID 0000.0001)  cg2d: iter=   109 ; resid.=  4.61722534336839E-11
(PID.TID 0000.0001)  cg2d: iter=   110 ; resid.=  3.49205326436241E-11
(PID.TID 0000.0001)  cg2d: iter=   111 ; resid.=  2.99103977797713E-11
(PID.TID 0000.0001)  cg2d: iter=   112 ; resid.=  2.41648729288217E-11
(PID.TID 0000.0001)  cg2d: iter=   113 ; resid.=  1.98556457931110E-11
(PID.TID 0000.0001)  cg2d: iter=   114 ; resid.=  1.74982941381486E-11
(PID.TID 0000.0001)  cg2d: iter=   115 ; resid.=  1.44834967304679E-11
(PID.TID 0000.0001)  cg2d: iter=   116 ; resid.=  1.15241113236786E-11
(PID.TID 0000.0001)  cg2d: iter=   117 ; resid.=  9.50529391764842E-12
(PID.TID 0000.0001)  cg2d: iter=   118 ; resid.=  7.61969329253810E-12
(PID.TID 0000.0001)  cg2d: iter=   119 ; resid.=  6.07306621050004E-12
(PID.TID 0000.0001)  cg2d: iter=   120 ; resid.=  4.74771031316487E-12
(PID.TID 0000.0001)  cg2d: iter=   121 ; resid.=  3.48877423051960E-12
(PID.TID 0000.0001)  cg2d: iter=   122 ; resid.=  2.90420712739542E-12
(PID.TID 0000.0001)  cg2d: iter=   123 ; resid.=  2.49769695414263E-12
(PID.TID 0000.0001)  cg2d: iter=   124 ; resid.=  2.08244137495502E-12
(PID.TID 0000.0001)  cg2d: iter=   125 ; resid.=  1.72739196872643E-12
(PID.TID 0000.0001)  cg2d: iter=   126 ; resid.=  1.27727037263244E-12
(PID.TID 0000.0001)  cg2d: iter=   127 ; resid.=  9.63516772348195E-13
(PID.TID 0000.0001)  cg2d: iter=   128 ; resid.=  6.97907114822815E-13
(PID.TID 0000.0001)  cg2d: iter=   129 ; resid.=  4.84950222079260E-13
(PID.TID 0000.0001)  cg2d: iter=   130 ; resid.=  3.81535535553003E-13
(PID.TID 0000.0001)  cg2d: iter=   131 ; resid.=  2.89739711097421E-13
(PID.TID 0000.0001)  cg2d: iter=   132 ; resid.=  2.10187103065176E-13
(PID.TID 0000.0001)  cg2d: iter=   133 ; resid.=  1.48036471728269E-13
(PID.TID 0000.0001)  cg2d: iter=   134 ; resid.=  1.06940395358819E-13
(PID.TID 0000.0001)  cg2d: iter=   135 ; resid.=  7.47070686586200E-14
DEBUG_STATS_RL:    cg2d_x (SOLVE_FOR_PRESSURE)  min= -2.10351942183000E+01
DEBUG_STATS_RL:    cg2d_x (SOLVE_FOR_PRESSURE)  max=  1.19380193254777E+01
DEBUG_STATS_RL:    cg2d_x (SOLVE_FOR_PRESSURE) mean= -1.54266302328188E+00
DEBUG_STATS_RL:    cg2d_x (SOLVE_FOR_PRESSURE) S.D.=  7.22104067408659E+00
(PID.TID 0000.0001)      cg2d_init_res =   3.81827781554599E-01
(PID.TID 0000.0001)      cg2d_iters(min,last) =      -1     135
(PID.TID 0000.0001)      cg2d_last_res =   7.47070686586200E-14
(PID.TID 0000.0001) // =======================================================
(PID.TID 0000.0001) // Begin MONITOR dynamic field statistics
(PID.TID 0000.0001) // =======================================================
(PID.TID 0000.0001) %MON time_tsnumber                =                    61
(PID.TID 0000.0001) %MON time_secondsf                =   5.2704000000000E+06
(PID.TID 0000.0001) %MON dynstat_eta_max              =   1.2169234786420E+00
(PID.TID 0000.0001) %MON dynstat_eta_min              =  -2.1442603688381E+00
(PID.TID 0000.0001) %MON dynstat_eta_mean             =  -4.5228848679419E-03
(PID.TID 0000.0001) %MON dynstat_eta_sd               =   6.3415497685205E-01
(PID.TID 0000.0001) %MON dynstat_eta_del2             =   2.4474182123573E-03
(PID.TID 0000.0001) %MON dynstat_uvel_max             =   1.5417790900060E-01
(PID.TID 0000.0001) %MON dynstat_uvel_min             =  -1.4525838789035E-01
(PID.TID 0000.0001) %MON dynstat_uvel_mean            =   2.0438748427943E-03
(PID.TID 0000.0001) %MON dynstat_uvel_sd              =   2.0458161814426E-02
(PID.TID 0000.0001) %MON dynstat_uvel_del2            =   1.2806307988730E-04
(PID.TID 0000.0001) %MON dynstat_vvel_max             =   1.3980185564275E-01
(PID.TID 0000.0001) %MON dynstat_vvel_min             =  -1.0656335631690E-01
(PID.TID 0000.0001) %MON dynstat_vvel_mean            =   2.5247961108063E-04
(PID.TID 0000.0001) %MON dynstat_vvel_sd              =   1.1781184923292E-02
(PID.TID 0000.0001) %MON dynstat_vvel_del2            =   9.2409350113280E-05
(PID.TID 0000.0001) %MON dynstat_wvel_max             =   1.2563022058283E-04
(PID.TID 0000.0001) %MON dynstat_wvel_min             =  -1.2143560472858E-04
(PID.TID 0000.0001) %MON dynstat_wvel_mean            =  -9.2665168448428E-23
(PID.TID 0000.0001) %MON dynstat_wvel_sd              =   1.6973271295631E-05
(PID.TID 0000.0001) %MON dynstat_wvel_del2            =   1.6419249352804E-07
(PID.TID 0000.0001) %MON dynstat_theta_max            =   3.0677861283119E+01
(PID.TID 0000.0001) %MON dynstat_theta_min            =  -1.9646398904226E+00
(PID.TID 0000.0001) %MON dynstat_theta_mean           =   3.6532086328681E+00
(PID.TID 0000.0001) %MON dynstat_theta_sd             =   4.4241555863863E+00
(PID.TID 0000.0001) %MON dynstat_theta_del2           =   4.9405686783401E-03
(PID.TID 0000.0001) %MON dynstat_salt_max             =   3.7496118969290E+01
(PID.TID 0000.0001) %MON dynstat_salt_min             =   2.9911364894882E+01
(PID.TID 0000.0001) %MON dynstat_salt_mean            =   3.4747941451339E+01
(PID.TID 0000.0001) %MON dynstat_salt_sd              =   2.9634928861068E-01
(PID.TID 0000.0001) %MON dynstat_salt_del2            =   9.9221052075643E-04
(PID.TID 0000.0001) %MON dynstat_sst_max              =   3.0677861283119E+01
(PID.TID 0000.0001) %MON dynstat_sst_min              =  -1.9646398904226E+00
(PID.TID 0000.0001) %MON dynstat_sst_mean             =   1.9025067863153E+01
(PID.TID 0000.0001) %MON dynstat_sst_sd               =   9.0679721570025E+00
(PID.TID 0000.0001) %MON dynstat_sst_del2             =   2.7998182978834E-02
(PID.TID 0000.0001) %MON dynstat_sss_max              =   3.7471520442274E+01
(PID.TID 0000.0001) %MON dynstat_sss_min              =   2.9911364894882E+01
(PID.TID 0000.0001) %MON dynstat_sss_mean             =   3.4870470919332E+01
(PID.TID 0000.0001) %MON dynstat_sss_sd               =   9.8093820203338E-01
(PID.TID 0000.0001) %MON dynstat_sss_del2             =   8.0106162862842E-03
(PID.TID 0000.0001) %MON forcing_qnet_max             =   3.1647996520996E+02
(PID.TID 0000.0001) %MON forcing_qnet_min             =  -1.6834477996826E+02
(PID.TID 0000.0001) %MON forcing_qnet_mean            =  -1.0615158484544E+01
(PID.TID 0000.0001) %MON forcing_qnet_sd              =   5.9847119932196E+01
(PID.TID 0000.0001) %MON forcing_qnet_del2            =   8.8105768488919E-01
(PID.TID 0000.0001) %MON forcing_qsw_max              =   0.0000000000000E+00
(PID.TID 0000.0001) %MON forcing_qsw_min              =   0.0000000000000E+00
(PID.TID 0000.0001) %MON forcing_qsw_mean             =   0.0000000000000E+00
(PID.TID 0000.0001) %MON forcing_qsw_sd               =   0.0000000000000E+00
(PID.TID 0000.0001) %MON forcing_qsw_del2             =   0.0000000000000E+00
(PID.TID 0000.0001) %MON forcing_empmr_max            =   6.9195166929603E-05
(PID.TID 0000.0001) %MON forcing_empmr_min            =  -7.7276723686737E-05
(PID.TID 0000.0001) %MON forcing_empmr_mean           =   7.4706001679403E-07
(PID.TID 0000.0001) %MON forcing_empmr_sd             =   2.6871436583064E-05
(PID.TID 0000.0001) %MON forcing_empmr_del2           =   3.5417501506189E-07
(PID.TID 0000.0001) %MON forcing_fu_max               =   3.2843016088009E-01
(PID.TID 0000.0001) %MON forcing_fu_min               =  -2.9650179296732E-01
(PID.TID 0000.0001) %MON forcing_fu_mean              =   1.9043735458512E-02
(PID.TID 0000.0001) %MON forcing_fu_sd                =   9.5329430846208E-02
(PID.TID 0000.0001) %MON forcing_fu_del2              =   7.1458713394150E-04
(PID.TID 0000.0001) %MON forcing_fv_max               =   1.5295380353928E-01
(PID.TID 0000.0001) %MON forcing_fv_min               =  -1.7738871276379E-01
(PID.TID 0000.0001) %MON forcing_fv_mean              =  -7.3731501905024E-03
(PID.TID 0000.0001) %MON forcing_fv_sd                =   4.1902694266275E-02
(PID.TID 0000.0001) %MON forcing_fv_del2              =   4.6838107518311E-04
(PID.TID 0000.0001) %MON trAdv_CFL_u_max              =   4.4378054943093E-02
(PID.TID 0000.0001) %MON trAdv_CFL_v_max              =   2.7246317993048E-02
(PID.TID 0000.0001) %MON trAdv_CFL_w_max              =   4.0672572006926E-02
(PID.TID 0000.0001) %MON advcfl_uvel_max              =   4.3640206857092E-02
(PID.TID 0000.0001) %MON advcfl_vvel_max              =   2.7161258399187E-02
(PID.TID 0000.0001) %MON advcfl_wvel_max              =   5.0485818876077E-02
(PID.TID 0000.0001) %MON advcfl_W_hf_max              =   5.7128689780824E-02
(PID.TID 0000.0001) %MON pe_b_mean                    =   5.1462881723032E-04
(PID.TID 0000.0001) %MON ke_max                       =   1.7798800120907E-02
(PID.TID 0000.0001) %MON ke_mean                      =   2.5438565040366E-04
(PID.TID 0000.0001) %MON ke_vol                       =   1.3226782436723E+18
(PID.TID 0000.0001) %MON vort_r_min                   =  -4.2407494809415E-07
(PID.TID 0000.0001) %MON vort_r_max                   =   5.4911829062853E-07
(PID.TID 0000.0001) %MON vort_a_mean                  =  -2.5274808010991E-05
(PID.TID 0000.0001) %MON vort_a_sd                    =   7.3604520435987E-05
(PID.TID 0000.0001) %MON vort_p_mean                  =  -3.1845656572518E-05
(PID.TID 0000.0001) %MON vort_p_sd                    =   1.3162350091494E-04
(PID.TID 0000.0001) %MON surfExpan_theta_mean         =   2.2539946195573E-07
(PID.TID 0000.0001) %MON surfExpan_salt_mean          =  -1.6901334314018E-08
(PID.TID 0000.0001) // =======================================================
(PID.TID 0000.0001) // End MONITOR dynamic field statistics
(PID.TID 0000.0001) // =======================================================
 EXTERNAL_FIELDS_LOAD,        61 : iP,iLd,i0,i1=    2    3    2    3 ; Wght=  0.4666666667  0.5333333333
 EXTERNAL_FIELDS_LOAD: (fu0,1),fu,fv= -1.4435E-02 -2.7199E-02 -2.1242E-02 -8.5382E-03
 EXTERNAL_FIELDS_LOAD: SST,SSS,Q,E-P= -3.4628E-01  3.4505E+01  2.2710E+02  8.7524E-06
DEBUG_STATS_RL:          Uvel (THERMODYNAMICS)  min= -1.45258387890353E-01
DEBUG_STATS_RL:          Uvel (THERMODYNAMICS)  max=  1.54177909000596E-01
DEBUG_STATS_RL:          Uvel (THERMODYNAMICS) mean=  6.02726418128712E-03
DEBUG_STATS_RL:          Uvel (THERMODYNAMICS) S.D.=  2.61956736836358E-02
DEBUG_STATS_RL:          Vvel (THERMODYNAMICS)  min= -1.06563356316903E-01
DEBUG_STATS_RL:          Vvel (THERMODYNAMICS)  max=  1.39801855642754E-01
DEBUG_STATS_RL:          Vvel (THERMODYNAMICS) mean=  7.63340321978407E-04
DEBUG_STATS_RL:          Vvel (THERMODYNAMICS) S.D.=  1.66978356520960E-02
DEBUG_STATS_RL:          Wvel (THERMODYNAMICS)  min= -1.21435604728581E-04
DEBUG_STATS_RL:          Wvel (THERMODYNAMICS)  max=  1.25630220582830E-04
DEBUG_STATS_RL:          Wvel (THERMODYNAMICS) mean= -1.46650618632694E-07
DEBUG_STATS_RL:          Wvel (THERMODYNAMICS) S.D.=  1.45030327154852E-05
DEBUG_STATS_RL:         Theta (THERMODYNAMICS)  min= -1.96310364307162E+00
DEBUG_STATS_RL:         Theta (THERMODYNAMICS)  max=  3.06808385815116E+01
DEBUG_STATS_RL:         Theta (THERMODYNAMICS) mean=  3.24968448164180E+00
DEBUG_STATS_RL:         Theta (THERMODYNAMICS) S.D.=  5.87840484781767E+00
DEBUG_STATS_RL:          Salt (THERMODYNAMICS)  min=  3.00000000000000E-02
DEBUG_STATS_RL:          Salt (THERMODYNAMICS)  max=  3.74963230993464E+01
DEBUG_STATS_RL:          Salt (THERMODYNAMICS) mean=  1.88747777307290E+01
DEBUG_STATS_RL:          Salt (THERMODYNAMICS) S.D.=  1.73003107598183E+01
DEBUG_STATS_RL:         GtNm1 (THERMODYNAMICS)  min= -3.07949813384995E-06
DEBUG_STATS_RL:         GtNm1 (THERMODYNAMICS)  max=  2.14900675679527E-06
DEBUG_STATS_RL:         GtNm1 (THERMODYNAMICS) mean=  4.16574192566458E-09
DEBUG_STATS_RL:         GtNm1 (THERMODYNAMICS) S.D.=  1.83630648096937E-07
DEBUG_STATS_RL:         GsNm1 (THERMODYNAMICS)  min= -4.70532829293933E-07
DEBUG_STATS_RL:         GsNm1 (THERMODYNAMICS)  max=  3.24918864909445E-07
DEBUG_STATS_RL:         GsNm1 (THERMODYNAMICS) mean= -3.88698625179731E-10
DEBUG_STATS_RL:         GsNm1 (THERMODYNAMICS) S.D.=  1.85913448185998E-08
DEBUG_STATS_RL:                EtaN (DYNAMICS)  min= -2.14426036883808E+00
DEBUG_STATS_RL:                EtaN (DYNAMICS)  max=  1.21692347864197E+00
DEBUG_STATS_RL:                EtaN (DYNAMICS) mean= -1.57254130813648E-01
DEBUG_STATS_RL:                EtaN (DYNAMICS) S.D.=  7.36089773097515E-01
DEBUG_STATS_RL:                Uvel (DYNAMICS)  min= -1.45258387890353E-01
DEBUG_STATS_RL:                Uvel (DYNAMICS)  max=  1.54177909000596E-01
DEBUG_STATS_RL:                Uvel (DYNAMICS) mean=  6.02726418128712E-03
DEBUG_STATS_RL:                Uvel (DYNAMICS) S.D.=  2.61956736836358E-02
DEBUG_STATS_RL:                Vvel (DYNAMICS)  min= -1.06563356316903E-01
DEBUG_STATS_RL:                Vvel (DYNAMICS)  max=  1.39801855642754E-01
DEBUG_STATS_RL:                Vvel (DYNAMICS) mean=  7.63340321978407E-04
DEBUG_STATS_RL:                Vvel (DYNAMICS) S.D.=  1.66978356520960E-02
DEBUG_STATS_RL:                Wvel (DYNAMICS)  min= -1.21435604728581E-04
DEBUG_STATS_RL:                Wvel (DYNAMICS)  max=  1.25630220582830E-04
DEBUG_STATS_RL:                Wvel (DYNAMICS) mean= -1.46650618632694E-07
DEBUG_STATS_RL:                Wvel (DYNAMICS) S.D.=  1.45030327154852E-05
DEBUG_STATS_RL:               Theta (DYNAMICS)  min= -1.96310364307162E+00
DEBUG_STATS_RL:               Theta (DYNAMICS)  max=  3.06808385815116E+01
DEBUG_STATS_RL:               Theta (DYNAMICS) mean=  3.24968448164180E+00
DEBUG_STATS_RL:               Theta (DYNAMICS) S.D.=  5.87840484781767E+00
DEBUG_STATS_RL:                Salt (DYNAMICS)  min=  3.00000000000000E-02
DEBUG_STATS_RL:                Salt (DYNAMICS)  max=  3.74963230993464E+01
DEBUG_STATS_RL:                Salt (DYNAMICS) mean=  1.88747777307290E+01
DEBUG_STATS_RL:                Salt (DYNAMICS) S.D.=  1.73003107598183E+01
DEBUG_STATS_RL:                  Gu (DYNAMICS)  min= -1.44849085529176E-01
DEBUG_STATS_RL:                  Gu (DYNAMICS)  max=  1.57505993985429E-01
DEBUG_STATS_RL:                  Gu (DYNAMICS) mean=  6.03005182708970E-03
DEBUG_STATS_RL:                  Gu (DYNAMICS) S.D.=  2.66705806518646E-02
DEBUG_STATS_RL:                  Gv (DYNAMICS)  min= -1.19758566300135E-01
DEBUG_STATS_RL:                  Gv (DYNAMICS)  max=  1.41160439124767E-01
DEBUG_STATS_RL:                  Gv (DYNAMICS) mean=  3.36237244404798E-03
DEBUG_STATS_RL:                  Gv (DYNAMICS) S.D.=  1.76982257265222E-02
DEBUG_STATS_RL:               GuNm1 (DYNAMICS)  min= -1.00545041376604E-05
DEBUG_STATS_RL:               GuNm1 (DYNAMICS)  max=  9.48539622366169E-06
DEBUG_STATS_RL:               GuNm1 (DYNAMICS) mean=  1.14002081448502E-08
DEBUG_STATS_RL:               GuNm1 (DYNAMICS) S.D.=  1.21385518037625E-06
DEBUG_STATS_RL:               GvNm1 (DYNAMICS)  min= -1.00660683358301E-05
DEBUG_STATS_RL:               GvNm1 (DYNAMICS)  max=  1.58438765584615E-05
DEBUG_STATS_RL:               GvNm1 (DYNAMICS) mean=  7.46422720430444E-07
DEBUG_STATS_RL:               GvNm1 (DYNAMICS) S.D.=  2.66303980373911E-06
DEBUG_STATS_RL:               GtNm1 (DYNAMICS)  min= -3.07949813384995E-06
DEBUG_STATS_RL:               GtNm1 (DYNAMICS)  max=  2.14900675679527E-06
DEBUG_STATS_RL:               GtNm1 (DYNAMICS) mean=  4.16574192566458E-09
DEBUG_STATS_RL:               GtNm1 (DYNAMICS) S.D.=  1.83630648096937E-07
DEBUG_STATS_RL:               GsNm1 (DYNAMICS)  min= -4.70532829293933E-07
DEBUG_STATS_RL:               GsNm1 (DYNAMICS)  max=  3.24918864909445E-07
DEBUG_STATS_RL:               GsNm1 (DYNAMICS) mean= -3.88698625179731E-10
DEBUG_STATS_RL:               GsNm1 (DYNAMICS) S.D.=  1.85913448185998E-08
DEBUG_STATS_RL:    cg2d_b (SOLVE_FOR_PRESSURE)  min= -1.92201553424752E+04
DEBUG_STATS_RL:    cg2d_b (SOLVE_FOR_PRESSURE)  max=  2.63031377102043E+04
DEBUG_STATS_RL:    cg2d_b (SOLVE_FOR_PRESSURE) mean=  4.39357949220581E+00
DEBUG_STATS_RL:    cg2d_b (SOLVE_FOR_PRESSURE) S.D.=  4.04622662734542E+03
 cg2d: Sum(rhs),rhsMax =   3.86689095290408E-01  1.72766050950342E+00
(PID.TID 0000.0001)  cg2d: iter=     1 ; resid.=  2.30033953569543E-01
(PID.TID 0000.0001)  cg2d: iter=     2 ; resid.=  1.85527369211638E-01
(PID.TID 0000.0001)  cg2d: iter=     3 ; resid.=  1.70859001941465E-01
(PID.TID 0000.0001)  cg2d: iter=     4 ; resid.=  1.48722487259995E-01
(PID.TID 0000.0001)  cg2d: iter=     5 ; resid.=  1.11397191417962E-01
(PID.TID 0000.0001)  cg2d: iter=     6 ; resid.=  8.80267858232143E-02
(PID.TID 0000.0001)  cg2d: iter=     7 ; resid.=  7.99720629612346E-02
(PID.TID 0000.0001)  cg2d: iter=     8 ; resid.=  7.68167403315859E-02
(PID.TID 0000.0001)  cg2d: iter=     9 ; resid.=  6.40442933561493E-02
(PID.TID 0000.0001)  cg2d: iter=    10 ; resid.=  5.69577409698768E-02
(PID.TID 0000.0001)  cg2d: iter=    11 ; resid.=  4.91769573408174E-02
(PID.TID 0000.0001)  cg2d: iter=    12 ; resid.=  4.15387206576542E-02
(PID.TID 0000.0001)  cg2d: iter=    13 ; resid.=  3.28573323527905E-02
(PID.TID 0000.0001)  cg2d: iter=    14 ; resid.=  2.68849319650508E-02
(PID.TID 0000.0001)  cg2d: iter=    15 ; resid.=  2.22832908882700E-02
(PID.TID 0000.0001)  cg2d: iter=    16 ; resid.=  1.79067264577768E-02
(PID.TID 0000.0001)  cg2d: iter=    17 ; resid.=  1.53518271390496E-02
(PID.TID 0000.0001)  cg2d: iter=    18 ; resid.=  1.26038784934539E-02
(PID.TID 0000.0001)  cg2d: iter=    19 ; resid.=  1.04184995075625E-02
(PID.TID 0000.0001)  cg2d: iter=    20 ; resid.=  9.13166478828604E-03
(PID.TID 0000.0001)  cg2d: iter=    21 ; resid.=  8.00160466330274E-03
(PID.TID 0000.0001)  cg2d: iter=    22 ; resid.=  6.94640813789272E-03
(PID.TID 0000.0001)  cg2d: iter=    23 ; resid.=  5.53835429526459E-03
(PID.TID 0000.0001)  cg2d: iter=    24 ; resid.=  4.77518417192797E-03
(PID.TID 0000.0001)  cg2d: iter=    25 ; resid.=  3.87031321170275E-03
(PID.TID 0000.0001)  cg2d: iter=    26 ; resid.=  3.17685040887006E-03
(PID.TID 0000.0001)  cg2d: iter=    27 ; resid.=  2.74889431458123E-03
(PID.TID 0000.0001)  cg2d: iter=    28 ; resid.=  2.38930795737052E-03
(PID.TID 0000.0001)  cg2d: iter=    29 ; resid.=  2.03260728463991E-03
(PID.TID 0000.0001)  cg2d: iter=    30 ; resid.=  1.61071490743424E-03
(PID.TID 0000.0001)  cg2d: iter=    31 ; resid.=  1.28471651125678E-03
(PID.TID 0000.0001)  cg2d: iter=    32 ; resid.=  9.88595041583650E-04
(PID.TID 0000.0001)  cg2d: iter=    33 ; resid.=  8.66439027164871E-04
(PID.TID 0000.0001)  cg2d: iter=    34 ; resid.=  7.43401656408512E-04
(PID.TID 0000.0001)  cg2d: iter=    35 ; resid.=  6.11388090949028E-04
(PID.TID 0000.0001)  cg2d: iter=    36 ; resid.=  4.79144515883246E-04
(PID.TID 0000.0001)  cg2d: iter=    37 ; resid.=  3.88332798983303E-04
(PID.TID 0000.0001)  cg2d: iter=    38 ; resid.=  3.08153957825472E-04
(PID.TID 0000.0001)  cg2d: iter=    39 ; resid.=  2.72696753990578E-04
(PID.TID 0000.0001)  cg2d: iter=    40 ; resid.=  2.36942165898517E-04
(PID.TID 0000.0001)  cg2d: iter=    41 ; resid.=  2.16188562823506E-04
(PID.TID 0000.0001)  cg2d: iter=    42 ; resid.=  2.01539951717792E-04
(PID.TID 0000.0001)  cg2d: iter=    43 ; resid.=  1.78901892824955E-04
(PID.TID 0000.0001)  cg2d: iter=    44 ; resid.=  1.42692812406773E-04
(PID.TID 0000.0001)  cg2d: iter=    45 ; resid.=  1.16343818501747E-04
(PID.TID 0000.0001)  cg2d: iter=    46 ; resid.=  9.67665654831284E-05
(PID.TID 0000.0001)  cg2d: iter=    47 ; resid.=  8.02844089238721E-05
(PID.TID 0000.0001)  cg2d: iter=    48 ; resid.=  6.68465486891549E-05
(PID.TID 0000.0001)  cg2d: iter=    49 ; resid.=  5.22765919440736E-05
(PID.TID 0000.0001)  cg2d: iter=    50 ; resid.=  4.12555362150842E-05
(PID.TID 0000.0001)  cg2d: iter=    51 ; resid.=  3.23346323894349E-05
(PID.TID 0000.0001)  cg2d: iter=    52 ; resid.=  2.49256888548542E-05
(PID.TID 0000.0001)  cg2d: iter=    53 ; resid.=  2.21169885839178E-05
(PID.TID 0000.0001)  cg2d: iter=    54 ; resid.=  1.84570467848313E-05
(PID.TID 0000.0001)  cg2d: iter=    55 ; resid.=  1.62555567445732E-05
(PID.TID 0000.0001)  cg2d: iter=    56 ; resid.=  1.31787447222292E-05
(PID.TID 0000.0001)  cg2d: iter=    57 ; resid.=  1.03725192383302E-05
(PID.TID 0000.0001)  cg2d: iter=    58 ; resid.=  8.17192959772768E-06
(PID.TID 0000.0001)  cg2d: iter=    59 ; resid.=  6.31794867194257E-06
(PID.TID 0000.0001)  cg2d: iter=    60 ; resid.=  4.93355141269858E-06
(PID.TID 0000.0001)  cg2d: iter=    61 ; resid.=  3.82959718804741E-06
(PID.TID 0000.0001)  cg2d: iter=    62 ; resid.=  2.92392212625257E-06
(PID.TID 0000.0001)  cg2d: iter=    63 ; resid.=  2.26756474509254E-06
(PID.TID 0000.0001)  cg2d: iter=    64 ; resid.=  1.70808464602693E-06
(PID.TID 0000.0001)  cg2d: iter=    65 ; resid.=  1.37506663104485E-06
(PID.TID 0000.0001)  cg2d: iter=    66 ; resid.=  1.06616358881145E-06
(PID.TID 0000.0001)  cg2d: iter=    67 ; resid.=  9.20477427004367E-07
(PID.TID 0000.0001)  cg2d: iter=    68 ; resid.=  7.48260192109427E-07
(PID.TID 0000.0001)  cg2d: iter=    69 ; resid.=  5.71800472990601E-07
(PID.TID 0000.0001)  cg2d: iter=    70 ; resid.=  4.29137198177858E-07
(PID.TID 0000.0001)  cg2d: iter=    71 ; resid.=  3.48852408193550E-07
(PID.TID 0000.0001)  cg2d: iter=    72 ; resid.=  2.95826219279581E-07
(PID.TID 0000.0001)  cg2d: iter=    73 ; resid.=  2.33425677215830E-07
(PID.TID 0000.0001)  cg2d: iter=    74 ; resid.=  1.74103773448607E-07
(PID.TID 0000.0001)  cg2d: iter=    75 ; resid.=  1.25232555023403E-07
(PID.TID 0000.0001)  cg2d: iter=    76 ; resid.=  9.33928776900621E-08
(PID.TID 0000.0001)  cg2d: iter=    77 ; resid.=  6.92607937494923E-08
(PID.TID 0000.0001)  cg2d: iter=    78 ; resid.=  4.98567967735571E-08
(PID.TID 0000.0001)  cg2d: iter=    79 ; resid.=  3.99769485913736E-08
(PID.TID 0000.0001)  cg2d: iter=    80 ; resid.=  3.30949003584570E-08
(PID.TID 0000.0001)  cg2d: iter=    81 ; resid.=  2.74940870158574E-08
(PID.TID 0000.0001)  cg2d: iter=    82 ; resid.=  2.27060561443390E-08
(PID.TID 0000.0001)  cg2d: iter=    83 ; resid.=  1.79002497520419E-08
(PID.TID 0000.0001)  cg2d: iter=    84 ; resid.=  1.50104566672541E-08
(PID.TID 0000.0001)  cg2d: iter=    85 ; resid.=  1.14077568367165E-08
(PID.TID 0000.0001)  cg2d: iter=    86 ; resid.=  9.42882416201393E-09
(PID.TID 0000.0001)  cg2d: iter=    87 ; resid.=  7.24398759046846E-09
(PID.TID 0000.0001)  cg2d: iter=    88 ; resid.=  5.55704086854077E-09
(PID.TID 0000.0001)  cg2d: iter=    89 ; resid.=  4.73450645115660E-09
(PID.TID 0000.0001)  cg2d: iter=    90 ; resid.=  4.71474954680452E-09
(PID.TID 0000.0001)  cg2d: iter=    91 ; resid.=  4.11939949277272E-09
(PID.TID 0000.0001)  cg2d: iter=    92 ; resid.=  3.34305603780991E-09
(PID.TID 0000.0001)  cg2d: iter=    93 ; resid.=  2.68323308034684E-09
(PID.TID 0000.0001)  cg2d: iter=    94 ; resid.=  2.21383232540109E-09
(PID.TID 0000.0001)  cg2d: iter=    95 ; resid.=  1.91493037472492E-09
(PID.TID 0000.0001)  cg2d: iter=    96 ; resid.=  1.47240143009231E-09
(PID.TID 0000.0001)  cg2d: iter=    97 ; resid.=  1.08275569176891E-09
(PID.TID 0000.0001)  cg2d: iter=    98 ; resid.=  7.86362564831768E-10
(PID.TID 0000.0001)  cg2d: iter=    99 ; resid.=  6.38737002236297E-10
(PID.TID 0000.0001)  cg2d: iter=   100 ; resid.=  5.47003187647256E-10
(PID.TID 0000.0001)  cg2d: iter=   101 ; resid.=  4.35029218057086E-10
(PID.TID 0000.0001)  cg2d: iter=   102 ; resid.=  3.32298100240538E-10
(PID.TID 0000.0001)  cg2d: iter=   103 ; resid.=  2.55403068545372E-10
(PID.TID 0000.0001)  cg2d: iter=   104 ; resid.=  2.21953734700884E-10
(PID.TID 0000.0001)  cg2d: iter=   105 ; resid.=  1.90491747711483E-10
(PID.TID 0000.0001)  cg2d: iter=   106 ; resid.=  1.67678733503653E-10
(PID.TID 0000.0001)  cg2d: iter=   107 ; resid.=  1.34384031159266E-10
(PID.TID 0000.0001)  cg2d: iter=   108 ; resid.=  1.22415670981123E-10
(PID.TID 0000.0001)  cg2d: iter=   109 ; resid.=  1.03667472303605E-10
(PID.TID 0000.0001)  cg2d: iter=   110 ; resid.=  8.29554793380183E-11
(PID.TID 0000.0001)  cg2d: iter=   111 ; resid.=  7.43189585864134E-11
(PID.TID 0000.0001)  cg2d: iter=   112 ; resid.=  5.82767345559653E-11
(PID.TID 0000.0001)  cg2d: iter=   113 ; resid.=  4.57421337020218E-11
(PID.TID 0000.0001)  cg2d: iter=   114 ; resid.=  3.66657294435533E-11
(PID.TID 0000.0001)  cg2d: iter=   115 ; resid.=  2.62217759861164E-11
(PID.TID 0000.0001)  cg2d: iter=   116 ; resid.=  1.87236350402396E-11
(PID.TID 0000.0001)  cg2d: iter=   117 ; resid.=  1.40994805002336E-11
(PID.TID 0000.0001)  cg2d: iter=   118 ; resid.=  1.02829431189849E-11
(PID.TID 0000.0001)  cg2d: iter=   119 ; resid.=  7.79175146178505E-12
(PID.TID 0000.0001)  cg2d: iter=   120 ; resid.=  5.76327485187204E-12
(PID.TID 0000.0001)  cg2d: iter=   121 ; resid.=  4.07770759135284E-12
(PID.TID 0000.0001)  cg2d: iter=   122 ; resid.=  3.26133063801888E-12
(PID.TID 0000.0001)  cg2d: iter=   123 ; resid.=  2.78823287693078E-12
(PID.TID 0000.0001)  cg2d: iter=   124 ; resid.=  2.27887338057211E-12
(PID.TID 0000.0001)  cg2d: iter=   125 ; resid.=  1.78995580912705E-12
(PID.TID 0000.0001)  cg2d: iter=   126 ; resid.=  1.24350729615053E-12
(PID.TID 0000.0001)  cg2d: iter=   127 ; resid.=  8.67677022497068E-13
(PID.TID 0000.0001)  cg2d: iter=   128 ; resid.=  6.07320000222126E-13
(PID.TID 0000.0001)  cg2d: iter=   129 ; resid.=  4.09696095527104E-13
(PID.TID 0000.0001)  cg2d: iter=   130 ; resid.=  3.14579992250233E-13
(PID.TID 0000.0001)  cg2d: iter=   131 ; resid.=  2.37525434553537E-13
(PID.TID 0000.0001)  cg2d: iter=   132 ; resid.=  1.75956372746115E-13
(PID.TID 0000.0001)  cg2d: iter=   133 ; resid.=  1.25613431163672E-13
(PID.TID 0000.0001)  cg2d: iter=   134 ; resid.=  9.20376517102253E-14
DEBUG_STATS_RL:    cg2d_x (SOLVE_FOR_PRESSURE)  min= -2.11455996958503E+01
DEBUG_STATS_RL:    cg2d_x (SOLVE_FOR_PRESSURE)  max=  1.15994489848743E+01
DEBUG_STATS_RL:    cg2d_x (SOLVE_FOR_PRESSURE) mean= -1.55437296722748E+00
DEBUG_STATS_RL:    cg2d_x (SOLVE_FOR_PRESSURE) S.D.=  7.27738905013292E+00
(PID.TID 0000.0001)      cg2d_init_res =   3.79306289830385E-01
(PID.TID 0000.0001)      cg2d_iters(min,last) =      -1     134
(PID.TID 0000.0001)      cg2d_last_res =   9.20376517102253E-14
(PID.TID 0000.0001) // =======================================================
(PID.TID 0000.0001) // Begin MONITOR dynamic field statistics
(PID.TID 0000.0001) // =======================================================
(PID.TID 0000.0001) %MON time_tsnumber                =                    62
(PID.TID 0000.0001) %MON time_secondsf                =   5.3568000000000E+06
(PID.TID 0000.0001) %MON dynstat_eta_max              =   1.1824107018220E+00
(PID.TID 0000.0001) %MON dynstat_eta_min              =  -2.1555147498318E+00
(PID.TID 0000.0001) %MON dynstat_eta_mean             =  -4.5841554142452E-03
(PID.TID 0000.0001) %MON dynstat_eta_sd               =   6.3572840502881E-01
(PID.TID 0000.0001) %MON dynstat_eta_del2             =   2.4444755431261E-03
(PID.TID 0000.0001) %MON dynstat_uvel_max             =   1.5558923883478E-01
(PID.TID 0000.0001) %MON dynstat_uvel_min             =  -1.4634906712911E-01
(PID.TID 0000.0001) %MON dynstat_uvel_mean            =   2.1954917076829E-03
(PID.TID 0000.0001) %MON dynstat_uvel_sd              =   2.0516885372078E-02
(PID.TID 0000.0001) %MON dynstat_uvel_del2            =   1.2965266185343E-04
(PID.TID 0000.0001) %MON dynstat_vvel_max             =   1.4363236137164E-01
(PID.TID 0000.0001) %MON dynstat_vvel_min             =  -1.1309743807362E-01
(PID.TID 0000.0001) %MON dynstat_vvel_mean            =   2.2212134719366E-04
(PID.TID 0000.0001) %MON dynstat_vvel_sd              =   1.1714376695343E-02
(PID.TID 0000.0001) %MON dynstat_vvel_del2            =   9.2782971803166E-05
(PID.TID 0000.0001) %MON dynstat_wvel_max             =   1.3782043856063E-04
(PID.TID 0000.0001) %MON dynstat_wvel_min             =  -1.2502930553809E-04
(PID.TID 0000.0001) %MON dynstat_wvel_mean            =  -2.7726152381302E-22
(PID.TID 0000.0001) %MON dynstat_wvel_sd              =   1.6816988600375E-05
(PID.TID 0000.0001) %MON dynstat_wvel_del2            =   1.6336896571595E-07
(PID.TID 0000.0001) %MON dynstat_theta_max            =   3.0680838581512E+01
(PID.TID 0000.0001) %MON dynstat_theta_min            =  -1.9631036430716E+00
(PID.TID 0000.0001) %MON dynstat_theta_mean           =   3.6532591617148E+00
(PID.TID 0000.0001) %MON dynstat_theta_sd             =   4.4243428400718E+00
(PID.TID 0000.0001) %MON dynstat_theta_del2           =   4.9416538333537E-03
(PID.TID 0000.0001) %MON dynstat_salt_max             =   3.7496323099346E+01
(PID.TID 0000.0001) %MON dynstat_salt_min             =   2.9915457608688E+01
(PID.TID 0000.0001) %MON dynstat_salt_mean            =   3.4747943620530E+01
(PID.TID 0000.0001) %MON dynstat_salt_sd              =   2.9635628946554E-01
(PID.TID 0000.0001) %MON dynstat_salt_del2            =   9.9215077135181E-04
(PID.TID 0000.0001) %MON dynstat_sst_max              =   3.0680838581512E+01
(PID.TID 0000.0001) %MON dynstat_sst_min              =  -1.9631036430716E+00
(PID.TID 0000.0001) %MON dynstat_sst_mean             =   1.9030749022234E+01
(PID.TID 0000.0001) %MON dynstat_sst_sd               =   9.0721970837790E+00
(PID.TID 0000.0001) %MON dynstat_sst_del2             =   2.8038469390594E-02
(PID.TID 0000.0001) %MON dynstat_sss_max              =   3.7472536253919E+01
(PID.TID 0000.0001) %MON dynstat_sss_min              =   2.9915457608688E+01
(PID.TID 0000.0001) %MON dynstat_sss_mean             =   3.4870168873345E+01
(PID.TID 0000.0001) %MON dynstat_sss_sd               =   9.8127764194634E-01
(PID.TID 0000.0001) %MON dynstat_sss_del2             =   8.0203660440118E-03
(PID.TID 0000.0001) %MON forcing_qnet_max             =   3.1368181355794E+02
(PID.TID 0000.0001) %MON forcing_qnet_min             =  -1.6804550069173E+02
(PID.TID 0000.0001) %MON forcing_qnet_mean            =  -1.0391818984917E+01
(PID.TID 0000.0001) %MON forcing_qnet_sd              =   5.8698172444596E+01
(PID.TID 0000.0001) %MON forcing_qnet_del2            =   8.7784570715978E-01
(PID.TID 0000.0001) %MON forcing_qsw_max              =   0.0000000000000E+00
(PID.TID 0000.0001) %MON forcing_qsw_min              =   0.0000000000000E+00
(PID.TID 0000.0001) %MON forcing_qsw_mean             =   0.0000000000000E+00
(PID.TID 0000.0001) %MON forcing_qsw_sd               =   0.0000000000000E+00
(PID.TID 0000.0001) %MON forcing_qsw_del2             =   0.0000000000000E+00
(PID.TID 0000.0001) %MON forcing_empmr_max            =   6.9189410586053E-05
(PID.TID 0000.0001) %MON forcing_empmr_min            =  -7.7675903279821E-05
(PID.TID 0000.0001) %MON forcing_empmr_mean           =   7.3397008591968E-07
(PID.TID 0000.0001) %MON forcing_empmr_sd             =   2.6815629393034E-05
(PID.TID 0000.0001) %MON forcing_empmr_del2           =   3.5456126682160E-07
(PID.TID 0000.0001) %MON forcing_fu_max               =   3.3037157654762E-01
(PID.TID 0000.0001) %MON forcing_fu_min               =  -3.0188642243544E-01
(PID.TID 0000.0001) %MON forcing_fu_mean              =   1.9137935047970E-02
(PID.TID 0000.0001) %MON forcing_fu_sd                =   9.5650640697018E-02
(PID.TID 0000.0001) %MON forcing_fu_del2              =   7.1874318032025E-04
(PID.TID 0000.0001) %MON forcing_fv_max               =   1.5187646150589E-01
(PID.TID 0000.0001) %MON forcing_fv_min               =  -1.7590267658234E-01
(PID.TID 0000.0001) %MON forcing_fv_mean              =  -7.3835785404719E-03
(PID.TID 0000.0001) %MON forcing_fv_sd                =   4.1829040773244E-02
(PID.TID 0000.0001) %MON forcing_fv_del2              =   4.6738042004890E-04
(PID.TID 0000.0001) %MON trAdv_CFL_u_max              =   4.3649070495225E-02
(PID.TID 0000.0001) %MON trAdv_CFL_v_max              =   2.7001060809652E-02
(PID.TID 0000.0001) %MON trAdv_CFL_w_max              =   4.5226879409819E-02
(PID.TID 0000.0001) %MON advcfl_uvel_max              =   4.4235866877990E-02
(PID.TID 0000.0001) %MON advcfl_vvel_max              =   2.7905464228383E-02
(PID.TID 0000.0001) %MON advcfl_wvel_max              =   5.5384585542505E-02
(PID.TID 0000.0001) %MON advcfl_W_hf_max              =   6.2672031008625E-02
(PID.TID 0000.0001) %MON pe_b_mean                    =   5.1718630302461E-04
(PID.TID 0000.0001) %MON ke_max                       =   1.7513337034377E-02
(PID.TID 0000.0001) %MON ke_mean                      =   2.5505966493228E-04
(PID.TID 0000.0001) %MON ke_vol                       =   1.3226782436723E+18
(PID.TID 0000.0001) %MON vort_r_min                   =  -4.2544569643269E-07
(PID.TID 0000.0001) %MON vort_r_max                   =   5.6997595879761E-07
(PID.TID 0000.0001) %MON vort_a_mean                  =  -2.5274807901620E-05
(PID.TID 0000.0001) %MON vort_a_sd                    =   7.3604558524769E-05
(PID.TID 0000.0001) %MON vort_p_mean                  =  -3.1845656434713E-05
(PID.TID 0000.0001) %MON vort_p_sd                    =   1.3162354450854E-04
(PID.TID 0000.0001) %MON surfExpan_theta_mean         =   4.1298015964328E-07
(PID.TID 0000.0001) %MON surfExpan_salt_mean          =  -8.5915551599797E-08
(PID.TID 0000.0001) // =======================================================
(PID.TID 0000.0001) // End MONITOR dynamic field statistics
(PID.TID 0000.0001) // =======================================================
 EXTERNAL_FIELDS_LOAD,        62 : iP,iLd,i0,i1=    2    3    2    3 ; Wght=  0.4333333333  0.5666666667
 EXTERNAL_FIELDS_LOAD: (fu0,1),fu,fv= -1.4435E-02 -2.7199E-02 -2.1668E-02 -7.9696E-03
 EXTERNAL_FIELDS_LOAD: SST,SSS,Q,E-P= -3.3468E-01  3.4511E+01  2.2627E+02  8.7759E-06
DEBUG_STATS_RL:          Uvel (THERMODYNAMICS)  min= -1.46349067129106E-01
DEBUG_STATS_RL:          Uvel (THERMODYNAMICS)  max=  1.55589238834782E-01
DEBUG_STATS_RL:          Uvel (THERMODYNAMICS) mean=  6.15871376392772E-03
DEBUG_STATS_RL:          Uvel (THERMODYNAMICS) S.D.=  2.63453042579830E-02
DEBUG_STATS_RL:          Vvel (THERMODYNAMICS)  min= -1.13097438073620E-01
DEBUG_STATS_RL:          Vvel (THERMODYNAMICS)  max=  1.43632361371636E-01
DEBUG_STATS_RL:          Vvel (THERMODYNAMICS) mean=  6.45648386204659E-04
DEBUG_STATS_RL:          Vvel (THERMODYNAMICS) S.D.=  1.65811846240714E-02
DEBUG_STATS_RL:          Wvel (THERMODYNAMICS)  min= -1.25029305538090E-04
DEBUG_STATS_RL:          Wvel (THERMODYNAMICS)  max=  1.37820438560633E-04
DEBUG_STATS_RL:          Wvel (THERMODYNAMICS) mean= -1.61856752373650E-07
DEBUG_STATS_RL:          Wvel (THERMODYNAMICS) S.D.=  1.43697856066673E-05
DEBUG_STATS_RL:         Theta (THERMODYNAMICS)  min= -1.96156553427818E+00
DEBUG_STATS_RL:         Theta (THERMODYNAMICS)  max=  3.07007051187083E+01
DEBUG_STATS_RL:         Theta (THERMODYNAMICS) mean=  3.24985834908869E+00
DEBUG_STATS_RL:         Theta (THERMODYNAMICS) S.D.=  5.87887957660587E+00
DEBUG_STATS_RL:          Salt (THERMODYNAMICS)  min=  3.00000000000000E-02
DEBUG_STATS_RL:          Salt (THERMODYNAMICS)  max=  3.74965172791094E+01
DEBUG_STATS_RL:          Salt (THERMODYNAMICS) mean=  1.88747661857952E+01
DEBUG_STATS_RL:          Salt (THERMODYNAMICS) S.D.=  1.73003007535136E+01
DEBUG_STATS_RL:         GtNm1 (THERMODYNAMICS)  min= -3.04069915905563E-06
DEBUG_STATS_RL:         GtNm1 (THERMODYNAMICS)  max=  2.16410918606423E-06
DEBUG_STATS_RL:         GtNm1 (THERMODYNAMICS) mean=  4.09459704027624E-09
DEBUG_STATS_RL:         GtNm1 (THERMODYNAMICS) S.D.=  1.80935207072696E-07
DEBUG_STATS_RL:         GsNm1 (THERMODYNAMICS)  min= -4.50639216498536E-07
DEBUG_STATS_RL:         GsNm1 (THERMODYNAMICS)  max=  2.95155985052746E-07
DEBUG_STATS_RL:         GsNm1 (THERMODYNAMICS) mean= -3.55263997151138E-10
DEBUG_STATS_RL:         GsNm1 (THERMODYNAMICS) S.D.=  1.81923149038107E-08
DEBUG_STATS_RL:                EtaN (DYNAMICS)  min= -2.15551474983177E+00
DEBUG_STATS_RL:                EtaN (DYNAMICS)  max=  1.18241070182201E+00
DEBUG_STATS_RL:                EtaN (DYNAMICS) mean= -1.58447805018092E-01
DEBUG_STATS_RL:                EtaN (DYNAMICS) S.D.=  7.41833746190920E-01
DEBUG_STATS_RL:                Uvel (DYNAMICS)  min= -1.46349067129106E-01
DEBUG_STATS_RL:                Uvel (DYNAMICS)  max=  1.55589238834782E-01
DEBUG_STATS_RL:                Uvel (DYNAMICS) mean=  6.15871376392772E-03
DEBUG_STATS_RL:                Uvel (DYNAMICS) S.D.=  2.63453042579830E-02
DEBUG_STATS_RL:                Vvel (DYNAMICS)  min= -1.13097438073620E-01
DEBUG_STATS_RL:                Vvel (DYNAMICS)  max=  1.43632361371636E-01
DEBUG_STATS_RL:                Vvel (DYNAMICS) mean=  6.45648386204659E-04
DEBUG_STATS_RL:                Vvel (DYNAMICS) S.D.=  1.65811846240714E-02
DEBUG_STATS_RL:                Wvel (DYNAMICS)  min= -1.25029305538090E-04
DEBUG_STATS_RL:                Wvel (DYNAMICS)  max=  1.37820438560633E-04
DEBUG_STATS_RL:                Wvel (DYNAMICS) mean= -1.61856752373650E-07
DEBUG_STATS_RL:                Wvel (DYNAMICS) S.D.=  1.43697856066673E-05
DEBUG_STATS_RL:               Theta (DYNAMICS)  min= -1.96156553427818E+00
DEBUG_STATS_RL:               Theta (DYNAMICS)  max=  3.07007051187083E+01
DEBUG_STATS_RL:               Theta (DYNAMICS) mean=  3.24985834908869E+00
DEBUG_STATS_RL:               Theta (DYNAMICS) S.D.=  5.87887957660587E+00
DEBUG_STATS_RL:                Salt (DYNAMICS)  min=  3.00000000000000E-02
DEBUG_STATS_RL:                Salt (DYNAMICS)  max=  3.74965172791094E+01
DEBUG_STATS_RL:                Salt (DYNAMICS) mean=  1.88747661857952E+01
DEBUG_STATS_RL:                Salt (DYNAMICS) S.D.=  1.73003007535136E+01
DEBUG_STATS_RL:                  Gu (DYNAMICS)  min= -1.45747394099219E-01
DEBUG_STATS_RL:                  Gu (DYNAMICS)  max=  1.63674990346324E-01
DEBUG_STATS_RL:                  Gu (DYNAMICS) mean=  6.11555865958078E-03
DEBUG_STATS_RL:                  Gu (DYNAMICS) S.D.=  2.68545946008516E-02
DEBUG_STATS_RL:                  Gv (DYNAMICS)  min= -1.21905558619538E-01
DEBUG_STATS_RL:                  Gv (DYNAMICS)  max=  1.44913919528094E-01
DEBUG_STATS_RL:                  Gv (DYNAMICS) mean=  3.32858171234218E-03
DEBUG_STATS_RL:                  Gv (DYNAMICS) S.D.=  1.75266488482784E-02
DEBUG_STATS_RL:               GuNm1 (DYNAMICS)  min= -1.01280049235812E-05
DEBUG_STATS_RL:               GuNm1 (DYNAMICS)  max=  9.48797040722082E-06
DEBUG_STATS_RL:               GuNm1 (DYNAMICS) mean=  1.10281380248858E-08
DEBUG_STATS_RL:               GuNm1 (DYNAMICS) S.D.=  1.21368218937203E-06
DEBUG_STATS_RL:               GvNm1 (DYNAMICS)  min= -1.01707613037461E-05
DEBUG_STATS_RL:               GvNm1 (DYNAMICS)  max=  1.57869348528848E-05
DEBUG_STATS_RL:               GvNm1 (DYNAMICS) mean=  7.46399574867153E-07
DEBUG_STATS_RL:               GvNm1 (DYNAMICS) S.D.=  2.66385856684658E-06
DEBUG_STATS_RL:               GtNm1 (DYNAMICS)  min= -3.04069915905563E-06
DEBUG_STATS_RL:               GtNm1 (DYNAMICS)  max=  2.16410918606423E-06
DEBUG_STATS_RL:               GtNm1 (DYNAMICS) mean=  4.09459704027624E-09
DEBUG_STATS_RL:               GtNm1 (DYNAMICS) S.D.=  1.80935207072696E-07
DEBUG_STATS_RL:               GsNm1 (DYNAMICS)  min= -4.50639216498536E-07
DEBUG_STATS_RL:               GsNm1 (DYNAMICS)  max=  2.95155985052746E-07
DEBUG_STATS_RL:               GsNm1 (DYNAMICS) mean= -3.55263997151138E-10
DEBUG_STATS_RL:               GsNm1 (DYNAMICS) S.D.=  1.81923149038107E-08
DEBUG_STATS_RL:    cg2d_b (SOLVE_FOR_PRESSURE)  min= -1.92278968457139E+04
DEBUG_STATS_RL:    cg2d_b (SOLVE_FOR_PRESSURE)  max=  2.63537330710183E+04
DEBUG_STATS_RL:    cg2d_b (SOLVE_FOR_PRESSURE) mean=  4.45125555663826E+00
DEBUG_STATS_RL:    cg2d_b (SOLVE_FOR_PRESSURE) S.D.=  4.05021753333986E+03
 cg2d: Sum(rhs),rhsMax =   3.91013166364254E-01  1.73098374826700E+00
(PID.TID 0000.0001)  cg2d: iter=     1 ; resid.=  2.36640437801024E-01
(PID.TID 0000.0001)  cg2d: iter=     2 ; resid.=  2.05117678270533E-01
(PID.TID 0000.0001)  cg2d: iter=     3 ; resid.=  1.96109873158754E-01
(PID.TID 0000.0001)  cg2d: iter=     4 ; resid.=  1.72468250826541E-01
(PID.TID 0000.0001)  cg2d: iter=     5 ; resid.=  1.35091528240355E-01
(PID.TID 0000.0001)  cg2d: iter=     6 ; resid.=  1.11979701030619E-01
(PID.TID 0000.0001)  cg2d: iter=     7 ; resid.=  1.03640801070169E-01
(PID.TID 0000.0001)  cg2d: iter=     8 ; resid.=  9.59523776033261E-02
(PID.TID 0000.0001)  cg2d: iter=     9 ; resid.=  7.66122859711169E-02
(PID.TID 0000.0001)  cg2d: iter=    10 ; resid.=  6.58414722622971E-02
(PID.TID 0000.0001)  cg2d: iter=    11 ; resid.=  5.49179129524656E-02
(PID.TID 0000.0001)  cg2d: iter=    12 ; resid.=  4.58397605376083E-02
(PID.TID 0000.0001)  cg2d: iter=    13 ; resid.=  3.54942256288092E-02
(PID.TID 0000.0001)  cg2d: iter=    14 ; resid.=  2.86042166747286E-02
(PID.TID 0000.0001)  cg2d: iter=    15 ; resid.=  2.34615228528982E-02
(PID.TID 0000.0001)  cg2d: iter=    16 ; resid.=  1.91754223679771E-02
(PID.TID 0000.0001)  cg2d: iter=    17 ; resid.=  1.69453648332568E-02
(PID.TID 0000.0001)  cg2d: iter=    18 ; resid.=  1.38891723217337E-02
(PID.TID 0000.0001)  cg2d: iter=    19 ; resid.=  1.15816583325751E-02
(PID.TID 0000.0001)  cg2d: iter=    20 ; resid.=  1.02681317890145E-02
(PID.TID 0000.0001)  cg2d: iter=    21 ; resid.=  9.10357011664829E-03
(PID.TID 0000.0001)  cg2d: iter=    22 ; resid.=  7.90905739155254E-03
(PID.TID 0000.0001)  cg2d: iter=    23 ; resid.=  6.23294483616877E-03
(PID.TID 0000.0001)  cg2d: iter=    24 ; resid.=  5.23669638353863E-03
(PID.TID 0000.0001)  cg2d: iter=    25 ; resid.=  4.19596647991630E-03
(PID.TID 0000.0001)  cg2d: iter=    26 ; resid.=  3.39815006676524E-03
(PID.TID 0000.0001)  cg2d: iter=    27 ; resid.=  2.91686239487604E-03
(PID.TID 0000.0001)  cg2d: iter=    28 ; resid.=  2.48980892106165E-03
(PID.TID 0000.0001)  cg2d: iter=    29 ; resid.=  2.07576974512976E-03
(PID.TID 0000.0001)  cg2d: iter=    30 ; resid.=  1.63662548542924E-03
(PID.TID 0000.0001)  cg2d: iter=    31 ; resid.=  1.29092467781941E-03
(PID.TID 0000.0001)  cg2d: iter=    32 ; resid.=  9.81535425575274E-04
(PID.TID 0000.0001)  cg2d: iter=    33 ; resid.=  8.53850713574600E-04
(PID.TID 0000.0001)  cg2d: iter=    34 ; resid.=  7.51432921437135E-04
(PID.TID 0000.0001)  cg2d: iter=    35 ; resid.=  6.35677312377947E-04
(PID.TID 0000.0001)  cg2d: iter=    36 ; resid.=  5.15763431604615E-04
(PID.TID 0000.0001)  cg2d: iter=    37 ; resid.=  4.27346752472725E-04
(PID.TID 0000.0001)  cg2d: iter=    38 ; resid.=  3.51233562420504E-04
(PID.TID 0000.0001)  cg2d: iter=    39 ; resid.=  3.16369094175089E-04
(PID.TID 0000.0001)  cg2d: iter=    40 ; resid.=  2.72753501203512E-04
(PID.TID 0000.0001)  cg2d: iter=    41 ; resid.=  2.43804633930906E-04
(PID.TID 0000.0001)  cg2d: iter=    42 ; resid.=  2.23824568523204E-04
(PID.TID 0000.0001)  cg2d: iter=    43 ; resid.=  1.94419383721812E-04
(PID.TID 0000.0001)  cg2d: iter=    44 ; resid.=  1.52001671421218E-04
(PID.TID 0000.0001)  cg2d: iter=    45 ; resid.=  1.23269690360021E-04
(PID.TID 0000.0001)  cg2d: iter=    46 ; resid.=  1.00838411704238E-04
(PID.TID 0000.0001)  cg2d: iter=    47 ; resid.=  8.31596425696333E-05
(PID.TID 0000.0001)  cg2d: iter=    48 ; resid.=  7.01782236438145E-05
(PID.TID 0000.0001)  cg2d: iter=    49 ; resid.=  5.81577998029122E-05
(PID.TID 0000.0001)  cg2d: iter=    50 ; resid.=  4.80619306565081E-05
(PID.TID 0000.0001)  cg2d: iter=    51 ; resid.=  3.93336578725176E-05
(PID.TID 0000.0001)  cg2d: iter=    52 ; resid.=  3.15173959880859E-05
(PID.TID 0000.0001)  cg2d: iter=    53 ; resid.=  2.89828763627569E-05
(PID.TID 0000.0001)  cg2d: iter=    54 ; resid.=  2.43315311431087E-05
(PID.TID 0000.0001)  cg2d: iter=    55 ; resid.=  2.13697135956000E-05
(PID.TID 0000.0001)  cg2d: iter=    56 ; resid.=  1.68171547511578E-05
(PID.TID 0000.0001)  cg2d: iter=    57 ; resid.=  1.29301976510103E-05
(PID.TID 0000.0001)  cg2d: iter=    58 ; resid.=  1.01176227872792E-05
(PID.TID 0000.0001)  cg2d: iter=    59 ; resid.=  7.63020739285878E-06
(PID.TID 0000.0001)  cg2d: iter=    60 ; resid.=  6.06321287396593E-06
(PID.TID 0000.0001)  cg2d: iter=    61 ; resid.=  4.71685745524786E-06
(PID.TID 0000.0001)  cg2d: iter=    62 ; resid.=  3.61687218290948E-06
(PID.TID 0000.0001)  cg2d: iter=    63 ; resid.=  2.79671659682294E-06
(PID.TID 0000.0001)  cg2d: iter=    64 ; resid.=  2.12521338566707E-06
(PID.TID 0000.0001)  cg2d: iter=    65 ; resid.=  1.73944113472829E-06
(PID.TID 0000.0001)  cg2d: iter=    66 ; resid.=  1.34309955353992E-06
(PID.TID 0000.0001)  cg2d: iter=    67 ; resid.=  1.15674675746015E-06
(PID.TID 0000.0001)  cg2d: iter=    68 ; resid.=  9.74710318623906E-07
(PID.TID 0000.0001)  cg2d: iter=    69 ; resid.=  7.59634299818746E-07
(PID.TID 0000.0001)  cg2d: iter=    70 ; resid.=  5.94701629571910E-07
(PID.TID 0000.0001)  cg2d: iter=    71 ; resid.=  4.92656384093865E-07
(PID.TID 0000.0001)  cg2d: iter=    72 ; resid.=  4.35387828110207E-07
(PID.TID 0000.0001)  cg2d: iter=    73 ; resid.=  3.64541508307189E-07
(PID.TID 0000.0001)  cg2d: iter=    74 ; resid.=  3.02864013709438E-07
(PID.TID 0000.0001)  cg2d: iter=    75 ; resid.=  2.50702384707679E-07
(PID.TID 0000.0001)  cg2d: iter=    76 ; resid.=  2.13423305963034E-07
(PID.TID 0000.0001)  cg2d: iter=    77 ; resid.=  1.79032209352450E-07
(PID.TID 0000.0001)  cg2d: iter=    78 ; resid.=  1.53021717728225E-07
(PID.TID 0000.0001)  cg2d: iter=    79 ; resid.=  1.37911899151634E-07
(PID.TID 0000.0001)  cg2d: iter=    80 ; resid.=  1.18259749090336E-07
(PID.TID 0000.0001)  cg2d: iter=    81 ; resid.=  9.53091773471897E-08
(PID.TID 0000.0001)  cg2d: iter=    82 ; resid.=  7.36265594406428E-08
(PID.TID 0000.0001)  cg2d: iter=    83 ; resid.=  5.61024963366240E-08
(PID.TID 0000.0001)  cg2d: iter=    84 ; resid.=  4.41593610047819E-08
(PID.TID 0000.0001)  cg2d: iter=    85 ; resid.=  3.21866649905075E-08
(PID.TID 0000.0001)  cg2d: iter=    86 ; resid.=  2.56436253096975E-08
(PID.TID 0000.0001)  cg2d: iter=    87 ; resid.=  1.91841351582291E-08
(PID.TID 0000.0001)  cg2d: iter=    88 ; resid.=  1.50726111580705E-08
(PID.TID 0000.0001)  cg2d: iter=    89 ; resid.=  1.33940977199880E-08
(PID.TID 0000.0001)  cg2d: iter=    90 ; resid.=  1.17429130500799E-08
(PID.TID 0000.0001)  cg2d: iter=    91 ; resid.=  8.73190533344561E-09
(PID.TID 0000.0001)  cg2d: iter=    92 ; resid.=  6.26008187595353E-09
(PID.TID 0000.0001)  cg2d: iter=    93 ; resid.=  4.63899196648063E-09
(PID.TID 0000.0001)  cg2d: iter=    94 ; resid.=  3.64227323233077E-09
(PID.TID 0000.0001)  cg2d: iter=    95 ; resid.=  2.93482412158431E-09
(PID.TID 0000.0001)  cg2d: iter=    96 ; resid.=  2.18906051218078E-09
(PID.TID 0000.0001)  cg2d: iter=    97 ; resid.=  1.62217733484364E-09
(PID.TID 0000.0001)  cg2d: iter=    98 ; resid.=  1.25654549476312E-09
(PID.TID 0000.0001)  cg2d: iter=    99 ; resid.=  1.09743800988789E-09
(PID.TID 0000.0001)  cg2d: iter=   100 ; resid.=  9.71508070689831E-10
(PID.TID 0000.0001)  cg2d: iter=   101 ; resid.=  7.80355651140903E-10
(PID.TID 0000.0001)  cg2d: iter=   102 ; resid.=  6.06037053136298E-10
(PID.TID 0000.0001)  cg2d: iter=   103 ; resid.=  4.87798981927288E-10
(PID.TID 0000.0001)  cg2d: iter=   104 ; resid.=  4.45572430435353E-10
(PID.TID 0000.0001)  cg2d: iter=   105 ; resid.=  3.82311591385581E-10
(PID.TID 0000.0001)  cg2d: iter=   106 ; resid.=  3.22970278147613E-10
(PID.TID 0000.0001)  cg2d: iter=   107 ; resid.=  2.50305769119956E-10
(PID.TID 0000.0001)  cg2d: iter=   108 ; resid.=  2.10645347368784E-10
(PID.TID 0000.0001)  cg2d: iter=   109 ; resid.=  1.62236097664600E-10
(PID.TID 0000.0001)  cg2d: iter=   110 ; resid.=  1.18259069825898E-10
(PID.TID 0000.0001)  cg2d: iter=   111 ; resid.=  9.74384930575648E-11
(PID.TID 0000.0001)  cg2d: iter=   112 ; resid.=  6.99892134929075E-11
(PID.TID 0000.0001)  cg2d: iter=   113 ; resid.=  5.08596387773850E-11
(PID.TID 0000.0001)  cg2d: iter=   114 ; resid.=  3.92601271287766E-11
(PID.TID 0000.0001)  cg2d: iter=   115 ; resid.=  2.69720802783576E-11
(PID.TID 0000.0001)  cg2d: iter=   116 ; resid.=  1.91486039966312E-11
(PID.TID 0000.0001)  cg2d: iter=   117 ; resid.=  1.42983773715042E-11
(PID.TID 0000.0001)  cg2d: iter=   118 ; resid.=  1.01933046410760E-11
(PID.TID 0000.0001)  cg2d: iter=   119 ; resid.=  7.76466440224625E-12
(PID.TID 0000.0001)  cg2d: iter=   120 ; resid.=  5.76601191954713E-12
(PID.TID 0000.0001)  cg2d: iter=   121 ; resid.=  4.13215126193119E-12
(PID.TID 0000.0001)  cg2d: iter=   122 ; resid.=  3.31277782456898E-12
(PID.TID 0000.0001)  cg2d: iter=   123 ; resid.=  2.86884055084380E-12
(PID.TID 0000.0001)  cg2d: iter=   124 ; resid.=  2.38369061803267E-12
(PID.TID 0000.0001)  cg2d: iter=   125 ; resid.=  1.86284166749709E-12
(PID.TID 0000.0001)  cg2d: iter=   126 ; resid.=  1.30193114251866E-12
(PID.TID 0000.0001)  cg2d: iter=   127 ; resid.=  8.76302137652060E-13
(PID.TID 0000.0001)  cg2d: iter=   128 ; resid.=  6.01055757631075E-13
(PID.TID 0000.0001)  cg2d: iter=   129 ; resid.=  3.96824743081805E-13
(PID.TID 0000.0001)  cg2d: iter=   130 ; resid.=  2.92858002890707E-13
(PID.TID 0000.0001)  cg2d: iter=   131 ; resid.=  2.18384100928596E-13
(PID.TID 0000.0001)  cg2d: iter=   132 ; resid.=  1.63348574438298E-13
(PID.TID 0000.0001)  cg2d: iter=   133 ; resid.=  1.19078757355767E-13
(PID.TID 0000.0001)  cg2d: iter=   134 ; resid.=  8.87333554070986E-14
DEBUG_STATS_RL:    cg2d_x (SOLVE_FOR_PRESSURE)  min= -2.11264429480993E+01
DEBUG_STATS_RL:    cg2d_x (SOLVE_FOR_PRESSURE)  max=  1.09777829801213E+01
DEBUG_STATS_RL:    cg2d_x (SOLVE_FOR_PRESSURE) mean= -1.57500429081877E+00
DEBUG_STATS_RL:    cg2d_x (SOLVE_FOR_PRESSURE) S.D.=  7.30429179930580E+00
(PID.TID 0000.0001)      cg2d_init_res =   3.79709930460030E-01
(PID.TID 0000.0001)      cg2d_iters(min,last) =      -1     134
(PID.TID 0000.0001)      cg2d_last_res =   8.87333554070986E-14
(PID.TID 0000.0001) // =======================================================
(PID.TID 0000.0001) // Begin MONITOR dynamic field statistics
(PID.TID 0000.0001) // =======================================================
(PID.TID 0000.0001) %MON time_tsnumber                =                    63
(PID.TID 0000.0001) %MON time_secondsf                =   5.4432000000000E+06
(PID.TID 0000.0001) %MON dynstat_eta_max              =   1.1190400591357E+00
(PID.TID 0000.0001) %MON dynstat_eta_min              =  -2.1535619722833E+00
(PID.TID 0000.0001) %MON dynstat_eta_mean             =  -4.6443332358836E-03
(PID.TID 0000.0001) %MON dynstat_eta_sd               =   6.3442662008517E-01
(PID.TID 0000.0001) %MON dynstat_eta_del2             =   2.4413879537629E-03
(PID.TID 0000.0001) %MON dynstat_uvel_max             =   1.5918916642254E-01
(PID.TID 0000.0001) %MON dynstat_uvel_min             =  -1.4718130537283E-01
(PID.TID 0000.0001) %MON dynstat_uvel_mean            =   2.3183975229810E-03
(PID.TID 0000.0001) %MON dynstat_uvel_sd              =   2.0600161956253E-02
(PID.TID 0000.0001) %MON dynstat_uvel_del2            =   1.3140695361481E-04
(PID.TID 0000.0001) %MON dynstat_vvel_max             =   1.4742486214946E-01
(PID.TID 0000.0001) %MON dynstat_vvel_min             =  -1.1684213786205E-01
(PID.TID 0000.0001) %MON dynstat_vvel_mean            =   1.8203789736013E-04
(PID.TID 0000.0001) %MON dynstat_vvel_sd              =   1.1631264308542E-02
(PID.TID 0000.0001) %MON dynstat_vvel_del2            =   9.3197600555314E-05
(PID.TID 0000.0001) %MON dynstat_wvel_max             =   1.4564329862264E-04
(PID.TID 0000.0001) %MON dynstat_wvel_min             =  -1.2937169839387E-04
(PID.TID 0000.0001) %MON dynstat_wvel_mean            =  -2.2776364423091E-22
(PID.TID 0000.0001) %MON dynstat_wvel_sd              =   1.6678439072337E-05
(PID.TID 0000.0001) %MON dynstat_wvel_del2            =   1.6256501109042E-07
(PID.TID 0000.0001) %MON dynstat_theta_max            =   3.0700705118708E+01
(PID.TID 0000.0001) %MON dynstat_theta_min            =  -1.9615655342782E+00
(PID.TID 0000.0001) %MON dynstat_theta_mean           =   3.6533041563097E+00
(PID.TID 0000.0001) %MON dynstat_theta_sd             =   4.4245151066998E+00
(PID.TID 0000.0001) %MON dynstat_theta_del2           =   4.9410848974539E-03
(PID.TID 0000.0001) %MON dynstat_salt_max             =   3.7496517279109E+01
(PID.TID 0000.0001) %MON dynstat_salt_min             =   2.9919049139260E+01
(PID.TID 0000.0001) %MON dynstat_salt_mean            =   3.4747947305572E+01
(PID.TID 0000.0001) %MON dynstat_salt_sd              =   2.9636600746356E-01
(PID.TID 0000.0001) %MON dynstat_salt_del2            =   9.9204468698511E-04
(PID.TID 0000.0001) %MON dynstat_sst_max              =   3.0700705118708E+01
(PID.TID 0000.0001) %MON dynstat_sst_min              =  -1.9615655342782E+00
(PID.TID 0000.0001) %MON dynstat_sst_mean             =   1.9036302504207E+01
(PID.TID 0000.0001) %MON dynstat_sst_sd               =   9.0765043873925E+00
(PID.TID 0000.0001) %MON dynstat_sst_del2             =   2.8078459636017E-02
(PID.TID 0000.0001) %MON dynstat_sss_max              =   3.7473571968448E+01
(PID.TID 0000.0001) %MON dynstat_sss_min              =   2.9919049139260E+01
(PID.TID 0000.0001) %MON dynstat_sss_mean             =   3.4869917078646E+01
(PID.TID 0000.0001) %MON dynstat_sss_sd               =   9.8164283725513E-01
(PID.TID 0000.0001) %MON dynstat_sss_del2             =   8.0284933697957E-03
(PID.TID 0000.0001) %MON forcing_qnet_max             =   3.1088366190592E+02
(PID.TID 0000.0001) %MON forcing_qnet_min             =  -1.6774622141520E+02
(PID.TID 0000.0001) %MON forcing_qnet_mean            =  -1.0168479485291E+01
(PID.TID 0000.0001) %MON forcing_qnet_sd              =   5.7577799379717E+01
(PID.TID 0000.0001) %MON forcing_qnet_del2            =   8.7481271655306E-01
(PID.TID 0000.0001) %MON forcing_qsw_max              =   0.0000000000000E+00
(PID.TID 0000.0001) %MON forcing_qsw_min              =   0.0000000000000E+00
(PID.TID 0000.0001) %MON forcing_qsw_mean             =   0.0000000000000E+00
(PID.TID 0000.0001) %MON forcing_qsw_sd               =   0.0000000000000E+00
(PID.TID 0000.0001) %MON forcing_qsw_del2             =   0.0000000000000E+00
(PID.TID 0000.0001) %MON forcing_empmr_max            =   6.9183654242503E-05
(PID.TID 0000.0001) %MON forcing_empmr_min            =  -7.8075082872905E-05
(PID.TID 0000.0001) %MON forcing_empmr_mean           =   7.2088015504532E-07
(PID.TID 0000.0001) %MON forcing_empmr_sd             =   2.6762189976849E-05
(PID.TID 0000.0001) %MON forcing_empmr_del2           =   3.5501110525875E-07
(PID.TID 0000.0001) %MON forcing_fu_max               =   3.3231299221516E-01
(PID.TID 0000.0001) %MON forcing_fu_min               =  -3.0727105190357E-01
(PID.TID 0000.0001) %MON forcing_fu_mean              =   1.9232134637429E-02
(PID.TID 0000.0001) %MON forcing_fu_sd                =   9.5991792760700E-02
(PID.TID 0000.0001) %MON forcing_fu_del2              =   7.2366523657091E-04
(PID.TID 0000.0001) %MON forcing_fv_max               =   1.5079911947250E-01
(PID.TID 0000.0001) %MON forcing_fv_min               =  -1.7441664040089E-01
(PID.TID 0000.0001) %MON forcing_fv_mean              =  -7.3940068904414E-03
(PID.TID 0000.0001) %MON forcing_fv_sd                =   4.1773346779471E-02
(PID.TID 0000.0001) %MON forcing_fv_del2              =   4.6691190936856E-04
(PID.TID 0000.0001) %MON trAdv_CFL_u_max              =   4.4244851498933E-02
(PID.TID 0000.0001) %MON trAdv_CFL_v_max              =   2.7791748917983E-02
(PID.TID 0000.0001) %MON trAdv_CFL_w_max              =   4.9615357881828E-02
(PID.TID 0000.0001) %MON advcfl_uvel_max              =   4.8115273976267E-02
(PID.TID 0000.0001) %MON advcfl_vvel_max              =   2.8642286305115E-02
(PID.TID 0000.0001) %MON advcfl_wvel_max              =   5.8528283725564E-02
(PID.TID 0000.0001) %MON advcfl_W_hf_max              =   6.6229373689454E-02
(PID.TID 0000.0001) %MON pe_b_mean                    =   5.1507120117904E-04
(PID.TID 0000.0001) %MON ke_max                       =   1.7177563600427E-02
(PID.TID 0000.0001) %MON ke_mean                      =   2.5598896196732E-04
(PID.TID 0000.0001) %MON ke_vol                       =   1.3226782436723E+18
(PID.TID 0000.0001) %MON vort_r_min                   =  -4.1497850818085E-07
(PID.TID 0000.0001) %MON vort_r_max                   =   5.9044261840529E-07
(PID.TID 0000.0001) %MON vort_a_mean                  =  -2.5274807756776E-05
(PID.TID 0000.0001) %MON vort_a_sd                    =   7.3604593263446E-05
(PID.TID 0000.0001) %MON vort_p_mean                  =  -3.1845656252214E-05
(PID.TID 0000.0001) %MON vort_p_sd                    =   1.3162360836878E-04
(PID.TID 0000.0001) %MON surfExpan_theta_mean         =   6.0085921722797E-07
(PID.TID 0000.0001) %MON surfExpan_salt_mean          =  -1.5051052821607E-07
(PID.TID 0000.0001) // =======================================================
(PID.TID 0000.0001) // End MONITOR dynamic field statistics
(PID.TID 0000.0001) // =======================================================
 EXTERNAL_FIELDS_LOAD,        63 : iP,iLd,i0,i1=    2    3    2    3 ; Wght=  0.4000000000  0.6000000000
 EXTERNAL_FIELDS_LOAD: (fu0,1),fu,fv= -1.4435E-02 -2.7199E-02 -2.2093E-02 -7.4011E-03
 EXTERNAL_FIELDS_LOAD: SST,SSS,Q,E-P= -3.2309E-01  3.4516E+01  2.2543E+02  8.7993E-06
DEBUG_STATS_RL:          Uvel (THERMODYNAMICS)  min= -1.47181305372830E-01
DEBUG_STATS_RL:          Uvel (THERMODYNAMICS)  max=  1.59189166422542E-01
DEBUG_STATS_RL:          Uvel (THERMODYNAMICS) mean=  6.25174579616562E-03
DEBUG_STATS_RL:          Uvel (THERMODYNAMICS) S.D.=  2.65333596027940E-02
DEBUG_STATS_RL:          Vvel (THERMODYNAMICS)  min= -1.16842137862047E-01
DEBUG_STATS_RL:          Vvel (THERMODYNAMICS)  max=  1.47424862149463E-01
DEBUG_STATS_RL:          Vvel (THERMODYNAMICS) mean=  5.36525489610454E-04
DEBUG_STATS_RL:          Vvel (THERMODYNAMICS) S.D.=  1.64469797235244E-02
DEBUG_STATS_RL:          Wvel (THERMODYNAMICS)  min= -1.29371698393866E-04
DEBUG_STATS_RL:          Wvel (THERMODYNAMICS)  max=  1.45643298622642E-04
DEBUG_STATS_RL:          Wvel (THERMODYNAMICS) mean= -1.73404195451088E-07
DEBUG_STATS_RL:          Wvel (THERMODYNAMICS) S.D.=  1.42600367670320E-05
DEBUG_STATS_RL:         Theta (THERMODYNAMICS)  min= -1.96002454041753E+00
DEBUG_STATS_RL:         Theta (THERMODYNAMICS)  max=  3.07193359732486E+01
DEBUG_STATS_RL:         Theta (THERMODYNAMICS) mean=  3.25003084685021E+00
DEBUG_STATS_RL:         Theta (THERMODYNAMICS) S.D.=  5.87934279761736E+00
DEBUG_STATS_RL:          Salt (THERMODYNAMICS)  min=  3.00000000000000E-02
DEBUG_STATS_RL:          Salt (THERMODYNAMICS)  max=  3.74967013789733E+01
DEBUG_STATS_RL:          Salt (THERMODYNAMICS) mean=  1.88747577154535E+01
DEBUG_STATS_RL:          Salt (THERMODYNAMICS) S.D.=  1.73002936731238E+01
DEBUG_STATS_RL:         GtNm1 (THERMODYNAMICS)  min= -2.91962222770041E-06
DEBUG_STATS_RL:         GtNm1 (THERMODYNAMICS)  max=  1.97874989211467E-06
DEBUG_STATS_RL:         GtNm1 (THERMODYNAMICS) mean=  4.07360662098085E-09
DEBUG_STATS_RL:         GtNm1 (THERMODYNAMICS) S.D.=  1.80077735701022E-07
DEBUG_STATS_RL:         GsNm1 (THERMODYNAMICS)  min= -4.25056376603221E-07
DEBUG_STATS_RL:         GsNm1 (THERMODYNAMICS)  max=  2.68719993087661E-07
DEBUG_STATS_RL:         GsNm1 (THERMODYNAMICS) mean= -3.07375748151833E-10
DEBUG_STATS_RL:         GsNm1 (THERMODYNAMICS) S.D.=  1.78395403257707E-08
DEBUG_STATS_RL:                EtaN (DYNAMICS)  min= -2.15356197228329E+00
DEBUG_STATS_RL:                EtaN (DYNAMICS)  max=  1.11904005913567E+00
DEBUG_STATS_RL:                EtaN (DYNAMICS) mean= -1.60550896107929E-01
DEBUG_STATS_RL:                EtaN (DYNAMICS) S.D.=  7.44576126330864E-01
DEBUG_STATS_RL:                Uvel (DYNAMICS)  min= -1.47181305372830E-01
DEBUG_STATS_RL:                Uvel (DYNAMICS)  max=  1.59189166422542E-01
DEBUG_STATS_RL:                Uvel (DYNAMICS) mean=  6.25174579616562E-03
DEBUG_STATS_RL:                Uvel (DYNAMICS) S.D.=  2.65333596027940E-02
DEBUG_STATS_RL:                Vvel (DYNAMICS)  min= -1.16842137862047E-01
DEBUG_STATS_RL:                Vvel (DYNAMICS)  max=  1.47424862149463E-01
DEBUG_STATS_RL:                Vvel (DYNAMICS) mean=  5.36525489610454E-04
DEBUG_STATS_RL:                Vvel (DYNAMICS) S.D.=  1.64469797235244E-02
DEBUG_STATS_RL:                Wvel (DYNAMICS)  min= -1.29371698393866E-04
DEBUG_STATS_RL:                Wvel (DYNAMICS)  max=  1.45643298622642E-04
DEBUG_STATS_RL:                Wvel (DYNAMICS) mean= -1.73404195451088E-07
DEBUG_STATS_RL:                Wvel (DYNAMICS) S.D.=  1.42600367670320E-05
DEBUG_STATS_RL:               Theta (DYNAMICS)  min= -1.96002454041753E+00
DEBUG_STATS_RL:               Theta (DYNAMICS)  max=  3.07193359732486E+01
DEBUG_STATS_RL:               Theta (DYNAMICS) mean=  3.25003084685021E+00
DEBUG_STATS_RL:               Theta (DYNAMICS) S.D.=  5.87934279761736E+00
DEBUG_STATS_RL:                Salt (DYNAMICS)  min=  3.00000000000000E-02
DEBUG_STATS_RL:                Salt (DYNAMICS)  max=  3.74967013789733E+01
DEBUG_STATS_RL:                Salt (DYNAMICS) mean=  1.88747577154535E+01
DEBUG_STATS_RL:                Salt (DYNAMICS) S.D.=  1.73002936731238E+01
DEBUG_STATS_RL:                  Gu (DYNAMICS)  min= -1.46390940384673E-01
DEBUG_STATS_RL:                  Gu (DYNAMICS)  max=  1.71115690951082E-01
DEBUG_STATS_RL:                  Gu (DYNAMICS) mean=  6.16991688634640E-03
DEBUG_STATS_RL:                  Gu (DYNAMICS) S.D.=  2.70619146293014E-02
DEBUG_STATS_RL:                  Gv (DYNAMICS)  min= -1.21327514076918E-01
DEBUG_STATS_RL:                  Gv (DYNAMICS)  max=  1.48639516186699E-01
DEBUG_STATS_RL:                  Gv (DYNAMICS) mean=  3.29894023405426E-03
DEBUG_STATS_RL:                  Gv (DYNAMICS) S.D.=  1.73460875425299E-02
DEBUG_STATS_RL:               GuNm1 (DYNAMICS)  min= -1.02110404116303E-05
DEBUG_STATS_RL:               GuNm1 (DYNAMICS)  max=  9.48655848418879E-06
DEBUG_STATS_RL:               GuNm1 (DYNAMICS) mean=  1.06165339907636E-08
DEBUG_STATS_RL:               GuNm1 (DYNAMICS) S.D.=  1.21364352073176E-06
DEBUG_STATS_RL:               GvNm1 (DYNAMICS)  min= -1.02632304613612E-05
DEBUG_STATS_RL:               GvNm1 (DYNAMICS)  max=  1.57358481814709E-05
DEBUG_STATS_RL:               GvNm1 (DYNAMICS) mean=  7.46322168487331E-07
DEBUG_STATS_RL:               GvNm1 (DYNAMICS) S.D.=  2.66404731506426E-06
DEBUG_STATS_RL:               GtNm1 (DYNAMICS)  min= -2.91962222770041E-06
DEBUG_STATS_RL:               GtNm1 (DYNAMICS)  max=  1.97874989211467E-06
DEBUG_STATS_RL:               GtNm1 (DYNAMICS) mean=  4.07360662098085E-09
DEBUG_STATS_RL:               GtNm1 (DYNAMICS) S.D.=  1.80077735701022E-07
DEBUG_STATS_RL:               GsNm1 (DYNAMICS)  min= -4.25056376603221E-07
DEBUG_STATS_RL:               GsNm1 (DYNAMICS)  max=  2.68719993087661E-07
DEBUG_STATS_RL:               GsNm1 (DYNAMICS) mean= -3.07375748151833E-10
DEBUG_STATS_RL:               GsNm1 (DYNAMICS) S.D.=  1.78395403257707E-08
DEBUG_STATS_RL:    cg2d_b (SOLVE_FOR_PRESSURE)  min= -1.91549895299675E+04
DEBUG_STATS_RL:    cg2d_b (SOLVE_FOR_PRESSURE)  max=  2.63758315200951E+04
DEBUG_STATS_RL:    cg2d_b (SOLVE_FOR_PRESSURE) mean=  4.50788432396837E+00
DEBUG_STATS_RL:    cg2d_b (SOLVE_FOR_PRESSURE) S.D.=  4.05287491010458E+03
 cg2d: Sum(rhs),rhsMax =   3.95655856462235E-01  1.73243523356933E+00
(PID.TID 0000.0001)  cg2d: iter=     1 ; resid.=  2.47057926499279E-01
(PID.TID 0000.0001)  cg2d: iter=     2 ; resid.=  2.30471173709439E-01
(PID.TID 0000.0001)  cg2d: iter=     3 ; resid.=  2.25567601079383E-01
(PID.TID 0000.0001)  cg2d: iter=     4 ; resid.=  1.98530636673135E-01
(PID.TID 0000.0001)  cg2d: iter=     5 ; resid.=  1.63676684287363E-01
(PID.TID 0000.0001)  cg2d: iter=     6 ; resid.=  1.39582744442460E-01
(PID.TID 0000.0001)  cg2d: iter=     7 ; resid.=  1.25764690378283E-01
(PID.TID 0000.0001)  cg2d: iter=     8 ; resid.=  1.08614584461985E-01
(PID.TID 0000.0001)  cg2d: iter=     9 ; resid.=  8.39461604250261E-02
(PID.TID 0000.0001)  cg2d: iter=    10 ; resid.=  7.10870385090664E-02
(PID.TID 0000.0001)  cg2d: iter=    11 ; resid.=  5.88143854158680E-02
(PID.TID 0000.0001)  cg2d: iter=    12 ; resid.=  4.90873890215559E-02
(PID.TID 0000.0001)  cg2d: iter=    13 ; resid.=  3.78270364739794E-02
(PID.TID 0000.0001)  cg2d: iter=    14 ; resid.=  3.04717288299376E-02
(PID.TID 0000.0001)  cg2d: iter=    15 ; resid.=  2.51212622808566E-02
(PID.TID 0000.0001)  cg2d: iter=    16 ; resid.=  2.11527135800111E-02
(PID.TID 0000.0001)  cg2d: iter=    17 ; resid.=  1.91265051451975E-02
(PID.TID 0000.0001)  cg2d: iter=    18 ; resid.=  1.54646871052605E-02
(PID.TID 0000.0001)  cg2d: iter=    19 ; resid.=  1.28478257492388E-02
(PID.TID 0000.0001)  cg2d: iter=    20 ; resid.=  1.13958209580036E-02
(PID.TID 0000.0001)  cg2d: iter=    21 ; resid.=  1.01228691397865E-02
(PID.TID 0000.0001)  cg2d: iter=    22 ; resid.=  8.76312687226410E-03
(PID.TID 0000.0001)  cg2d: iter=    23 ; resid.=  6.81507007327251E-03
(PID.TID 0000.0001)  cg2d: iter=    24 ; resid.=  5.59361616628897E-03
(PID.TID 0000.0001)  cg2d: iter=    25 ; resid.=  4.42829911862146E-03
(PID.TID 0000.0001)  cg2d: iter=    26 ; resid.=  3.57634078807648E-03
(PID.TID 0000.0001)  cg2d: iter=    27 ; resid.=  3.05263789384109E-03
(PID.TID 0000.0001)  cg2d: iter=    28 ; resid.=  2.57341777754979E-03
(PID.TID 0000.0001)  cg2d: iter=    29 ; resid.=  2.10822301389793E-03
(PID.TID 0000.0001)  cg2d: iter=    30 ; resid.=  1.66522941963340E-03
(PID.TID 0000.0001)  cg2d: iter=    31 ; resid.=  1.30003235222540E-03
(PID.TID 0000.0001)  cg2d: iter=    32 ; resid.=  9.77266895831213E-04
(PID.TID 0000.0001)  cg2d: iter=    33 ; resid.=  8.28572204512650E-04
(PID.TID 0000.0001)  cg2d: iter=    34 ; resid.=  7.42082697734413E-04
(PID.TID 0000.0001)  cg2d: iter=    35 ; resid.=  6.42222605149712E-04
(PID.TID 0000.0001)  cg2d: iter=    36 ; resid.=  5.29076149513551E-04
(PID.TID 0000.0001)  cg2d: iter=    37 ; resid.=  4.38831547983214E-04
(PID.TID 0000.0001)  cg2d: iter=    38 ; resid.=  3.65454847840331E-04
(PID.TID 0000.0001)  cg2d: iter=    39 ; resid.=  3.24555843600566E-04
(PID.TID 0000.0001)  cg2d: iter=    40 ; resid.=  2.74741609343489E-04
(PID.TID 0000.0001)  cg2d: iter=    41 ; resid.=  2.39016095993937E-04
(PID.TID 0000.0001)  cg2d: iter=    42 ; resid.=  2.17393002742323E-04
(PID.TID 0000.0001)  cg2d: iter=    43 ; resid.=  1.87137025141489E-04
(PID.TID 0000.0001)  cg2d: iter=    44 ; resid.=  1.47300046995377E-04
(PID.TID 0000.0001)  cg2d: iter=    45 ; resid.=  1.21315336335154E-04
(PID.TID 0000.0001)  cg2d: iter=    46 ; resid.=  9.82564970825670E-05
(PID.TID 0000.0001)  cg2d: iter=    47 ; resid.=  8.09904260457002E-05
(PID.TID 0000.0001)  cg2d: iter=    48 ; resid.=  6.98924962804315E-05
(PID.TID 0000.0001)  cg2d: iter=    49 ; resid.=  6.09569634166941E-05
(PID.TID 0000.0001)  cg2d: iter=    50 ; resid.=  5.18744658794214E-05
(PID.TID 0000.0001)  cg2d: iter=    51 ; resid.=  4.36043757631389E-05
(PID.TID 0000.0001)  cg2d: iter=    52 ; resid.=  3.58024569581201E-05
(PID.TID 0000.0001)  cg2d: iter=    53 ; resid.=  3.30006828579638E-05
(PID.TID 0000.0001)  cg2d: iter=    54 ; resid.=  2.73464243326688E-05
(PID.TID 0000.0001)  cg2d: iter=    55 ; resid.=  2.37962429212888E-05
(PID.TID 0000.0001)  cg2d: iter=    56 ; resid.=  1.85484937196369E-05
(PID.TID 0000.0001)  cg2d: iter=    57 ; resid.=  1.41311596319619E-05
(PID.TID 0000.0001)  cg2d: iter=    58 ; resid.=  1.10584497811688E-05
(PID.TID 0000.0001)  cg2d: iter=    59 ; resid.=  8.19325755545250E-06
(PID.TID 0000.0001)  cg2d: iter=    60 ; resid.=  6.67938421415752E-06
(PID.TID 0000.0001)  cg2d: iter=    61 ; resid.=  5.28068225276692E-06
(PID.TID 0000.0001)  cg2d: iter=    62 ; resid.=  4.11993175386832E-06
(PID.TID 0000.0001)  cg2d: iter=    63 ; resid.=  3.22828784382374E-06
(PID.TID 0000.0001)  cg2d: iter=    64 ; resid.=  2.49668884495640E-06
(PID.TID 0000.0001)  cg2d: iter=    65 ; resid.=  2.08404496572128E-06
(PID.TID 0000.0001)  cg2d: iter=    66 ; resid.=  1.64078534605623E-06
(PID.TID 0000.0001)  cg2d: iter=    67 ; resid.=  1.45477566064392E-06
(PID.TID 0000.0001)  cg2d: iter=    68 ; resid.=  1.30042639088713E-06
(PID.TID 0000.0001)  cg2d: iter=    69 ; resid.=  1.03512717913330E-06
(PID.TID 0000.0001)  cg2d: iter=    70 ; resid.=  8.51176586544831E-07
(PID.TID 0000.0001)  cg2d: iter=    71 ; resid.=  7.09528804661249E-07
(PID.TID 0000.0001)  cg2d: iter=    72 ; resid.=  6.33870026151940E-07
(PID.TID 0000.0001)  cg2d: iter=    73 ; resid.=  5.40699981470807E-07
(PID.TID 0000.0001)  cg2d: iter=    74 ; resid.=  4.64354314972537E-07
(PID.TID 0000.0001)  cg2d: iter=    75 ; resid.=  3.90747895259439E-07
(PID.TID 0000.0001)  cg2d: iter=    76 ; resid.=  3.20943934406920E-07
(PID.TID 0000.0001)  cg2d: iter=    77 ; resid.=  2.61447459975190E-07
(PID.TID 0000.0001)  cg2d: iter=    78 ; resid.=  2.15954781803437E-07
(PID.TID 0000.0001)  cg2d: iter=    79 ; resid.=  1.78815163853308E-07
(PID.TID 0000.0001)  cg2d: iter=    80 ; resid.=  1.39557758986465E-07
(PID.TID 0000.0001)  cg2d: iter=    81 ; resid.=  1.06970401296222E-07
(PID.TID 0000.0001)  cg2d: iter=    82 ; resid.=  8.07294793495169E-08
(PID.TID 0000.0001)  cg2d: iter=    83 ; resid.=  6.08469179694781E-08
(PID.TID 0000.0001)  cg2d: iter=    84 ; resid.=  4.65217885981364E-08
(PID.TID 0000.0001)  cg2d: iter=    85 ; resid.=  3.31334985717704E-08
(PID.TID 0000.0001)  cg2d: iter=    86 ; resid.=  2.59247678161113E-08
(PID.TID 0000.0001)  cg2d: iter=    87 ; resid.=  1.92764881648870E-08
(PID.TID 0000.0001)  cg2d: iter=    88 ; resid.=  1.52133983277486E-08
(PID.TID 0000.0001)  cg2d: iter=    89 ; resid.=  1.36012417567938E-08
(PID.TID 0000.0001)  cg2d: iter=    90 ; resid.=  1.17270595959582E-08
(PID.TID 0000.0001)  cg2d: iter=    91 ; resid.=  8.95601396529938E-09
(PID.TID 0000.0001)  cg2d: iter=    92 ; resid.=  6.70881894524501E-09
(PID.TID 0000.0001)  cg2d: iter=    93 ; resid.=  5.13331376842096E-09
(PID.TID 0000.0001)  cg2d: iter=    94 ; resid.=  4.05895944772725E-09
(PID.TID 0000.0001)  cg2d: iter=    95 ; resid.=  3.29949598596215E-09
(PID.TID 0000.0001)  cg2d: iter=    96 ; resid.=  2.53556202173611E-09
(PID.TID 0000.0001)  cg2d: iter=    97 ; resid.=  1.95970565245131E-09
(PID.TID 0000.0001)  cg2d: iter=    98 ; resid.=  1.58568718493728E-09
(PID.TID 0000.0001)  cg2d: iter=    99 ; resid.=  1.41286041565260E-09
(PID.TID 0000.0001)  cg2d: iter=   100 ; resid.=  1.24009169125185E-09
(PID.TID 0000.0001)  cg2d: iter=   101 ; resid.=  9.81445509941485E-10
(PID.TID 0000.0001)  cg2d: iter=   102 ; resid.=  7.58001148714570E-10
(PID.TID 0000.0001)  cg2d: iter=   103 ; resid.=  6.11015455947166E-10
(PID.TID 0000.0001)  cg2d: iter=   104 ; resid.=  5.54656659753866E-10
(PID.TID 0000.0001)  cg2d: iter=   105 ; resid.=  4.58954220023842E-10
(PID.TID 0000.0001)  cg2d: iter=   106 ; resid.=  3.80535704451686E-10
(PID.TID 0000.0001)  cg2d: iter=   107 ; resid.=  2.94234630060015E-10
(PID.TID 0000.0001)  cg2d: iter=   108 ; resid.=  2.37822830717821E-10
(PID.TID 0000.0001)  cg2d: iter=   109 ; resid.=  1.77962600842394E-10
(PID.TID 0000.0001)  cg2d: iter=   110 ; resid.=  1.26416039125818E-10
(PID.TID 0000.0001)  cg2d: iter=   111 ; resid.=  1.02349428619633E-10
(PID.TID 0000.0001)  cg2d: iter=   112 ; resid.=  7.19523304575722E-11
(PID.TID 0000.0001)  cg2d: iter=   113 ; resid.=  5.12200644206567E-11
(PID.TID 0000.0001)  cg2d: iter=   114 ; resid.=  4.01285744038034E-11
(PID.TID 0000.0001)  cg2d: iter=   115 ; resid.=  2.77623650357901E-11
(PID.TID 0000.0001)  cg2d: iter=   116 ; resid.=  2.02164586683731E-11
(PID.TID 0000.0001)  cg2d: iter=   117 ; resid.=  1.55335604705601E-11
(PID.TID 0000.0001)  cg2d: iter=   118 ; resid.=  1.13158008088138E-11
(PID.TID 0000.0001)  cg2d: iter=   119 ; resid.=  8.98364410524818E-12
(PID.TID 0000.0001)  cg2d: iter=   120 ; resid.=  6.96343130208279E-12
(PID.TID 0000.0001)  cg2d: iter=   121 ; resid.=  5.24436209664132E-12
(PID.TID 0000.0001)  cg2d: iter=   122 ; resid.=  4.36689576138446E-12
(PID.TID 0000.0001)  cg2d: iter=   123 ; resid.=  3.76957036653607E-12
(PID.TID 0000.0001)  cg2d: iter=   124 ; resid.=  3.07403462839416E-12
(PID.TID 0000.0001)  cg2d: iter=   125 ; resid.=  2.31450680503672E-12
(PID.TID 0000.0001)  cg2d: iter=   126 ; resid.=  1.59190876215034E-12
(PID.TID 0000.0001)  cg2d: iter=   127 ; resid.=  1.03266985302467E-12
(PID.TID 0000.0001)  cg2d: iter=   128 ; resid.=  6.92148598415604E-13
(PID.TID 0000.0001)  cg2d: iter=   129 ; resid.=  4.51509746060853E-13
(PID.TID 0000.0001)  cg2d: iter=   130 ; resid.=  3.21379787049075E-13
(PID.TID 0000.0001)  cg2d: iter=   131 ; resid.=  2.37263571696515E-13
(PID.TID 0000.0001)  cg2d: iter=   132 ; resid.=  1.81235247867492E-13
(PID.TID 0000.0001)  cg2d: iter=   133 ; resid.=  1.39337998628449E-13
(PID.TID 0000.0001)  cg2d: iter=   134 ; resid.=  1.09513898601980E-13
(PID.TID 0000.0001)  cg2d: iter=   135 ; resid.=  8.13466189435175E-14
DEBUG_STATS_RL:    cg2d_x (SOLVE_FOR_PRESSURE)  min= -2.09880313286526E+01
DEBUG_STATS_RL:    cg2d_x (SOLVE_FOR_PRESSURE)  max=  1.00917852884292E+01
DEBUG_STATS_RL:    cg2d_x (SOLVE_FOR_PRESSURE) mean= -1.60419566472358E+00
DEBUG_STATS_RL:    cg2d_x (SOLVE_FOR_PRESSURE) S.D.=  7.31578423716368E+00
(PID.TID 0000.0001)      cg2d_init_res =   3.82101618170496E-01
(PID.TID 0000.0001)      cg2d_iters(min,last) =      -1     135
(PID.TID 0000.0001)      cg2d_last_res =   8.13466189435175E-14
(PID.TID 0000.0001) // =======================================================
(PID.TID 0000.0001) // Begin MONITOR dynamic field statistics
(PID.TID 0000.0001) // =======================================================
(PID.TID 0000.0001) %MON time_tsnumber                =                    64
(PID.TID 0000.0001) %MON time_secondsf                =   5.5296000000000E+06
(PID.TID 0000.0001) %MON dynstat_eta_max              =   1.0287242903598E+00
(PID.TID 0000.0001) %MON dynstat_eta_min              =  -2.1394527348271E+00
(PID.TID 0000.0001) %MON dynstat_eta_mean             =  -4.7034183328583E-03
(PID.TID 0000.0001) %MON dynstat_eta_sd               =   6.3228904790334E-01
(PID.TID 0000.0001) %MON dynstat_eta_del2             =   2.4387888044959E-03
(PID.TID 0000.0001) %MON dynstat_uvel_max             =   1.6822812188144E-01
(PID.TID 0000.0001) %MON dynstat_uvel_min             =  -1.4774275741349E-01
(PID.TID 0000.0001) %MON dynstat_uvel_mean            =   2.4143345697699E-03
(PID.TID 0000.0001) %MON dynstat_uvel_sd              =   2.0696603220319E-02
(PID.TID 0000.0001) %MON dynstat_uvel_del2            =   1.3318615404702E-04
(PID.TID 0000.0001) %MON dynstat_vvel_max             =   1.5089489768593E-01
(PID.TID 0000.0001) %MON dynstat_vvel_min             =  -1.2015476427298E-01
(PID.TID 0000.0001) %MON dynstat_vvel_mean            =   1.3424286518248E-04
(PID.TID 0000.0001) %MON dynstat_vvel_sd              =   1.1530872436567E-02
(PID.TID 0000.0001) %MON dynstat_vvel_del2            =   9.3571562757935E-05
(PID.TID 0000.0001) %MON dynstat_wvel_max             =   1.4907417188390E-04
(PID.TID 0000.0001) %MON dynstat_wvel_min             =  -1.3100610149984E-04
(PID.TID 0000.0001) %MON dynstat_wvel_mean            =  -3.7501868914153E-23
(PID.TID 0000.0001) %MON dynstat_wvel_sd              =   1.6552321948470E-05
(PID.TID 0000.0001) %MON dynstat_wvel_del2            =   1.6161748010505E-07
(PID.TID 0000.0001) %MON dynstat_theta_max            =   3.0719335973249E+01
(PID.TID 0000.0001) %MON dynstat_theta_min            =  -1.9600245404175E+00
(PID.TID 0000.0001) %MON dynstat_theta_mean           =   3.6533436547848E+00
(PID.TID 0000.0001) %MON dynstat_theta_sd             =   4.4246732533570E+00
(PID.TID 0000.0001) %MON dynstat_theta_del2           =   4.9392590745792E-03
(PID.TID 0000.0001) %MON dynstat_salt_max             =   3.7496701378973E+01
(PID.TID 0000.0001) %MON dynstat_salt_min             =   2.9922058249015E+01
(PID.TID 0000.0001) %MON dynstat_salt_mean            =   3.4747952376807E+01
(PID.TID 0000.0001) %MON dynstat_salt_sd              =   2.9637847722545E-01
(PID.TID 0000.0001) %MON dynstat_salt_del2            =   9.9203964621347E-04
(PID.TID 0000.0001) %MON dynstat_sst_max              =   3.0719335973249E+01
(PID.TID 0000.0001) %MON dynstat_sst_min              =  -1.9600245404175E+00
(PID.TID 0000.0001) %MON dynstat_sst_mean             =   1.9041925752998E+01
(PID.TID 0000.0001) %MON dynstat_sst_sd               =   9.0808924141175E+00
(PID.TID 0000.0001) %MON dynstat_sst_del2             =   2.8123404726712E-02
(PID.TID 0000.0001) %MON dynstat_sss_max              =   3.7474622882144E+01
(PID.TID 0000.0001) %MON dynstat_sss_min              =   2.9922058249015E+01
(PID.TID 0000.0001) %MON dynstat_sss_mean             =   3.4869742377897E+01
(PID.TID 0000.0001) %MON dynstat_sss_sd               =   9.8205569370875E-01
(PID.TID 0000.0001) %MON dynstat_sss_del2             =   8.0355807089845E-03
(PID.TID 0000.0001) %MON forcing_qnet_max             =   3.0808551025391E+02
(PID.TID 0000.0001) %MON forcing_qnet_min             =  -1.6744694213867E+02
(PID.TID 0000.0001) %MON forcing_qnet_mean            =  -9.9451399856641E+00
(PID.TID 0000.0001) %MON forcing_qnet_sd              =   5.6487700992384E+01
(PID.TID 0000.0001) %MON forcing_qnet_del2            =   8.7196058081462E-01
(PID.TID 0000.0001) %MON forcing_qsw_max              =   0.0000000000000E+00
(PID.TID 0000.0001) %MON forcing_qsw_min              =   0.0000000000000E+00
(PID.TID 0000.0001) %MON forcing_qsw_mean             =   0.0000000000000E+00
(PID.TID 0000.0001) %MON forcing_qsw_sd               =   0.0000000000000E+00
(PID.TID 0000.0001) %MON forcing_qsw_del2             =   0.0000000000000E+00
(PID.TID 0000.0001) %MON forcing_empmr_max            =   6.9177897898953E-05
(PID.TID 0000.0001) %MON forcing_empmr_min            =  -7.8474262465988E-05
(PID.TID 0000.0001) %MON forcing_empmr_mean           =   7.0779022417096E-07
(PID.TID 0000.0001) %MON forcing_empmr_sd             =   2.6711132545716E-05
(PID.TID 0000.0001) %MON forcing_empmr_del2           =   3.5552428900822E-07
(PID.TID 0000.0001) %MON forcing_fu_max               =   3.3425440788269E-01
(PID.TID 0000.0001) %MON forcing_fu_min               =  -3.1265568137169E-01
(PID.TID 0000.0001) %MON forcing_fu_mean              =   1.9326334226887E-02
(PID.TID 0000.0001) %MON forcing_fu_sd                =   9.6352675211700E-02
(PID.TID 0000.0001) %MON forcing_fu_del2              =   7.2933779422692E-04
(PID.TID 0000.0001) %MON forcing_fv_max               =   1.4972177743912E-01
(PID.TID 0000.0001) %MON forcing_fv_min               =  -1.7535814046860E-01
(PID.TID 0000.0001) %MON forcing_fv_mean              =  -7.4044352404109E-03
(PID.TID 0000.0001) %MON forcing_fv_sd                =   4.1735684182933E-02
(PID.TID 0000.0001) %MON forcing_fv_del2              =   4.6697714482083E-04
(PID.TID 0000.0001) %MON trAdv_CFL_u_max              =   4.8125046532538E-02
(PID.TID 0000.0001) %MON trAdv_CFL_v_max              =   2.8525568430398E-02
(PID.TID 0000.0001) %MON trAdv_CFL_w_max              =   5.2431587504151E-02
(PID.TID 0000.0001) %MON advcfl_uvel_max              =   5.0847318047719E-02
(PID.TID 0000.0001) %MON advcfl_vvel_max              =   2.9316458557172E-02
(PID.TID 0000.0001) %MON advcfl_wvel_max              =   5.9907016050088E-02
(PID.TID 0000.0001) %MON advcfl_W_hf_max              =   6.7789518161941E-02
(PID.TID 0000.0001) %MON pe_b_mean                    =   5.1160708430870E-04
(PID.TID 0000.0001) %MON ke_max                       =   1.6792735656608E-02
(PID.TID 0000.0001) %MON ke_mean                      =   2.5695393634025E-04
(PID.TID 0000.0001) %MON ke_vol                       =   1.3226782436723E+18
(PID.TID 0000.0001) %MON vort_r_min                   =  -3.9332273159932E-07
(PID.TID 0000.0001) %MON vort_r_max                   =   5.9644093423784E-07
(PID.TID 0000.0001) %MON vort_a_mean                  =  -2.5274807583683E-05
(PID.TID 0000.0001) %MON vort_a_sd                    =   7.3604624195604E-05
(PID.TID 0000.0001) %MON vort_p_mean                  =  -3.1845656034120E-05
(PID.TID 0000.0001) %MON vort_p_sd                    =   1.3162369529682E-04
(PID.TID 0000.0001) %MON surfExpan_theta_mean         =   7.8149106368652E-07
(PID.TID 0000.0001) %MON surfExpan_salt_mean          =  -2.0871236735723E-07
(PID.TID 0000.0001) // =======================================================
(PID.TID 0000.0001) // End MONITOR dynamic field statistics
(PID.TID 0000.0001) // =======================================================
 EXTERNAL_FIELDS_LOAD,        64 : iP,iLd,i0,i1=    2    3    2    3 ; Wght=  0.3666666667  0.6333333333
 EXTERNAL_FIELDS_LOAD: (fu0,1),fu,fv= -1.4435E-02 -2.7199E-02 -2.2519E-02 -6.8325E-03
 EXTERNAL_FIELDS_LOAD: SST,SSS,Q,E-P= -3.1149E-01  3.4521E+01  2.2459E+02  8.8228E-06
DEBUG_STATS_RL:          Uvel (THERMODYNAMICS)  min= -1.47742757413485E-01
DEBUG_STATS_RL:          Uvel (THERMODYNAMICS)  max=  1.68228121881439E-01
DEBUG_STATS_RL:          Uvel (THERMODYNAMICS) mean=  6.31220457341586E-03
DEBUG_STATS_RL:          Uvel (THERMODYNAMICS) S.D.=  2.67418933632600E-02
DEBUG_STATS_RL:          Vvel (THERMODYNAMICS)  min= -1.20154764272983E-01
DEBUG_STATS_RL:          Vvel (THERMODYNAMICS)  max=  1.50894897685932E-01
DEBUG_STATS_RL:          Vvel (THERMODYNAMICS) mean=  4.39661862850873E-04
DEBUG_STATS_RL:          Vvel (THERMODYNAMICS) S.D.=  1.62978908431426E-02
DEBUG_STATS_RL:          Wvel (THERMODYNAMICS)  min= -1.31006101499842E-04
DEBUG_STATS_RL:          Wvel (THERMODYNAMICS)  max=  1.49074171883899E-04
DEBUG_STATS_RL:          Wvel (THERMODYNAMICS) mean= -1.80928596726069E-07
DEBUG_STATS_RL:          Wvel (THERMODYNAMICS) S.D.=  1.41652917083598E-05
DEBUG_STATS_RL:         Theta (THERMODYNAMICS)  min= -1.95847926406510E+00
DEBUG_STATS_RL:         Theta (THERMODYNAMICS)  max=  3.07369570360130E+01
DEBUG_STATS_RL:         Theta (THERMODYNAMICS) mean=  3.25020213946102E+00
DEBUG_STATS_RL:         Theta (THERMODYNAMICS) S.D.=  5.87978027104048E+00
DEBUG_STATS_RL:          Salt (THERMODYNAMICS)  min=  3.00000000000000E-02
DEBUG_STATS_RL:          Salt (THERMODYNAMICS)  max=  3.74968738404920E+01
DEBUG_STATS_RL:          Salt (THERMODYNAMICS) mean=  1.88747521733588E+01
DEBUG_STATS_RL:          Salt (THERMODYNAMICS) S.D.=  1.73002892775983E+01
DEBUG_STATS_RL:         GtNm1 (THERMODYNAMICS)  min= -2.60346733486714E-06
DEBUG_STATS_RL:         GtNm1 (THERMODYNAMICS)  max=  2.20950468242735E-06
DEBUG_STATS_RL:         GtNm1 (THERMODYNAMICS) mean=  3.90079626905684E-09
DEBUG_STATS_RL:         GtNm1 (THERMODYNAMICS) S.D.=  1.77149792163488E-07
DEBUG_STATS_RL:         GsNm1 (THERMODYNAMICS)  min= -4.07244919115114E-07
DEBUG_STATS_RL:         GsNm1 (THERMODYNAMICS)  max=  2.84376125815098E-07
DEBUG_STATS_RL:         GsNm1 (THERMODYNAMICS) mean= -2.62223867052343E-10
DEBUG_STATS_RL:         GsNm1 (THERMODYNAMICS) S.D.=  1.73932823156130E-08
DEBUG_STATS_RL:                EtaN (DYNAMICS)  min= -2.13945273482706E+00
DEBUG_STATS_RL:                EtaN (DYNAMICS)  max=  1.02872429035982E+00
DEBUG_STATS_RL:                EtaN (DYNAMICS) mean= -1.63526571327585E-01
DEBUG_STATS_RL:                EtaN (DYNAMICS) S.D.=  7.45747628660922E-01
DEBUG_STATS_RL:                Uvel (DYNAMICS)  min= -1.47742757413485E-01
DEBUG_STATS_RL:                Uvel (DYNAMICS)  max=  1.68228121881439E-01
DEBUG_STATS_RL:                Uvel (DYNAMICS) mean=  6.31220457341586E-03
DEBUG_STATS_RL:                Uvel (DYNAMICS) S.D.=  2.67418933632600E-02
DEBUG_STATS_RL:                Vvel (DYNAMICS)  min= -1.20154764272983E-01
DEBUG_STATS_RL:                Vvel (DYNAMICS)  max=  1.50894897685932E-01
DEBUG_STATS_RL:                Vvel (DYNAMICS) mean=  4.39661862850873E-04
DEBUG_STATS_RL:                Vvel (DYNAMICS) S.D.=  1.62978908431426E-02
DEBUG_STATS_RL:                Wvel (DYNAMICS)  min= -1.31006101499842E-04
DEBUG_STATS_RL:                Wvel (DYNAMICS)  max=  1.49074171883899E-04
DEBUG_STATS_RL:                Wvel (DYNAMICS) mean= -1.80928596726069E-07
DEBUG_STATS_RL:                Wvel (DYNAMICS) S.D.=  1.41652917083598E-05
DEBUG_STATS_RL:               Theta (DYNAMICS)  min= -1.95847926406510E+00
DEBUG_STATS_RL:               Theta (DYNAMICS)  max=  3.07369570360130E+01
DEBUG_STATS_RL:               Theta (DYNAMICS) mean=  3.25020213946102E+00
DEBUG_STATS_RL:               Theta (DYNAMICS) S.D.=  5.87978027104048E+00
DEBUG_STATS_RL:                Salt (DYNAMICS)  min=  3.00000000000000E-02
DEBUG_STATS_RL:                Salt (DYNAMICS)  max=  3.74968738404920E+01
DEBUG_STATS_RL:                Salt (DYNAMICS) mean=  1.88747521733588E+01
DEBUG_STATS_RL:                Salt (DYNAMICS) S.D.=  1.73002892775983E+01
DEBUG_STATS_RL:                  Gu (DYNAMICS)  min= -1.46768286626334E-01
DEBUG_STATS_RL:                  Gu (DYNAMICS)  max=  1.74690968901556E-01
DEBUG_STATS_RL:                  Gu (DYNAMICS) mean=  6.20038606395931E-03
DEBUG_STATS_RL:                  Gu (DYNAMICS) S.D.=  2.72730674841246E-02
DEBUG_STATS_RL:                  Gv (DYNAMICS)  min= -1.18044973958935E-01
DEBUG_STATS_RL:                  Gv (DYNAMICS)  max=  1.52042484583360E-01
DEBUG_STATS_RL:                  Gv (DYNAMICS) mean=  3.27522859596780E-03
DEBUG_STATS_RL:                  Gv (DYNAMICS) S.D.=  1.71631395968637E-02
DEBUG_STATS_RL:               GuNm1 (DYNAMICS)  min= -1.03030817816295E-05
DEBUG_STATS_RL:               GuNm1 (DYNAMICS)  max=  9.48260798365606E-06
DEBUG_STATS_RL:               GuNm1 (DYNAMICS) mean=  1.01869901752364E-08
DEBUG_STATS_RL:               GuNm1 (DYNAMICS) S.D.=  1.21383054132214E-06
DEBUG_STATS_RL:               GvNm1 (DYNAMICS)  min= -1.03411568473594E-05
DEBUG_STATS_RL:               GvNm1 (DYNAMICS)  max=  1.56910720245538E-05
DEBUG_STATS_RL:               GvNm1 (DYNAMICS) mean=  7.46189440891115E-07
DEBUG_STATS_RL:               GvNm1 (DYNAMICS) S.D.=  2.66365384885819E-06
DEBUG_STATS_RL:               GtNm1 (DYNAMICS)  min= -2.60346733486714E-06
DEBUG_STATS_RL:               GtNm1 (DYNAMICS)  max=  2.20950468242735E-06
DEBUG_STATS_RL:               GtNm1 (DYNAMICS) mean=  3.90079626905684E-09
DEBUG_STATS_RL:               GtNm1 (DYNAMICS) S.D.=  1.77149792163488E-07
DEBUG_STATS_RL:               GsNm1 (DYNAMICS)  min= -4.07244919115114E-07
DEBUG_STATS_RL:               GsNm1 (DYNAMICS)  max=  2.84376125815098E-07
DEBUG_STATS_RL:               GsNm1 (DYNAMICS) mean= -2.62223867052343E-10
DEBUG_STATS_RL:               GsNm1 (DYNAMICS) S.D.=  1.73932823156130E-08
DEBUG_STATS_RL:    cg2d_b (SOLVE_FOR_PRESSURE)  min= -1.90072754833500E+04
DEBUG_STATS_RL:    cg2d_b (SOLVE_FOR_PRESSURE)  max=  2.63816284300571E+04
DEBUG_STATS_RL:    cg2d_b (SOLVE_FOR_PRESSURE) mean=  4.56346579419835E+00
DEBUG_STATS_RL:    cg2d_b (SOLVE_FOR_PRESSURE) S.D.=  4.05494663662536E+03
 cg2d: Sum(rhs),rhsMax =   4.00446217396228E-01  1.73281599013643E+00
(PID.TID 0000.0001)  cg2d: iter=     1 ; resid.=  2.59243367882322E-01
(PID.TID 0000.0001)  cg2d: iter=     2 ; resid.=  2.57079799792004E-01
(PID.TID 0000.0001)  cg2d: iter=     3 ; resid.=  2.53291713876764E-01
(PID.TID 0000.0001)  cg2d: iter=     4 ; resid.=  2.22156515337939E-01
(PID.TID 0000.0001)  cg2d: iter=     5 ; resid.=  1.93249579664601E-01
(PID.TID 0000.0001)  cg2d: iter=     6 ; resid.=  1.66073977002414E-01
(PID.TID 0000.0001)  cg2d: iter=     7 ; resid.=  1.41986133272563E-01
(PID.TID 0000.0001)  cg2d: iter=     8 ; resid.=  1.14801563495246E-01
(PID.TID 0000.0001)  cg2d: iter=     9 ; resid.=  8.74960849725451E-02
(PID.TID 0000.0001)  cg2d: iter=    10 ; resid.=  7.35352333006706E-02
(PID.TID 0000.0001)  cg2d: iter=    11 ; resid.=  6.11952847896672E-02
(PID.TID 0000.0001)  cg2d: iter=    12 ; resid.=  5.14955719059187E-02
(PID.TID 0000.0001)  cg2d: iter=    13 ; resid.=  4.00296554461451E-02
(PID.TID 0000.0001)  cg2d: iter=    14 ; resid.=  3.24894092288055E-02
(PID.TID 0000.0001)  cg2d: iter=    15 ; resid.=  2.69774374661767E-02
(PID.TID 0000.0001)  cg2d: iter=    16 ; resid.=  2.33279498849265E-02
(PID.TID 0000.0001)  cg2d: iter=    17 ; resid.=  2.12424324433097E-02
(PID.TID 0000.0001)  cg2d: iter=    18 ; resid.=  1.68583412500607E-02
(PID.TID 0000.0001)  cg2d: iter=    19 ; resid.=  1.39210943482550E-02
(PID.TID 0000.0001)  cg2d: iter=    20 ; resid.=  1.22801624894453E-02
(PID.TID 0000.0001)  cg2d: iter=    21 ; resid.=  1.08836459736916E-02
(PID.TID 0000.0001)  cg2d: iter=    22 ; resid.=  9.41557047425767E-03
(PID.TID 0000.0001)  cg2d: iter=    23 ; resid.=  7.30220335309498E-03
(PID.TID 0000.0001)  cg2d: iter=    24 ; resid.=  5.91746717129272E-03
(PID.TID 0000.0001)  cg2d: iter=    25 ; resid.=  4.61601332437878E-03
(PID.TID 0000.0001)  cg2d: iter=    26 ; resid.=  3.72446187797379E-03
(PID.TID 0000.0001)  cg2d: iter=    27 ; resid.=  3.13272723190119E-03
(PID.TID 0000.0001)  cg2d: iter=    28 ; resid.=  2.61684703983860E-03
(PID.TID 0000.0001)  cg2d: iter=    29 ; resid.=  2.12392145537444E-03
(PID.TID 0000.0001)  cg2d: iter=    30 ; resid.=  1.69009916243752E-03
(PID.TID 0000.0001)  cg2d: iter=    31 ; resid.=  1.30825351461072E-03
(PID.TID 0000.0001)  cg2d: iter=    32 ; resid.=  9.71330949292647E-04
(PID.TID 0000.0001)  cg2d: iter=    33 ; resid.=  8.03406331465212E-04
(PID.TID 0000.0001)  cg2d: iter=    34 ; resid.=  7.25378381143657E-04
(PID.TID 0000.0001)  cg2d: iter=    35 ; resid.=  6.34536861302583E-04
(PID.TID 0000.0001)  cg2d: iter=    36 ; resid.=  5.26286322586969E-04
(PID.TID 0000.0001)  cg2d: iter=    37 ; resid.=  4.34800494950553E-04
(PID.TID 0000.0001)  cg2d: iter=    38 ; resid.=  3.63481634792716E-04
(PID.TID 0000.0001)  cg2d: iter=    39 ; resid.=  3.14936289752531E-04
(PID.TID 0000.0001)  cg2d: iter=    40 ; resid.=  2.60868536771317E-04
(PID.TID 0000.0001)  cg2d: iter=    41 ; resid.=  2.20236642089134E-04
(PID.TID 0000.0001)  cg2d: iter=    42 ; resid.=  1.97530183100336E-04
(PID.TID 0000.0001)  cg2d: iter=    43 ; resid.=  1.68044542918735E-04
(PID.TID 0000.0001)  cg2d: iter=    44 ; resid.=  1.33479622383615E-04
(PID.TID 0000.0001)  cg2d: iter=    45 ; resid.=  1.11863269123492E-04
(PID.TID 0000.0001)  cg2d: iter=    46 ; resid.=  8.93364192021941E-05
(PID.TID 0000.0001)  cg2d: iter=    47 ; resid.=  7.29847284585752E-05
(PID.TID 0000.0001)  cg2d: iter=    48 ; resid.=  6.34741053220158E-05
(PID.TID 0000.0001)  cg2d: iter=    49 ; resid.=  5.69582865760586E-05
(PID.TID 0000.0001)  cg2d: iter=    50 ; resid.=  4.93240676829239E-05
(PID.TID 0000.0001)  cg2d: iter=    51 ; resid.=  4.26667610542047E-05
(PID.TID 0000.0001)  cg2d: iter=    52 ; resid.=  3.61500867491823E-05
(PID.TID 0000.0001)  cg2d: iter=    53 ; resid.=  3.31508675910821E-05
(PID.TID 0000.0001)  cg2d: iter=    54 ; resid.=  2.73437929241897E-05
(PID.TID 0000.0001)  cg2d: iter=    55 ; resid.=  2.38724192910773E-05
(PID.TID 0000.0001)  cg2d: iter=    56 ; resid.=  1.88536817983125E-05
(PID.TID 0000.0001)  cg2d: iter=    57 ; resid.=  1.43969035971979E-05
(PID.TID 0000.0001)  cg2d: iter=    58 ; resid.=  1.13465451312050E-05
(PID.TID 0000.0001)  cg2d: iter=    59 ; resid.=  8.34218080880402E-06
(PID.TID 0000.0001)  cg2d: iter=    60 ; resid.=  6.95149229407872E-06
(PID.TID 0000.0001)  cg2d: iter=    61 ; resid.=  5.63542270667814E-06
(PID.TID 0000.0001)  cg2d: iter=    62 ; resid.=  4.49601775101679E-06
(PID.TID 0000.0001)  cg2d: iter=    63 ; resid.=  3.59602614197735E-06
(PID.TID 0000.0001)  cg2d: iter=    64 ; resid.=  2.81887285587290E-06
(PID.TID 0000.0001)  cg2d: iter=    65 ; resid.=  2.37245228890522E-06
(PID.TID 0000.0001)  cg2d: iter=    66 ; resid.=  1.90426578194263E-06
(PID.TID 0000.0001)  cg2d: iter=    67 ; resid.=  1.72869391589646E-06
(PID.TID 0000.0001)  cg2d: iter=    68 ; resid.=  1.60201924494910E-06
(PID.TID 0000.0001)  cg2d: iter=    69 ; resid.=  1.27183445099308E-06
(PID.TID 0000.0001)  cg2d: iter=    70 ; resid.=  1.06084036177705E-06
(PID.TID 0000.0001)  cg2d: iter=    71 ; resid.=  8.79822423603086E-07
(PID.TID 0000.0001)  cg2d: iter=    72 ; resid.=  7.70572562561276E-07
(PID.TID 0000.0001)  cg2d: iter=    73 ; resid.=  6.51122114969562E-07
(PID.TID 0000.0001)  cg2d: iter=    74 ; resid.=  5.56762467318252E-07
(PID.TID 0000.0001)  cg2d: iter=    75 ; resid.=  4.58260487464420E-07
(PID.TID 0000.0001)  cg2d: iter=    76 ; resid.=  3.62046034502963E-07
(PID.TID 0000.0001)  cg2d: iter=    77 ; resid.=  2.96634263981118E-07
(PID.TID 0000.0001)  cg2d: iter=    78 ; resid.=  2.42437369899282E-07
(PID.TID 0000.0001)  cg2d: iter=    79 ; resid.=  1.91271557688836E-07
(PID.TID 0000.0001)  cg2d: iter=    80 ; resid.=  1.42444195577061E-07
(PID.TID 0000.0001)  cg2d: iter=    81 ; resid.=  1.07909329846326E-07
(PID.TID 0000.0001)  cg2d: iter=    82 ; resid.=  8.08501265228741E-08
(PID.TID 0000.0001)  cg2d: iter=    83 ; resid.=  6.05497393615481E-08
(PID.TID 0000.0001)  cg2d: iter=    84 ; resid.=  4.58465822919539E-08
(PID.TID 0000.0001)  cg2d: iter=    85 ; resid.=  3.24871341348048E-08
(PID.TID 0000.0001)  cg2d: iter=    86 ; resid.=  2.49070972327333E-08
(PID.TID 0000.0001)  cg2d: iter=    87 ; resid.=  1.84418421485296E-08
(PID.TID 0000.0001)  cg2d: iter=    88 ; resid.=  1.44904307659913E-08
(PID.TID 0000.0001)  cg2d: iter=    89 ; resid.=  1.29278712552893E-08
(PID.TID 0000.0001)  cg2d: iter=    90 ; resid.=  1.10115504112547E-08
(PID.TID 0000.0001)  cg2d: iter=    91 ; resid.=  8.79138987845238E-09
(PID.TID 0000.0001)  cg2d: iter=    92 ; resid.=  7.02042615758606E-09
(PID.TID 0000.0001)  cg2d: iter=    93 ; resid.=  5.56908571310888E-09
(PID.TID 0000.0001)  cg2d: iter=    94 ; resid.=  4.44388123160020E-09
(PID.TID 0000.0001)  cg2d: iter=    95 ; resid.=  3.67258489450248E-09
(PID.TID 0000.0001)  cg2d: iter=    96 ; resid.=  2.88828842442992E-09
(PID.TID 0000.0001)  cg2d: iter=    97 ; resid.=  2.28071460987148E-09
(PID.TID 0000.0001)  cg2d: iter=    98 ; resid.=  1.88695608904704E-09
(PID.TID 0000.0001)  cg2d: iter=    99 ; resid.=  1.66655564800292E-09
(PID.TID 0000.0001)  cg2d: iter=   100 ; resid.=  1.43396257229846E-09
(PID.TID 0000.0001)  cg2d: iter=   101 ; resid.=  1.10791235030279E-09
(PID.TID 0000.0001)  cg2d: iter=   102 ; resid.=  8.45410019516993E-10
(PID.TID 0000.0001)  cg2d: iter=   103 ; resid.=  6.69710218254194E-10
(PID.TID 0000.0001)  cg2d: iter=   104 ; resid.=  5.86470936020816E-10
(PID.TID 0000.0001)  cg2d: iter=   105 ; resid.=  4.67545279419415E-10
(PID.TID 0000.0001)  cg2d: iter=   106 ; resid.=  3.85970125219666E-10
(PID.TID 0000.0001)  cg2d: iter=   107 ; resid.=  3.00864796236511E-10
(PID.TID 0000.0001)  cg2d: iter=   108 ; resid.=  2.35394219270214E-10
(PID.TID 0000.0001)  cg2d: iter=   109 ; resid.=  1.74943469764813E-10
(PID.TID 0000.0001)  cg2d: iter=   110 ; resid.=  1.25003791108206E-10
(PID.TID 0000.0001)  cg2d: iter=   111 ; resid.=  9.96764430117489E-11
(PID.TID 0000.0001)  cg2d: iter=   112 ; resid.=  6.92941096787447E-11
(PID.TID 0000.0001)  cg2d: iter=   113 ; resid.=  4.88467527811011E-11
(PID.TID 0000.0001)  cg2d: iter=   114 ; resid.=  3.86876987240980E-11
(PID.TID 0000.0001)  cg2d: iter=   115 ; resid.=  2.72293785929251E-11
(PID.TID 0000.0001)  cg2d: iter=   116 ; resid.=  2.02691890536845E-11
(PID.TID 0000.0001)  cg2d: iter=   117 ; resid.=  1.61668727414065E-11
(PID.TID 0000.0001)  cg2d: iter=   118 ; resid.=  1.20096430229029E-11
(PID.TID 0000.0001)  cg2d: iter=   119 ; resid.=  9.69808315593045E-12
(PID.TID 0000.0001)  cg2d: iter=   120 ; resid.=  7.75930597405773E-12
(PID.TID 0000.0001)  cg2d: iter=   121 ; resid.=  5.95122202559074E-12
(PID.TID 0000.0001)  cg2d: iter=   122 ; resid.=  4.90131216678515E-12
(PID.TID 0000.0001)  cg2d: iter=   123 ; resid.=  4.14755318758604E-12
(PID.TID 0000.0001)  cg2d: iter=   124 ; resid.=  3.35433880169917E-12
(PID.TID 0000.0001)  cg2d: iter=   125 ; resid.=  2.49105111402731E-12
(PID.TID 0000.0001)  cg2d: iter=   126 ; resid.=  1.70954104827195E-12
(PID.TID 0000.0001)  cg2d: iter=   127 ; resid.=  1.08292430866546E-12
(PID.TID 0000.0001)  cg2d: iter=   128 ; resid.=  7.20866282625842E-13
(PID.TID 0000.0001)  cg2d: iter=   129 ; resid.=  4.58085450064299E-13
(PID.TID 0000.0001)  cg2d: iter=   130 ; resid.=  3.04724945028690E-13
(PID.TID 0000.0001)  cg2d: iter=   131 ; resid.=  2.10516242438497E-13
(PID.TID 0000.0001)  cg2d: iter=   132 ; resid.=  1.52133718698049E-13
(PID.TID 0000.0001)  cg2d: iter=   133 ; resid.=  1.14828733260015E-13
(PID.TID 0000.0001)  cg2d: iter=   134 ; resid.=  9.03504726055137E-14
DEBUG_STATS_RL:    cg2d_x (SOLVE_FOR_PRESSURE)  min= -2.07440801246421E+01
DEBUG_STATS_RL:    cg2d_x (SOLVE_FOR_PRESSURE)  max=  8.96953550911858E+00
DEBUG_STATS_RL:    cg2d_x (SOLVE_FOR_PRESSURE) mean= -1.64128111109585E+00
DEBUG_STATS_RL:    cg2d_x (SOLVE_FOR_PRESSURE) S.D.=  7.33025100252197E+00
(PID.TID 0000.0001)      cg2d_init_res =   3.85625573061118E-01
(PID.TID 0000.0001)      cg2d_iters(min,last) =      -1     134
(PID.TID 0000.0001)      cg2d_last_res =   9.03504726055137E-14
(PID.TID 0000.0001) // =======================================================
(PID.TID 0000.0001) // Begin MONITOR dynamic field statistics
(PID.TID 0000.0001) // =======================================================
(PID.TID 0000.0001) %MON time_tsnumber                =                    65
(PID.TID 0000.0001) %MON time_secondsf                =   5.6160000000000E+06
(PID.TID 0000.0001) %MON dynstat_eta_max              =   9.1432573997128E-01
(PID.TID 0000.0001) %MON dynstat_eta_min              =  -2.1145851299330E+00
(PID.TID 0000.0001) %MON dynstat_eta_mean             =  -4.7614107051686E-03
(PID.TID 0000.0001) %MON dynstat_eta_sd               =   6.3178222110831E-01
(PID.TID 0000.0001) %MON dynstat_eta_del2             =   2.4373171774623E-03
(PID.TID 0000.0001) %MON dynstat_uvel_max             =   1.7333294309761E-01
(PID.TID 0000.0001) %MON dynstat_uvel_min             =  -1.4802353583156E-01
(PID.TID 0000.0001) %MON dynstat_uvel_mean            =   2.4859318953313E-03
(PID.TID 0000.0001) %MON dynstat_uvel_sd              =   2.0792789343290E-02
(PID.TID 0000.0001) %MON dynstat_uvel_del2            =   1.3486516954575E-04
(PID.TID 0000.0001) %MON dynstat_vvel_max             =   1.5401709926877E-01
(PID.TID 0000.0001) %MON dynstat_vvel_min             =  -1.2802489542129E-01
(PID.TID 0000.0001) %MON dynstat_vvel_mean            =   8.1214983562519E-05
(PID.TID 0000.0001) %MON dynstat_vvel_sd              =   1.1413883739740E-02
(PID.TID 0000.0001) %MON dynstat_vvel_del2            =   9.3836150611346E-05
(PID.TID 0000.0001) %MON dynstat_wvel_max             =   1.4824916588186E-04
(PID.TID 0000.0001) %MON dynstat_wvel_min             =  -1.3010974619052E-04
(PID.TID 0000.0001) %MON dynstat_wvel_mean            =   2.0067513830577E-22
(PID.TID 0000.0001) %MON dynstat_wvel_sd              =   1.6432893466797E-05
(PID.TID 0000.0001) %MON dynstat_wvel_del2            =   1.6040845413247E-07
(PID.TID 0000.0001) %MON dynstat_theta_max            =   3.0736957036013E+01
(PID.TID 0000.0001) %MON dynstat_theta_min            =  -1.9584792640651E+00
(PID.TID 0000.0001) %MON dynstat_theta_mean           =   3.6533779232053E+00
(PID.TID 0000.0001) %MON dynstat_theta_sd             =   4.4248176351597E+00
(PID.TID 0000.0001) %MON dynstat_theta_del2           =   4.9367789792548E-03
(PID.TID 0000.0001) %MON dynstat_salt_max             =   3.7496873840492E+01
(PID.TID 0000.0001) %MON dynstat_salt_min             =   2.9924439400283E+01
(PID.TID 0000.0001) %MON dynstat_salt_mean            =   3.4747958663451E+01
(PID.TID 0000.0001) %MON dynstat_salt_sd              =   2.9639416422127E-01
(PID.TID 0000.0001) %MON dynstat_salt_del2            =   9.9223590438319E-04
(PID.TID 0000.0001) %MON dynstat_sst_max              =   3.0736957036013E+01
(PID.TID 0000.0001) %MON dynstat_sst_min              =  -1.9584792640651E+00
(PID.TID 0000.0001) %MON dynstat_sst_mean             =   1.9047322261306E+01
(PID.TID 0000.0001) %MON dynstat_sst_sd               =   9.0850281535653E+00
(PID.TID 0000.0001) %MON dynstat_sst_del2             =   2.8163643365158E-02
(PID.TID 0000.0001) %MON dynstat_sss_max              =   3.7475682751602E+01
(PID.TID 0000.0001) %MON dynstat_sss_min              =   2.9924439400283E+01
(PID.TID 0000.0001) %MON dynstat_sss_mean             =   3.4869566471191E+01
(PID.TID 0000.0001) %MON dynstat_sss_sd               =   9.8238907233931E-01
(PID.TID 0000.0001) %MON dynstat_sss_del2             =   8.0477759576893E-03
(PID.TID 0000.0001) %MON forcing_qnet_max             =   3.0528735860189E+02
(PID.TID 0000.0001) %MON forcing_qnet_min             =  -1.6714766286214E+02
(PID.TID 0000.0001) %MON forcing_qnet_mean            =  -9.7218004860374E+00
(PID.TID 0000.0001) %MON forcing_qnet_sd              =   5.5429663487321E+01
(PID.TID 0000.0001) %MON forcing_qnet_del2            =   8.6929108009557E-01
(PID.TID 0000.0001) %MON forcing_qsw_max              =   0.0000000000000E+00
(PID.TID 0000.0001) %MON forcing_qsw_min              =   0.0000000000000E+00
(PID.TID 0000.0001) %MON forcing_qsw_mean             =   0.0000000000000E+00
(PID.TID 0000.0001) %MON forcing_qsw_sd               =   0.0000000000000E+00
(PID.TID 0000.0001) %MON forcing_qsw_del2             =   0.0000000000000E+00
(PID.TID 0000.0001) %MON forcing_empmr_max            =   6.9172141555403E-05
(PID.TID 0000.0001) %MON forcing_empmr_min            =  -7.8873442059072E-05
(PID.TID 0000.0001) %MON forcing_empmr_mean           =   6.9470029329661E-07
(PID.TID 0000.0001) %MON forcing_empmr_sd             =   2.6662470783822E-05
(PID.TID 0000.0001) %MON forcing_empmr_del2           =   3.5610054420546E-07
(PID.TID 0000.0001) %MON forcing_fu_max               =   3.3619582355022E-01
(PID.TID 0000.0001) %MON forcing_fu_min               =  -3.1846311191718E-01
(PID.TID 0000.0001) %MON forcing_fu_mean              =   1.9420533816345E-02
(PID.TID 0000.0001) %MON forcing_fu_sd                =   9.6733067225558E-02
(PID.TID 0000.0001) %MON forcing_fu_del2              =   7.3574349447110E-04
(PID.TID 0000.0001) %MON forcing_fv_max               =   1.4864443540573E-01
(PID.TID 0000.0001) %MON forcing_fv_min               =  -1.7685593118270E-01
(PID.TID 0000.0001) %MON forcing_fv_mean              =  -7.4148635903804E-03
(PID.TID 0000.0001) %MON forcing_fv_sd                =   4.1716101821581E-02
(PID.TID 0000.0001) %MON forcing_fv_del2              =   4.6757590300349E-04
(PID.TID 0000.0001) %MON trAdv_CFL_u_max              =   5.0857645501680E-02
(PID.TID 0000.0001) %MON trAdv_CFL_v_max              =   2.9196993417393E-02
(PID.TID 0000.0001) %MON trAdv_CFL_w_max              =   5.3666701878204E-02
(PID.TID 0000.0001) %MON advcfl_uvel_max              =   5.2390261433477E-02
(PID.TID 0000.0001) %MON advcfl_vvel_max              =   2.9923052250625E-02
(PID.TID 0000.0001) %MON advcfl_wvel_max              =   5.9575478754383E-02
(PID.TID 0000.0001) %MON advcfl_W_hf_max              =   6.7414357537855E-02
(PID.TID 0000.0001) %MON pe_b_mean                    =   5.1078797834515E-04
(PID.TID 0000.0001) %MON ke_max                       =   1.6361125637828E-02
(PID.TID 0000.0001) %MON ke_mean                      =   2.5771614911072E-04
(PID.TID 0000.0001) %MON ke_vol                       =   1.3226782436723E+18
(PID.TID 0000.0001) %MON vort_r_min                   =  -3.6137160833262E-07
(PID.TID 0000.0001) %MON vort_r_max                   =   6.2932174162293E-07
(PID.TID 0000.0001) %MON vort_a_mean                  =  -2.5274807390804E-05
(PID.TID 0000.0001) %MON vort_a_sd                    =   7.3604651007550E-05
(PID.TID 0000.0001) %MON vort_p_mean                  =  -3.1845655791097E-05
(PID.TID 0000.0001) %MON vort_p_sd                    =   1.3162380672044E-04
(PID.TID 0000.0001) %MON surfExpan_theta_mean         =   9.4750553688192E-07
(PID.TID 0000.0001) %MON surfExpan_salt_mean          =  -2.5870794188504E-07
(PID.TID 0000.0001) // =======================================================
(PID.TID 0000.0001) // End MONITOR dynamic field statistics
(PID.TID 0000.0001) // =======================================================
 EXTERNAL_FIELDS_LOAD,        65 : iP,iLd,i0,i1=    2    3    2    3 ; Wght=  0.3333333333  0.6666666667
 EXTERNAL_FIELDS_LOAD: (fu0,1),fu,fv= -1.4435E-02 -2.7199E-02 -2.2944E-02 -6.2639E-03
 EXTERNAL_FIELDS_LOAD: SST,SSS,Q,E-P= -2.9989E-01  3.4526E+01  2.2376E+02  8.8463E-06
DEBUG_STATS_RL:          Uvel (THERMODYNAMICS)  min= -1.48023535831560E-01
DEBUG_STATS_RL:          Uvel (THERMODYNAMICS)  max=  1.73332943097609E-01
DEBUG_STATS_RL:          Uvel (THERMODYNAMICS) mean=  6.34672365124548E-03
DEBUG_STATS_RL:          Uvel (THERMODYNAMICS) S.D.=  2.69501811599504E-02
DEBUG_STATS_RL:          Vvel (THERMODYNAMICS)  min= -1.28024895421289E-01
DEBUG_STATS_RL:          Vvel (THERMODYNAMICS)  max=  1.54017099268774E-01
DEBUG_STATS_RL:          Vvel (THERMODYNAMICS) mean=  3.58338332168846E-04
DEBUG_STATS_RL:          Vvel (THERMODYNAMICS) S.D.=  1.61386164513693E-02
DEBUG_STATS_RL:          Wvel (THERMODYNAMICS)  min= -1.30109746190521E-04
DEBUG_STATS_RL:          Wvel (THERMODYNAMICS)  max=  1.48249165881857E-04
DEBUG_STATS_RL:          Wvel (THERMODYNAMICS) mean= -1.84252122863331E-07
DEBUG_STATS_RL:          Wvel (THERMODYNAMICS) S.D.=  1.40763989365570E-05
DEBUG_STATS_RL:         Theta (THERMODYNAMICS)  min= -1.95692832052103E+00
DEBUG_STATS_RL:         Theta (THERMODYNAMICS)  max=  3.07538090650694E+01
DEBUG_STATS_RL:         Theta (THERMODYNAMICS) mean=  3.25035568279035E+00
DEBUG_STATS_RL:         Theta (THERMODYNAMICS) S.D.=  5.88021272260689E+00
DEBUG_STATS_RL:          Salt (THERMODYNAMICS)  min=  3.00000000000000E-02
DEBUG_STATS_RL:          Salt (THERMODYNAMICS)  max=  3.74970317198189E+01
DEBUG_STATS_RL:          Salt (THERMODYNAMICS) mean=  1.88747483695126E+01
DEBUG_STATS_RL:          Salt (THERMODYNAMICS) S.D.=  1.73002866235815E+01
DEBUG_STATS_RL:         GtNm1 (THERMODYNAMICS)  min= -2.55860547154653E-06
DEBUG_STATS_RL:         GtNm1 (THERMODYNAMICS)  max=  1.96404042010767E-06
DEBUG_STATS_RL:         GtNm1 (THERMODYNAMICS) mean=  3.75702279035197E-09
DEBUG_STATS_RL:         GtNm1 (THERMODYNAMICS) S.D.=  1.75914306860488E-07
DEBUG_STATS_RL:         GsNm1 (THERMODYNAMICS)  min= -3.76374936501496E-07
DEBUG_STATS_RL:         GsNm1 (THERMODYNAMICS)  max=  2.58254322187972E-07
DEBUG_STATS_RL:         GsNm1 (THERMODYNAMICS) mean= -2.08835503689417E-10
DEBUG_STATS_RL:         GsNm1 (THERMODYNAMICS) S.D.=  1.70697154855392E-08
DEBUG_STATS_RL:                EtaN (DYNAMICS)  min= -2.11458512993295E+00
DEBUG_STATS_RL:                EtaN (DYNAMICS)  max=  9.14325739971283E-01
DEBUG_STATS_RL:                EtaN (DYNAMICS) mean= -1.67306943027099E-01
DEBUG_STATS_RL:                EtaN (DYNAMICS) S.D.=  7.47222324416095E-01
DEBUG_STATS_RL:                Uvel (DYNAMICS)  min= -1.48023535831560E-01
DEBUG_STATS_RL:                Uvel (DYNAMICS)  max=  1.73332943097609E-01
DEBUG_STATS_RL:                Uvel (DYNAMICS) mean=  6.34672365124548E-03
DEBUG_STATS_RL:                Uvel (DYNAMICS) S.D.=  2.69501811599504E-02
DEBUG_STATS_RL:                Vvel (DYNAMICS)  min= -1.28024895421289E-01
DEBUG_STATS_RL:                Vvel (DYNAMICS)  max=  1.54017099268774E-01
DEBUG_STATS_RL:                Vvel (DYNAMICS) mean=  3.58338332168846E-04
DEBUG_STATS_RL:                Vvel (DYNAMICS) S.D.=  1.61386164513693E-02
DEBUG_STATS_RL:                Wvel (DYNAMICS)  min= -1.30109746190521E-04
DEBUG_STATS_RL:                Wvel (DYNAMICS)  max=  1.48249165881857E-04
DEBUG_STATS_RL:                Wvel (DYNAMICS) mean= -1.84252122863331E-07
DEBUG_STATS_RL:                Wvel (DYNAMICS) S.D.=  1.40763989365570E-05
DEBUG_STATS_RL:               Theta (DYNAMICS)  min= -1.95692832052103E+00
DEBUG_STATS_RL:               Theta (DYNAMICS)  max=  3.07538090650694E+01
DEBUG_STATS_RL:               Theta (DYNAMICS) mean=  3.25035568279035E+00
DEBUG_STATS_RL:               Theta (DYNAMICS) S.D.=  5.88021272260689E+00
DEBUG_STATS_RL:                Salt (DYNAMICS)  min=  3.00000000000000E-02
DEBUG_STATS_RL:                Salt (DYNAMICS)  max=  3.74970317198189E+01
DEBUG_STATS_RL:                Salt (DYNAMICS) mean=  1.88747483695126E+01
DEBUG_STATS_RL:                Salt (DYNAMICS) S.D.=  1.73002866235815E+01
DEBUG_STATS_RL:                  Gu (DYNAMICS)  min= -1.46870443826675E-01
DEBUG_STATS_RL:                  Gu (DYNAMICS)  max=  1.74422754199333E-01
DEBUG_STATS_RL:                  Gu (DYNAMICS) mean=  6.21443969389626E-03
DEBUG_STATS_RL:                  Gu (DYNAMICS) S.D.=  2.74678977022665E-02
DEBUG_STATS_RL:                  Gv (DYNAMICS)  min= -1.18391883198728E-01
DEBUG_STATS_RL:                  Gv (DYNAMICS)  max=  1.55097329144592E-01
DEBUG_STATS_RL:                  Gv (DYNAMICS) mean=  3.25900606738400E-03
DEBUG_STATS_RL:                  Gv (DYNAMICS) S.D.=  1.69858336853406E-02
DEBUG_STATS_RL:               GuNm1 (DYNAMICS)  min= -1.04032368082007E-05
DEBUG_STATS_RL:               GuNm1 (DYNAMICS)  max=  9.47739676119665E-06
DEBUG_STATS_RL:               GuNm1 (DYNAMICS) mean=  9.76794746155444E-09
DEBUG_STATS_RL:               GuNm1 (DYNAMICS) S.D.=  1.21432062346389E-06
DEBUG_STATS_RL:               GvNm1 (DYNAMICS)  min= -1.04027438121965E-05
DEBUG_STATS_RL:               GvNm1 (DYNAMICS)  max=  1.56528173100888E-05
DEBUG_STATS_RL:               GvNm1 (DYNAMICS) mean=  7.46005679704607E-07
DEBUG_STATS_RL:               GvNm1 (DYNAMICS) S.D.=  2.66273869908753E-06
DEBUG_STATS_RL:               GtNm1 (DYNAMICS)  min= -2.55860547154653E-06
DEBUG_STATS_RL:               GtNm1 (DYNAMICS)  max=  1.96404042010767E-06
DEBUG_STATS_RL:               GtNm1 (DYNAMICS) mean=  3.75702279035197E-09
DEBUG_STATS_RL:               GtNm1 (DYNAMICS) S.D.=  1.75914306860488E-07
DEBUG_STATS_RL:               GsNm1 (DYNAMICS)  min= -3.76374936501496E-07
DEBUG_STATS_RL:               GsNm1 (DYNAMICS)  max=  2.58254322187972E-07
DEBUG_STATS_RL:               GsNm1 (DYNAMICS) mean= -2.08835503689417E-10
DEBUG_STATS_RL:               GsNm1 (DYNAMICS) S.D.=  1.70697154855392E-08
DEBUG_STATS_RL:    cg2d_b (SOLVE_FOR_PRESSURE)  min= -1.89341202774234E+04
DEBUG_STATS_RL:    cg2d_b (SOLVE_FOR_PRESSURE)  max=  2.63816579513076E+04
DEBUG_STATS_RL:    cg2d_b (SOLVE_FOR_PRESSURE) mean=  4.61799996732657E+00
DEBUG_STATS_RL:    cg2d_b (SOLVE_FOR_PRESSURE) S.D.=  4.05720507316333E+03
 cg2d: Sum(rhs),rhsMax =   4.05231162654607E-01  1.73281792917120E+00
(PID.TID 0000.0001)  cg2d: iter=     1 ; resid.=  2.71169498933982E-01
(PID.TID 0000.0001)  cg2d: iter=     2 ; resid.=  2.80751900769900E-01
(PID.TID 0000.0001)  cg2d: iter=     3 ; resid.=  2.75246112796684E-01
(PID.TID 0000.0001)  cg2d: iter=     4 ; resid.=  2.41100630935339E-01
(PID.TID 0000.0001)  cg2d: iter=     5 ; resid.=  2.20791058145704E-01
(PID.TID 0000.0001)  cg2d: iter=     6 ; resid.=  1.88226339790878E-01
(PID.TID 0000.0001)  cg2d: iter=     7 ; resid.=  1.52061903056951E-01
(PID.TID 0000.0001)  cg2d: iter=     8 ; resid.=  1.16946890287959E-01
(PID.TID 0000.0001)  cg2d: iter=     9 ; resid.=  8.87601408324037E-02
(PID.TID 0000.0001)  cg2d: iter=    10 ; resid.=  7.37955843114543E-02
(PID.TID 0000.0001)  cg2d: iter=    11 ; resid.=  6.22597594312479E-02
(PID.TID 0000.0001)  cg2d: iter=    12 ; resid.=  5.31667047068958E-02
(PID.TID 0000.0001)  cg2d: iter=    13 ; resid.=  4.20123327143510E-02
(PID.TID 0000.0001)  cg2d: iter=    14 ; resid.=  3.44735644166343E-02
(PID.TID 0000.0001)  cg2d: iter=    15 ; resid.=  2.86855714245054E-02
(PID.TID 0000.0001)  cg2d: iter=    16 ; resid.=  2.52652202418329E-02
(PID.TID 0000.0001)  cg2d: iter=    17 ; resid.=  2.28812967271291E-02
(PID.TID 0000.0001)  cg2d: iter=    18 ; resid.=  1.78638208084906E-02
(PID.TID 0000.0001)  cg2d: iter=    19 ; resid.=  1.46744578948069E-02
(PID.TID 0000.0001)  cg2d: iter=    20 ; resid.=  1.28119723022633E-02
(PID.TID 0000.0001)  cg2d: iter=    21 ; resid.=  1.13223126016306E-02
(PID.TID 0000.0001)  cg2d: iter=    22 ; resid.=  9.86220656262895E-03
(PID.TID 0000.0001)  cg2d: iter=    23 ; resid.=  7.68739747067791E-03
(PID.TID 0000.0001)  cg2d: iter=    24 ; resid.=  6.20574945387692E-03
(PID.TID 0000.0001)  cg2d: iter=    25 ; resid.=  4.75899102377137E-03
(PID.TID 0000.0001)  cg2d: iter=    26 ; resid.=  3.82463961443035E-03
(PID.TID 0000.0001)  cg2d: iter=    27 ; resid.=  3.15527871039008E-03
(PID.TID 0000.0001)  cg2d: iter=    28 ; resid.=  2.61211976330745E-03
(PID.TID 0000.0001)  cg2d: iter=    29 ; resid.=  2.11864758986064E-03
(PID.TID 0000.0001)  cg2d: iter=    30 ; resid.=  1.70669645938432E-03
(PID.TID 0000.0001)  cg2d: iter=    31 ; resid.=  1.31906975975217E-03
(PID.TID 0000.0001)  cg2d: iter=    32 ; resid.=  9.70392794564805E-04
(PID.TID 0000.0001)  cg2d: iter=    33 ; resid.=  7.89844374441541E-04
(PID.TID 0000.0001)  cg2d: iter=    34 ; resid.=  7.14584632872391E-04
(PID.TID 0000.0001)  cg2d: iter=    35 ; resid.=  6.24103527153711E-04
(PID.TID 0000.0001)  cg2d: iter=    36 ; resid.=  5.19621940164595E-04
(PID.TID 0000.0001)  cg2d: iter=    37 ; resid.=  4.28873948598597E-04
(PID.TID 0000.0001)  cg2d: iter=    38 ; resid.=  3.59261290150584E-04
(PID.TID 0000.0001)  cg2d: iter=    39 ; resid.=  3.03120274213097E-04
(PID.TID 0000.0001)  cg2d: iter=    40 ; resid.=  2.46221494704178E-04
(PID.TID 0000.0001)  cg2d: iter=    41 ; resid.=  2.01628358706001E-04
(PID.TID 0000.0001)  cg2d: iter=    42 ; resid.=  1.76585271865926E-04
(PID.TID 0000.0001)  cg2d: iter=    43 ; resid.=  1.46662688916984E-04
(PID.TID 0000.0001)  cg2d: iter=    44 ; resid.=  1.16395720016992E-04
(PID.TID 0000.0001)  cg2d: iter=    45 ; resid.=  9.84330354266089E-05
(PID.TID 0000.0001)  cg2d: iter=    46 ; resid.=  7.67347312109828E-05
(PID.TID 0000.0001)  cg2d: iter=    47 ; resid.=  6.12424509386021E-05
(PID.TID 0000.0001)  cg2d: iter=    48 ; resid.=  5.21890926587415E-05
(PID.TID 0000.0001)  cg2d: iter=    49 ; resid.=  4.63872022715324E-05
(PID.TID 0000.0001)  cg2d: iter=    50 ; resid.=  4.00809616260786E-05
(PID.TID 0000.0001)  cg2d: iter=    51 ; resid.=  3.55695713017360E-05
(PID.TID 0000.0001)  cg2d: iter=    52 ; resid.=  3.12227570985681E-05
(PID.TID 0000.0001)  cg2d: iter=    53 ; resid.=  2.85600417566770E-05
(PID.TID 0000.0001)  cg2d: iter=    54 ; resid.=  2.38368214424534E-05
(PID.TID 0000.0001)  cg2d: iter=    55 ; resid.=  2.11726497079929E-05
(PID.TID 0000.0001)  cg2d: iter=    56 ; resid.=  1.72709995428307E-05
(PID.TID 0000.0001)  cg2d: iter=    57 ; resid.=  1.33764266606864E-05
(PID.TID 0000.0001)  cg2d: iter=    58 ; resid.=  1.06945526223568E-05
(PID.TID 0000.0001)  cg2d: iter=    59 ; resid.=  7.88482461136530E-06
(PID.TID 0000.0001)  cg2d: iter=    60 ; resid.=  6.65028791945842E-06
(PID.TID 0000.0001)  cg2d: iter=    61 ; resid.=  5.56749833855055E-06
(PID.TID 0000.0001)  cg2d: iter=    62 ; resid.=  4.55856935352222E-06
(PID.TID 0000.0001)  cg2d: iter=    63 ; resid.=  3.73608601436082E-06
(PID.TID 0000.0001)  cg2d: iter=    64 ; resid.=  2.94969908116796E-06
(PID.TID 0000.0001)  cg2d: iter=    65 ; resid.=  2.47309010848057E-06
(PID.TID 0000.0001)  cg2d: iter=    66 ; resid.=  2.01236344071386E-06
(PID.TID 0000.0001)  cg2d: iter=    67 ; resid.=  1.83890318708067E-06
(PID.TID 0000.0001)  cg2d: iter=    68 ; resid.=  1.74773026370520E-06
(PID.TID 0000.0001)  cg2d: iter=    69 ; resid.=  1.39863164999546E-06
(PID.TID 0000.0001)  cg2d: iter=    70 ; resid.=  1.16834201497935E-06
(PID.TID 0000.0001)  cg2d: iter=    71 ; resid.=  9.71101562444044E-07
(PID.TID 0000.0001)  cg2d: iter=    72 ; resid.=  8.35674053963413E-07
(PID.TID 0000.0001)  cg2d: iter=    73 ; resid.=  7.11213233451341E-07
(PID.TID 0000.0001)  cg2d: iter=    74 ; resid.=  6.11336499750178E-07
(PID.TID 0000.0001)  cg2d: iter=    75 ; resid.=  5.03204455317103E-07
(PID.TID 0000.0001)  cg2d: iter=    76 ; resid.=  3.96176053710322E-07
(PID.TID 0000.0001)  cg2d: iter=    77 ; resid.=  3.23519168649693E-07
(PID.TID 0000.0001)  cg2d: iter=    78 ; resid.=  2.61080475618460E-07
(PID.TID 0000.0001)  cg2d: iter=    79 ; resid.=  1.97571929431644E-07
(PID.TID 0000.0001)  cg2d: iter=    80 ; resid.=  1.42036624462511E-07
(PID.TID 0000.0001)  cg2d: iter=    81 ; resid.=  1.06394409172470E-07
(PID.TID 0000.0001)  cg2d: iter=    82 ; resid.=  7.88424092359667E-08
(PID.TID 0000.0001)  cg2d: iter=    83 ; resid.=  5.87722915355116E-08
(PID.TID 0000.0001)  cg2d: iter=    84 ; resid.=  4.49887126874181E-08
(PID.TID 0000.0001)  cg2d: iter=    85 ; resid.=  3.21331413824002E-08
(PID.TID 0000.0001)  cg2d: iter=    86 ; resid.=  2.41694872463143E-08
(PID.TID 0000.0001)  cg2d: iter=    87 ; resid.=  1.79962606177470E-08
(PID.TID 0000.0001)  cg2d: iter=    88 ; resid.=  1.41140925818443E-08
(PID.TID 0000.0001)  cg2d: iter=    89 ; resid.=  1.25171889307887E-08
(PID.TID 0000.0001)  cg2d: iter=    90 ; resid.=  1.05043235840879E-08
(PID.TID 0000.0001)  cg2d: iter=    91 ; resid.=  8.70549348303921E-09
(PID.TID 0000.0001)  cg2d: iter=    92 ; resid.=  7.35954242790810E-09
(PID.TID 0000.0001)  cg2d: iter=    93 ; resid.=  5.99514328972445E-09
(PID.TID 0000.0001)  cg2d: iter=    94 ; resid.=  4.84591894641755E-09
(PID.TID 0000.0001)  cg2d: iter=    95 ; resid.=  4.06877717634273E-09
(PID.TID 0000.0001)  cg2d: iter=    96 ; resid.=  3.19168869142976E-09
(PID.TID 0000.0001)  cg2d: iter=    97 ; resid.=  2.49784720536556E-09
(PID.TID 0000.0001)  cg2d: iter=    98 ; resid.=  2.07805761634898E-09
(PID.TID 0000.0001)  cg2d: iter=    99 ; resid.=  1.79267159124676E-09
(PID.TID 0000.0001)  cg2d: iter=   100 ; resid.=  1.51789526206102E-09
(PID.TID 0000.0001)  cg2d: iter=   101 ; resid.=  1.14940038995252E-09
(PID.TID 0000.0001)  cg2d: iter=   102 ; resid.=  8.70163559650424E-10
(PID.TID 0000.0001)  cg2d: iter=   103 ; resid.=  6.72498799709389E-10
(PID.TID 0000.0001)  cg2d: iter=   104 ; resid.=  5.61664100755222E-10
(PID.TID 0000.0001)  cg2d: iter=   105 ; resid.=  4.33022759164269E-10
(PID.TID 0000.0001)  cg2d: iter=   106 ; resid.=  3.53473105399943E-10
(PID.TID 0000.0001)  cg2d: iter=   107 ; resid.=  2.74193483418863E-10
(PID.TID 0000.0001)  cg2d: iter=   108 ; resid.=  2.08280790189155E-10
(PID.TID 0000.0001)  cg2d: iter=   109 ; resid.=  1.55310348777827E-10
(PID.TID 0000.0001)  cg2d: iter=   110 ; resid.=  1.12967364961457E-10
(PID.TID 0000.0001)  cg2d: iter=   111 ; resid.=  8.78279181210014E-11
(PID.TID 0000.0001)  cg2d: iter=   112 ; resid.=  6.05103550903154E-11
(PID.TID 0000.0001)  cg2d: iter=   113 ; resid.=  4.18810488065739E-11
(PID.TID 0000.0001)  cg2d: iter=   114 ; resid.=  3.20033963703165E-11
(PID.TID 0000.0001)  cg2d: iter=   115 ; resid.=  2.21258200380928E-11
(PID.TID 0000.0001)  cg2d: iter=   116 ; resid.=  1.59896025452440E-11
(PID.TID 0000.0001)  cg2d: iter=   117 ; resid.=  1.26905511969353E-11
(PID.TID 0000.0001)  cg2d: iter=   118 ; resid.=  9.18659799084394E-12
(PID.TID 0000.0001)  cg2d: iter=   119 ; resid.=  7.13376389864574E-12
(PID.TID 0000.0001)  cg2d: iter=   120 ; resid.=  5.77024012504284E-12
(PID.TID 0000.0001)  cg2d: iter=   121 ; resid.=  4.42812759475641E-12
(PID.TID 0000.0001)  cg2d: iter=   122 ; resid.=  3.52918277146613E-12
(PID.TID 0000.0001)  cg2d: iter=   123 ; resid.=  3.05133413671759E-12
(PID.TID 0000.0001)  cg2d: iter=   124 ; resid.=  2.66515115360594E-12
(PID.TID 0000.0001)  cg2d: iter=   125 ; resid.=  2.14160027903353E-12
(PID.TID 0000.0001)  cg2d: iter=   126 ; resid.=  1.57598392712850E-12
(PID.TID 0000.0001)  cg2d: iter=   127 ; resid.=  1.03923442934448E-12
(PID.TID 0000.0001)  cg2d: iter=   128 ; resid.=  7.21116942000634E-13
(PID.TID 0000.0001)  cg2d: iter=   129 ; resid.=  4.58128597657213E-13
(PID.TID 0000.0001)  cg2d: iter=   130 ; resid.=  2.95966984219447E-13
(PID.TID 0000.0001)  cg2d: iter=   131 ; resid.=  1.98043395430763E-13
(PID.TID 0000.0001)  cg2d: iter=   132 ; resid.=  1.35161571405995E-13
(PID.TID 0000.0001)  cg2d: iter=   133 ; resid.=  9.73108090119073E-14
DEBUG_STATS_RL:    cg2d_x (SOLVE_FOR_PRESSURE)  min= -2.04109465279058E+01
DEBUG_STATS_RL:    cg2d_x (SOLVE_FOR_PRESSURE)  max=  8.69073533158213E+00
DEBUG_STATS_RL:    cg2d_x (SOLVE_FOR_PRESSURE) mean= -1.68529483822614E+00
DEBUG_STATS_RL:    cg2d_x (SOLVE_FOR_PRESSURE) S.D.=  7.36763886767299E+00
(PID.TID 0000.0001)      cg2d_init_res =   3.89409719736293E-01
(PID.TID 0000.0001)      cg2d_iters(min,last) =      -1     133
(PID.TID 0000.0001)      cg2d_last_res =   9.73108090119073E-14
(PID.TID 0000.0001) // =======================================================
(PID.TID 0000.0001) // Begin MONITOR dynamic field statistics
(PID.TID 0000.0001) // =======================================================
(PID.TID 0000.0001) %MON time_tsnumber                =                    66
(PID.TID 0000.0001) %MON time_secondsf                =   5.7024000000000E+06
(PID.TID 0000.0001) %MON dynstat_eta_max              =   8.8590574226119E-01
(PID.TID 0000.0001) %MON dynstat_eta_min              =  -2.0806265573808E+00
(PID.TID 0000.0001) %MON dynstat_eta_mean             =  -4.8183103528136E-03
(PID.TID 0000.0001) %MON dynstat_eta_sd               =   6.3540159913897E-01
(PID.TID 0000.0001) %MON dynstat_eta_del2             =   2.4374815449155E-03
(PID.TID 0000.0001) %MON dynstat_uvel_max             =   1.7722454849732E-01
(PID.TID 0000.0001) %MON dynstat_uvel_min             =  -1.4801626435118E-01
(PID.TID 0000.0001) %MON dynstat_uvel_mean            =   2.5364298950014E-03
(PID.TID 0000.0001) %MON dynstat_uvel_sd              =   2.0875015066174E-02
(PID.TID 0000.0001) %MON dynstat_uvel_del2            =   1.3635007553779E-04
(PID.TID 0000.0001) %MON dynstat_vvel_max             =   1.5676953194244E-01
(PID.TID 0000.0001) %MON dynstat_vvel_min             =  -1.3299109917573E-01
(PID.TID 0000.0001) %MON dynstat_vvel_mean            =   2.5691713623164E-05
(PID.TID 0000.0001) %MON dynstat_vvel_sd              =   1.1282807404145E-02
(PID.TID 0000.0001) %MON dynstat_vvel_del2            =   9.3944212606676E-05
(PID.TID 0000.0001) %MON dynstat_wvel_max             =   1.4345037234671E-04
(PID.TID 0000.0001) %MON dynstat_wvel_min             =  -1.2736094317884E-04
(PID.TID 0000.0001) %MON dynstat_wvel_mean            =   1.4517925338968E-22
(PID.TID 0000.0001) %MON dynstat_wvel_sd              =   1.6314993242178E-05
(PID.TID 0000.0001) %MON dynstat_wvel_del2            =   1.5888417892923E-07
(PID.TID 0000.0001) %MON dynstat_theta_max            =   3.0753809065069E+01
(PID.TID 0000.0001) %MON dynstat_theta_min            =  -1.9569283205210E+00
(PID.TID 0000.0001) %MON dynstat_theta_mean           =   3.6534073942679E+00
(PID.TID 0000.0001) %MON dynstat_theta_sd             =   4.4249532035312E+00
(PID.TID 0000.0001) %MON dynstat_theta_del2           =   4.9341232575183E-03
(PID.TID 0000.0001) %MON dynstat_salt_max             =   3.7497031719819E+01
(PID.TID 0000.0001) %MON dynstat_salt_min             =   2.9926184673296E+01
(PID.TID 0000.0001) %MON dynstat_salt_mean            =   3.4747965955956E+01
(PID.TID 0000.0001) %MON dynstat_salt_sd              =   2.9641267700382E-01
(PID.TID 0000.0001) %MON dynstat_salt_del2            =   9.9243706847092E-04
(PID.TID 0000.0001) %MON dynstat_sst_max              =   3.0753809065069E+01
(PID.TID 0000.0001) %MON dynstat_sst_min              =  -1.9569283205210E+00
(PID.TID 0000.0001) %MON dynstat_sst_mean             =   1.9052415098574E+01
(PID.TID 0000.0001) %MON dynstat_sst_sd               =   9.0896120059213E+00
(PID.TID 0000.0001) %MON dynstat_sst_del2             =   2.8212733420988E-02
(PID.TID 0000.0001) %MON dynstat_sss_max              =   3.7476743998659E+01
(PID.TID 0000.0001) %MON dynstat_sss_min              =   2.9926184673296E+01
(PID.TID 0000.0001) %MON dynstat_sss_mean             =   3.4869401498737E+01
(PID.TID 0000.0001) %MON dynstat_sss_sd               =   9.8273364231435E-01
(PID.TID 0000.0001) %MON dynstat_sss_del2             =   8.0606466139454E-03
(PID.TID 0000.0001) %MON forcing_qnet_max             =   3.0248920694987E+02
(PID.TID 0000.0001) %MON forcing_qnet_min             =  -1.6684838358561E+02
(PID.TID 0000.0001) %MON forcing_qnet_mean            =  -9.4984609864109E+00
(PID.TID 0000.0001) %MON forcing_qnet_sd              =   5.4405557382944E+01
(PID.TID 0000.0001) %MON forcing_qnet_del2            =   8.6680590177986E-01
(PID.TID 0000.0001) %MON forcing_qsw_max              =   0.0000000000000E+00
(PID.TID 0000.0001) %MON forcing_qsw_min              =   0.0000000000000E+00
(PID.TID 0000.0001) %MON forcing_qsw_mean             =   0.0000000000000E+00
(PID.TID 0000.0001) %MON forcing_qsw_sd               =   0.0000000000000E+00
(PID.TID 0000.0001) %MON forcing_qsw_del2             =   0.0000000000000E+00
(PID.TID 0000.0001) %MON forcing_empmr_max            =   6.9166385211853E-05
(PID.TID 0000.0001) %MON forcing_empmr_min            =  -7.9272621652156E-05
(PID.TID 0000.0001) %MON forcing_empmr_mean           =   6.8161036242225E-07
(PID.TID 0000.0001) %MON forcing_empmr_sd             =   2.6616217830995E-05
(PID.TID 0000.0001) %MON forcing_empmr_del2           =   3.5673956520536E-07
(PID.TID 0000.0001) %MON forcing_fu_max               =   3.3813723921776E-01
(PID.TID 0000.0001) %MON forcing_fu_min               =  -3.2483523090680E-01
(PID.TID 0000.0001) %MON forcing_fu_mean              =   1.9514733405804E-02
(PID.TID 0000.0001) %MON forcing_fu_sd                =   9.7132739592026E-02
(PID.TID 0000.0001) %MON forcing_fu_del2              =   7.4286337191137E-04
(PID.TID 0000.0001) %MON forcing_fv_max               =   1.4849948386351E-01
(PID.TID 0000.0001) %MON forcing_fv_min               =  -1.7835372189681E-01
(PID.TID 0000.0001) %MON forcing_fv_mean              =  -7.4252919403498E-03
(PID.TID 0000.0001) %MON forcing_fv_sd                =   4.1714625157981E-02
(PID.TID 0000.0001) %MON forcing_fv_del2              =   4.6870613924266E-04
(PID.TID 0000.0001) %MON trAdv_CFL_u_max              =   5.2400902270275E-02
(PID.TID 0000.0001) %MON trAdv_CFL_v_max              =   2.9801115229727E-02
(PID.TID 0000.0001) %MON trAdv_CFL_w_max              =   5.3369699717468E-02
(PID.TID 0000.0001) %MON advcfl_uvel_max              =   5.3566507683286E-02
(PID.TID 0000.0001) %MON advcfl_vvel_max              =   3.0457805775405E-02
(PID.TID 0000.0001) %MON advcfl_wvel_max              =   5.9374593889992E-02
(PID.TID 0000.0001) %MON advcfl_W_hf_max              =   6.9977199941776E-02
(PID.TID 0000.0001) %MON pe_b_mean                    =   5.1665754956762E-04
(PID.TID 0000.0001) %MON ke_max                       =   1.6472840587453E-02
(PID.TID 0000.0001) %MON ke_mean                      =   2.5804965854350E-04
(PID.TID 0000.0001) %MON ke_vol                       =   1.3226782436723E+18
(PID.TID 0000.0001) %MON vort_r_min                   =  -3.4320149799742E-07
(PID.TID 0000.0001) %MON vort_r_max                   =   6.6264495957746E-07
(PID.TID 0000.0001) %MON vort_a_mean                  =  -2.5274807187551E-05
(PID.TID 0000.0001) %MON vort_a_sd                    =   7.3604673522846E-05
(PID.TID 0000.0001) %MON vort_p_mean                  =  -3.1845655535003E-05
(PID.TID 0000.0001) %MON vort_p_sd                    =   1.3162394253160E-04
(PID.TID 0000.0001) %MON surfExpan_theta_mean         =   1.0910487750705E-06
(PID.TID 0000.0001) %MON surfExpan_salt_mean          =  -2.9916373950047E-07
(PID.TID 0000.0001) // =======================================================
(PID.TID 0000.0001) // End MONITOR dynamic field statistics
(PID.TID 0000.0001) // =======================================================
 EXTERNAL_FIELDS_LOAD,        66 : iP,iLd,i0,i1=    2    3    2    3 ; Wght=  0.3000000000  0.7000000000
 EXTERNAL_FIELDS_LOAD: (fu0,1),fu,fv= -1.4435E-02 -2.7199E-02 -2.3370E-02 -5.6953E-03
 EXTERNAL_FIELDS_LOAD: SST,SSS,Q,E-P= -2.8829E-01  3.4532E+01  2.2292E+02  8.8697E-06
DEBUG_STATS_RL:          Uvel (THERMODYNAMICS)  min= -1.48016264351175E-01
DEBUG_STATS_RL:          Uvel (THERMODYNAMICS)  max=  1.77224548497324E-01
DEBUG_STATS_RL:          Uvel (THERMODYNAMICS) mean=  6.36223554390094E-03
DEBUG_STATS_RL:          Uvel (THERMODYNAMICS) S.D.=  2.71373884194156E-02
DEBUG_STATS_RL:          Vvel (THERMODYNAMICS)  min= -1.32991099175732E-01
DEBUG_STATS_RL:          Vvel (THERMODYNAMICS)  max=  1.56769531942437E-01
DEBUG_STATS_RL:          Vvel (THERMODYNAMICS) mean=  2.95237577786461E-04
DEBUG_STATS_RL:          Vvel (THERMODYNAMICS) S.D.=  1.59756833421486E-02
DEBUG_STATS_RL:          Wvel (THERMODYNAMICS)  min= -1.27360943178838E-04
DEBUG_STATS_RL:          Wvel (THERMODYNAMICS)  max=  1.43450372346709E-04
DEBUG_STATS_RL:          Wvel (THERMODYNAMICS) mean= -1.83377613429712E-07
DEBUG_STATS_RL:          Wvel (THERMODYNAMICS) S.D.=  1.39852905566741E-05
DEBUG_STATS_RL:         Theta (THERMODYNAMICS)  min= -1.95537062200696E+00
DEBUG_STATS_RL:         Theta (THERMODYNAMICS)  max=  3.07701383857425E+01
DEBUG_STATS_RL:         Theta (THERMODYNAMICS) mean=  3.25050559786192E+00
DEBUG_STATS_RL:         Theta (THERMODYNAMICS) S.D.=  5.88063189010446E+00
DEBUG_STATS_RL:          Salt (THERMODYNAMICS)  min=  3.00000000000000E-02
DEBUG_STATS_RL:          Salt (THERMODYNAMICS)  max=  3.74971708374902E+01
DEBUG_STATS_RL:          Salt (THERMODYNAMICS) mean=  1.88747481493332E+01
DEBUG_STATS_RL:          Salt (THERMODYNAMICS) S.D.=  1.73002872970002E+01
DEBUG_STATS_RL:         GtNm1 (THERMODYNAMICS)  min= -2.93226287412978E-06
DEBUG_STATS_RL:         GtNm1 (THERMODYNAMICS)  max=  2.25527346598709E-06
DEBUG_STATS_RL:         GtNm1 (THERMODYNAMICS) mean=  3.49195597007172E-09
DEBUG_STATS_RL:         GtNm1 (THERMODYNAMICS) S.D.=  1.73659140116049E-07
DEBUG_STATS_RL:         GsNm1 (THERMODYNAMICS)  min= -3.95471661939840E-07
DEBUG_STATS_RL:         GsNm1 (THERMODYNAMICS)  max=  2.93849423030715E-07
DEBUG_STATS_RL:         GsNm1 (THERMODYNAMICS) mean= -1.58647068924685E-10
DEBUG_STATS_RL:         GsNm1 (THERMODYNAMICS) S.D.=  1.67551806411465E-08
DEBUG_STATS_RL:                EtaN (DYNAMICS)  min= -2.08062655738076E+00
DEBUG_STATS_RL:                EtaN (DYNAMICS)  max=  8.85905742261187E-01
DEBUG_STATS_RL:                EtaN (DYNAMICS) mean= -1.71793561490942E-01
DEBUG_STATS_RL:                EtaN (DYNAMICS) S.D.=  7.51033523717938E-01
DEBUG_STATS_RL:                Uvel (DYNAMICS)  min= -1.48016264351175E-01
DEBUG_STATS_RL:                Uvel (DYNAMICS)  max=  1.77224548497324E-01
DEBUG_STATS_RL:                Uvel (DYNAMICS) mean=  6.36223554390094E-03
DEBUG_STATS_RL:                Uvel (DYNAMICS) S.D.=  2.71373884194156E-02
DEBUG_STATS_RL:                Vvel (DYNAMICS)  min= -1.32991099175732E-01
DEBUG_STATS_RL:                Vvel (DYNAMICS)  max=  1.56769531942437E-01
DEBUG_STATS_RL:                Vvel (DYNAMICS) mean=  2.95237577786461E-04
DEBUG_STATS_RL:                Vvel (DYNAMICS) S.D.=  1.59756833421486E-02
DEBUG_STATS_RL:                Wvel (DYNAMICS)  min= -1.27360943178838E-04
DEBUG_STATS_RL:                Wvel (DYNAMICS)  max=  1.43450372346709E-04
DEBUG_STATS_RL:                Wvel (DYNAMICS) mean= -1.83377613429712E-07
DEBUG_STATS_RL:                Wvel (DYNAMICS) S.D.=  1.39852905566741E-05
DEBUG_STATS_RL:               Theta (DYNAMICS)  min= -1.95537062200696E+00
DEBUG_STATS_RL:               Theta (DYNAMICS)  max=  3.07701383857425E+01
DEBUG_STATS_RL:               Theta (DYNAMICS) mean=  3.25050559786192E+00
DEBUG_STATS_RL:               Theta (DYNAMICS) S.D.=  5.88063189010446E+00
DEBUG_STATS_RL:                Salt (DYNAMICS)  min=  3.00000000000000E-02
DEBUG_STATS_RL:                Salt (DYNAMICS)  max=  3.74971708374902E+01
DEBUG_STATS_RL:                Salt (DYNAMICS) mean=  1.88747481493332E+01
DEBUG_STATS_RL:                Salt (DYNAMICS) S.D.=  1.73002872970002E+01
DEBUG_STATS_RL:                  Gu (DYNAMICS)  min= -1.46690921761997E-01
DEBUG_STATS_RL:                  Gu (DYNAMICS)  max=  1.72019469287094E-01
DEBUG_STATS_RL:                  Gu (DYNAMICS) mean=  6.21918895275489E-03
DEBUG_STATS_RL:                  Gu (DYNAMICS) S.D.=  2.76281276879865E-02
DEBUG_STATS_RL:                  Gv (DYNAMICS)  min= -1.17933412447474E-01
DEBUG_STATS_RL:                  Gv (DYNAMICS)  max=  1.57781987183569E-01
DEBUG_STATS_RL:                  Gv (DYNAMICS) mean=  3.25141344904412E-03
DEBUG_STATS_RL:                  Gv (DYNAMICS) S.D.=  1.68229553866682E-02
DEBUG_STATS_RL:               GuNm1 (DYNAMICS)  min= -1.05102392959579E-05
DEBUG_STATS_RL:               GuNm1 (DYNAMICS)  max=  9.47192344542433E-06
DEBUG_STATS_RL:               GuNm1 (DYNAMICS) mean=  9.37180974976894E-09
DEBUG_STATS_RL:               GuNm1 (DYNAMICS) S.D.=  1.21513490326760E-06
DEBUG_STATS_RL:               GvNm1 (DYNAMICS)  min= -1.04468076903629E-05
DEBUG_STATS_RL:               GvNm1 (DYNAMICS)  max=  1.56210650470284E-05
DEBUG_STATS_RL:               GvNm1 (DYNAMICS) mean=  7.45755085375182E-07
DEBUG_STATS_RL:               GvNm1 (DYNAMICS) S.D.=  2.66136872067844E-06
DEBUG_STATS_RL:               GtNm1 (DYNAMICS)  min= -2.93226287412978E-06
DEBUG_STATS_RL:               GtNm1 (DYNAMICS)  max=  2.25527346598709E-06
DEBUG_STATS_RL:               GtNm1 (DYNAMICS) mean=  3.49195597007172E-09
DEBUG_STATS_RL:               GtNm1 (DYNAMICS) S.D.=  1.73659140116049E-07
DEBUG_STATS_RL:               GsNm1 (DYNAMICS)  min= -3.95471661939840E-07
DEBUG_STATS_RL:               GsNm1 (DYNAMICS)  max=  2.93849423030715E-07
DEBUG_STATS_RL:               GsNm1 (DYNAMICS) mean= -1.58647068924685E-10
DEBUG_STATS_RL:               GsNm1 (DYNAMICS) S.D.=  1.67551806411465E-08
DEBUG_STATS_RL:    cg2d_b (SOLVE_FOR_PRESSURE)  min= -1.89129330072490E+04
DEBUG_STATS_RL:    cg2d_b (SOLVE_FOR_PRESSURE)  max=  2.63843688825284E+04
DEBUG_STATS_RL:    cg2d_b (SOLVE_FOR_PRESSURE) mean=  4.67148684335472E+00
DEBUG_STATS_RL:    cg2d_b (SOLVE_FOR_PRESSURE) S.D.=  4.06022874194555E+03
 cg2d: Sum(rhs),rhsMax =   4.09882536531976E-01  1.73299599039210E+00
(PID.TID 0000.0001)  cg2d: iter=     1 ; resid.=  2.81219176681562E-01
(PID.TID 0000.0001)  cg2d: iter=     2 ; resid.=  2.98670681811164E-01
(PID.TID 0000.0001)  cg2d: iter=     3 ; resid.=  2.89419982938193E-01
(PID.TID 0000.0001)  cg2d: iter=     4 ; resid.=  2.55045428312130E-01
(PID.TID 0000.0001)  cg2d: iter=     5 ; resid.=  2.43475782142540E-01
(PID.TID 0000.0001)  cg2d: iter=     6 ; resid.=  2.04285035010080E-01
(PID.TID 0000.0001)  cg2d: iter=     7 ; resid.=  1.57292365423771E-01
(PID.TID 0000.0001)  cg2d: iter=     8 ; resid.=  1.17106890318896E-01
(PID.TID 0000.0001)  cg2d: iter=     9 ; resid.=  8.86457124058840E-02
(PID.TID 0000.0001)  cg2d: iter=    10 ; resid.=  7.25292281121292E-02
(PID.TID 0000.0001)  cg2d: iter=    11 ; resid.=  6.23569629146029E-02
(PID.TID 0000.0001)  cg2d: iter=    12 ; resid.=  5.40709122478292E-02
(PID.TID 0000.0001)  cg2d: iter=    13 ; resid.=  4.35205032254227E-02
(PID.TID 0000.0001)  cg2d: iter=    14 ; resid.=  3.62159851164322E-02
(PID.TID 0000.0001)  cg2d: iter=    15 ; resid.=  2.99921470627635E-02
(PID.TID 0000.0001)  cg2d: iter=    16 ; resid.=  2.67154120261930E-02
(PID.TID 0000.0001)  cg2d: iter=    17 ; resid.=  2.38853928827323E-02
(PID.TID 0000.0001)  cg2d: iter=    18 ; resid.=  1.84613845516821E-02
(PID.TID 0000.0001)  cg2d: iter=    19 ; resid.=  1.50759082454395E-02
(PID.TID 0000.0001)  cg2d: iter=    20 ; resid.=  1.29489836850307E-02
(PID.TID 0000.0001)  cg2d: iter=    21 ; resid.=  1.14698528040560E-02
(PID.TID 0000.0001)  cg2d: iter=    22 ; resid.=  1.01155835726402E-02
(PID.TID 0000.0001)  cg2d: iter=    23 ; resid.=  7.96084171880800E-03
(PID.TID 0000.0001)  cg2d: iter=    24 ; resid.=  6.44027881054238E-03
(PID.TID 0000.0001)  cg2d: iter=    25 ; resid.=  4.85886179711576E-03
(PID.TID 0000.0001)  cg2d: iter=    26 ; resid.=  3.87003692199886E-03
(PID.TID 0000.0001)  cg2d: iter=    27 ; resid.=  3.11986943891361E-03
(PID.TID 0000.0001)  cg2d: iter=    28 ; resid.=  2.55157737685525E-03
(PID.TID 0000.0001)  cg2d: iter=    29 ; resid.=  2.07893705049980E-03
(PID.TID 0000.0001)  cg2d: iter=    30 ; resid.=  1.70500895596616E-03
(PID.TID 0000.0001)  cg2d: iter=    31 ; resid.=  1.32952920529182E-03
(PID.TID 0000.0001)  cg2d: iter=    32 ; resid.=  9.75595562832962E-04
(PID.TID 0000.0001)  cg2d: iter=    33 ; resid.=  7.92015151049325E-04
(PID.TID 0000.0001)  cg2d: iter=    34 ; resid.=  7.14701561455577E-04
(PID.TID 0000.0001)  cg2d: iter=    35 ; resid.=  6.17677838744613E-04
(PID.TID 0000.0001)  cg2d: iter=    36 ; resid.=  5.15975757220505E-04
(PID.TID 0000.0001)  cg2d: iter=    37 ; resid.=  4.26857089833240E-04
(PID.TID 0000.0001)  cg2d: iter=    38 ; resid.=  3.58505602156577E-04
(PID.TID 0000.0001)  cg2d: iter=    39 ; resid.=  2.97308880170856E-04
(PID.TID 0000.0001)  cg2d: iter=    40 ; resid.=  2.40071203626716E-04
(PID.TID 0000.0001)  cg2d: iter=    41 ; resid.=  1.92123934014997E-04
(PID.TID 0000.0001)  cg2d: iter=    42 ; resid.=  1.64101535293734E-04
(PID.TID 0000.0001)  cg2d: iter=    43 ; resid.=  1.32155671927857E-04
(PID.TID 0000.0001)  cg2d: iter=    44 ; resid.=  1.04067591370283E-04
(PID.TID 0000.0001)  cg2d: iter=    45 ; resid.=  8.79749411724227E-05
(PID.TID 0000.0001)  cg2d: iter=    46 ; resid.=  6.68642006367692E-05
(PID.TID 0000.0001)  cg2d: iter=    47 ; resid.=  5.20056874468429E-05
(PID.TID 0000.0001)  cg2d: iter=    48 ; resid.=  4.24676141131030E-05
(PID.TID 0000.0001)  cg2d: iter=    49 ; resid.=  3.60229360804455E-05
(PID.TID 0000.0001)  cg2d: iter=    50 ; resid.=  3.00126441103137E-05
(PID.TID 0000.0001)  cg2d: iter=    51 ; resid.=  2.64342616923085E-05
(PID.TID 0000.0001)  cg2d: iter=    52 ; resid.=  2.32788766798946E-05
(PID.TID 0000.0001)  cg2d: iter=    53 ; resid.=  2.09344575184893E-05
(PID.TID 0000.0001)  cg2d: iter=    54 ; resid.=  1.75284052298321E-05
(PID.TID 0000.0001)  cg2d: iter=    55 ; resid.=  1.57458280595685E-05
(PID.TID 0000.0001)  cg2d: iter=    56 ; resid.=  1.33123266561609E-05
(PID.TID 0000.0001)  cg2d: iter=    57 ; resid.=  1.05210770101846E-05
(PID.TID 0000.0001)  cg2d: iter=    58 ; resid.=  8.49804379754491E-06
(PID.TID 0000.0001)  cg2d: iter=    59 ; resid.=  6.22883507023103E-06
(PID.TID 0000.0001)  cg2d: iter=    60 ; resid.=  5.17474560553178E-06
(PID.TID 0000.0001)  cg2d: iter=    61 ; resid.=  4.40316333416153E-06
(PID.TID 0000.0001)  cg2d: iter=    62 ; resid.=  3.66699128078740E-06
(PID.TID 0000.0001)  cg2d: iter=    63 ; resid.=  3.06472675730616E-06
(PID.TID 0000.0001)  cg2d: iter=    64 ; resid.=  2.41197007100707E-06
(PID.TID 0000.0001)  cg2d: iter=    65 ; resid.=  1.96380156331156E-06
(PID.TID 0000.0001)  cg2d: iter=    66 ; resid.=  1.57304773303072E-06
(PID.TID 0000.0001)  cg2d: iter=    67 ; resid.=  1.39781930566429E-06
(PID.TID 0000.0001)  cg2d: iter=    68 ; resid.=  1.35902969463250E-06
(PID.TID 0000.0001)  cg2d: iter=    69 ; resid.=  1.13761727730312E-06
(PID.TID 0000.0001)  cg2d: iter=    70 ; resid.=  9.72312916810998E-07
(PID.TID 0000.0001)  cg2d: iter=    71 ; resid.=  8.22736850150148E-07
(PID.TID 0000.0001)  cg2d: iter=    72 ; resid.=  7.14435091507659E-07
(PID.TID 0000.0001)  cg2d: iter=    73 ; resid.=  6.26909056323434E-07
(PID.TID 0000.0001)  cg2d: iter=    74 ; resid.=  5.58972087572253E-07
(PID.TID 0000.0001)  cg2d: iter=    75 ; resid.=  4.76607993953684E-07
(PID.TID 0000.0001)  cg2d: iter=    76 ; resid.=  3.86514872549141E-07
(PID.TID 0000.0001)  cg2d: iter=    77 ; resid.=  3.24239593307077E-07
(PID.TID 0000.0001)  cg2d: iter=    78 ; resid.=  2.62466076539965E-07
(PID.TID 0000.0001)  cg2d: iter=    79 ; resid.=  1.97820783702409E-07
(PID.TID 0000.0001)  cg2d: iter=    80 ; resid.=  1.41199719460207E-07
(PID.TID 0000.0001)  cg2d: iter=    81 ; resid.=  1.04651019847349E-07
(PID.TID 0000.0001)  cg2d: iter=    82 ; resid.=  7.61194522551049E-08
(PID.TID 0000.0001)  cg2d: iter=    83 ; resid.=  5.64596635761538E-08
(PID.TID 0000.0001)  cg2d: iter=    84 ; resid.=  4.36800006271986E-08
(PID.TID 0000.0001)  cg2d: iter=    85 ; resid.=  3.17057339069562E-08
(PID.TID 0000.0001)  cg2d: iter=    86 ; resid.=  2.38674405730958E-08
(PID.TID 0000.0001)  cg2d: iter=    87 ; resid.=  1.83005006060555E-08
(PID.TID 0000.0001)  cg2d: iter=    88 ; resid.=  1.45088438247607E-08
(PID.TID 0000.0001)  cg2d: iter=    89 ; resid.=  1.29577572645989E-08
(PID.TID 0000.0001)  cg2d: iter=    90 ; resid.=  1.07450876720140E-08
(PID.TID 0000.0001)  cg2d: iter=    91 ; resid.=  9.02240931854930E-09
(PID.TID 0000.0001)  cg2d: iter=    92 ; resid.=  7.81471568361260E-09
(PID.TID 0000.0001)  cg2d: iter=    93 ; resid.=  6.38606470989363E-09
(PID.TID 0000.0001)  cg2d: iter=    94 ; resid.=  5.18644529186253E-09
(PID.TID 0000.0001)  cg2d: iter=    95 ; resid.=  4.36234522955689E-09
(PID.TID 0000.0001)  cg2d: iter=    96 ; resid.=  3.35465287507082E-09
(PID.TID 0000.0001)  cg2d: iter=    97 ; resid.=  2.57158938524657E-09
(PID.TID 0000.0001)  cg2d: iter=    98 ; resid.=  2.14085835575653E-09
(PID.TID 0000.0001)  cg2d: iter=    99 ; resid.=  1.81003385285467E-09
(PID.TID 0000.0001)  cg2d: iter=   100 ; resid.=  1.53289156548258E-09
(PID.TID 0000.0001)  cg2d: iter=   101 ; resid.=  1.15980872649439E-09
(PID.TID 0000.0001)  cg2d: iter=   102 ; resid.=  8.90483178144725E-10
(PID.TID 0000.0001)  cg2d: iter=   103 ; resid.=  6.87410793376987E-10
(PID.TID 0000.0001)  cg2d: iter=   104 ; resid.=  5.59403670913953E-10
(PID.TID 0000.0001)  cg2d: iter=   105 ; resid.=  4.24883219474690E-10
(PID.TID 0000.0001)  cg2d: iter=   106 ; resid.=  3.41898211221256E-10
(PID.TID 0000.0001)  cg2d: iter=   107 ; resid.=  2.57984052480699E-10
(PID.TID 0000.0001)  cg2d: iter=   108 ; resid.=  1.90312496506901E-10
(PID.TID 0000.0001)  cg2d: iter=   109 ; resid.=  1.41637610738150E-10
(PID.TID 0000.0001)  cg2d: iter=   110 ; resid.=  1.04656350965017E-10
(PID.TID 0000.0001)  cg2d: iter=   111 ; resid.=  8.00975991770605E-11
(PID.TID 0000.0001)  cg2d: iter=   112 ; resid.=  5.59032079836454E-11
(PID.TID 0000.0001)  cg2d: iter=   113 ; resid.=  3.87755511567088E-11
(PID.TID 0000.0001)  cg2d: iter=   114 ; resid.=  2.83548349033603E-11
(PID.TID 0000.0001)  cg2d: iter=   115 ; resid.=  1.92903690507024E-11
(PID.TID 0000.0001)  cg2d: iter=   116 ; resid.=  1.35287707866808E-11
(PID.TID 0000.0001)  cg2d: iter=   117 ; resid.=  1.04742266190296E-11
(PID.TID 0000.0001)  cg2d: iter=   118 ; resid.=  7.30167460214121E-12
(PID.TID 0000.0001)  cg2d: iter=   119 ; resid.=  5.32757078935655E-12
(PID.TID 0000.0001)  cg2d: iter=   120 ; resid.=  4.17418330901695E-12
(PID.TID 0000.0001)  cg2d: iter=   121 ; resid.=  3.06580297280453E-12
(PID.TID 0000.0001)  cg2d: iter=   122 ; resid.=  2.23190864496184E-12
(PID.TID 0000.0001)  cg2d: iter=   123 ; resid.=  1.83990119626249E-12
(PID.TID 0000.0001)  cg2d: iter=   124 ; resid.=  1.65704959353132E-12
(PID.TID 0000.0001)  cg2d: iter=   125 ; resid.=  1.44659815933777E-12
(PID.TID 0000.0001)  cg2d: iter=   126 ; resid.=  1.19189453591696E-12
(PID.TID 0000.0001)  cg2d: iter=   127 ; resid.=  8.64689394463395E-13
(PID.TID 0000.0001)  cg2d: iter=   128 ; resid.=  6.55366592782139E-13
(PID.TID 0000.0001)  cg2d: iter=   129 ; resid.=  4.39072346138806E-13
(PID.TID 0000.0001)  cg2d: iter=   130 ; resid.=  2.94111777098904E-13
(PID.TID 0000.0001)  cg2d: iter=   131 ; resid.=  2.04584146666065E-13
(PID.TID 0000.0001)  cg2d: iter=   132 ; resid.=  1.42076753429558E-13
(PID.TID 0000.0001)  cg2d: iter=   133 ; resid.=  1.04463245994930E-13
(PID.TID 0000.0001)  cg2d: iter=   134 ; resid.=  8.15049528720300E-14
DEBUG_STATS_RL:    cg2d_x (SOLVE_FOR_PRESSURE)  min= -2.00068001905017E+01
DEBUG_STATS_RL:    cg2d_x (SOLVE_FOR_PRESSURE)  max=  8.60949306908999E+00
DEBUG_STATS_RL:    cg2d_x (SOLVE_FOR_PRESSURE) mean= -1.73498789160827E+00
DEBUG_STATS_RL:    cg2d_x (SOLVE_FOR_PRESSURE) S.D.=  7.44600719178755E+00
(PID.TID 0000.0001)      cg2d_init_res =   3.92357475365533E-01
(PID.TID 0000.0001)      cg2d_iters(min,last) =      -1     134
(PID.TID 0000.0001)      cg2d_last_res =   8.15049528720300E-14
(PID.TID 0000.0001) // =======================================================
(PID.TID 0000.0001) // Begin MONITOR dynamic field statistics
(PID.TID 0000.0001) // =======================================================
(PID.TID 0000.0001) %MON time_tsnumber                =                    67
(PID.TID 0000.0001) %MON time_secondsf                =   5.7888000000000E+06
(PID.TID 0000.0001) %MON dynstat_eta_max              =   8.7762416606422E-01
(PID.TID 0000.0001) %MON dynstat_eta_min              =  -2.0394291733438E+00
(PID.TID 0000.0001) %MON dynstat_eta_mean             =  -4.8741172757950E-03
(PID.TID 0000.0001) %MON dynstat_eta_sd               =   6.4518562829607E-01
(PID.TID 0000.0001) %MON dynstat_eta_del2             =   2.4396386268023E-03
(PID.TID 0000.0001) %MON dynstat_uvel_max             =   1.8144056170372E-01
(PID.TID 0000.0001) %MON dynstat_uvel_min             =  -1.4771608204045E-01
(PID.TID 0000.0001) %MON dynstat_uvel_mean            =   2.5693922212687E-03
(PID.TID 0000.0001) %MON dynstat_uvel_sd              =   2.0931051709795E-02
(PID.TID 0000.0001) %MON dynstat_uvel_del2            =   1.3758641619220E-04
(PID.TID 0000.0001) %MON dynstat_vvel_max             =   1.5913384631672E-01
(PID.TID 0000.0001) %MON dynstat_vvel_min             =  -1.3494211718092E-01
(PID.TID 0000.0001) %MON dynstat_vvel_mean            =  -2.9517120243755E-05
(PID.TID 0000.0001) %MON dynstat_vvel_sd              =   1.1141918613492E-02
(PID.TID 0000.0001) %MON dynstat_vvel_del2            =   9.3874432694724E-05
(PID.TID 0000.0001) %MON dynstat_wvel_max             =   1.3508579296440E-04
(PID.TID 0000.0001) %MON dynstat_wvel_min             =  -1.2731113614038E-04
(PID.TID 0000.0001) %MON dynstat_wvel_mean            =  -2.1397855357807E-22
(PID.TID 0000.0001) %MON dynstat_wvel_sd              =   1.6194809998390E-05
(PID.TID 0000.0001) %MON dynstat_wvel_del2            =   1.5706010373494E-07
(PID.TID 0000.0001) %MON dynstat_theta_max            =   3.0770138385743E+01
(PID.TID 0000.0001) %MON dynstat_theta_min            =  -1.9553706220070E+00
(PID.TID 0000.0001) %MON dynstat_theta_mean           =   3.6534326920622E+00
(PID.TID 0000.0001) %MON dynstat_theta_sd             =   4.4250797854515E+00
(PID.TID 0000.0001) %MON dynstat_theta_del2           =   4.9319688512520E-03
(PID.TID 0000.0001) %MON dynstat_salt_max             =   3.7497170837490E+01
(PID.TID 0000.0001) %MON dynstat_salt_min             =   2.9927322726950E+01
(PID.TID 0000.0001) %MON dynstat_salt_mean            =   3.4747974021264E+01
(PID.TID 0000.0001) %MON dynstat_salt_sd              =   2.9643315198742E-01
(PID.TID 0000.0001) %MON dynstat_salt_del2            =   9.9272052157006E-04
(PID.TID 0000.0001) %MON dynstat_sst_max              =   3.0770138385743E+01
(PID.TID 0000.0001) %MON dynstat_sst_min              =  -1.9553706220070E+00
(PID.TID 0000.0001) %MON dynstat_sst_mean             =   1.9057264365058E+01
(PID.TID 0000.0001) %MON dynstat_sst_sd               =   9.0942125562133E+00
(PID.TID 0000.0001) %MON dynstat_sst_del2             =   2.8272799098024E-02
(PID.TID 0000.0001) %MON dynstat_sss_max              =   3.7477797932203E+01
(PID.TID 0000.0001) %MON dynstat_sss_min              =   2.9927322726950E+01
(PID.TID 0000.0001) %MON dynstat_sss_mean             =   3.4869266322027E+01
(PID.TID 0000.0001) %MON dynstat_sss_sd               =   9.8305358038243E-01
(PID.TID 0000.0001) %MON dynstat_sss_del2             =   8.0747867272097E-03
(PID.TID 0000.0001) %MON forcing_qnet_max             =   2.9969105529785E+02
(PID.TID 0000.0001) %MON forcing_qnet_min             =  -1.6654910430908E+02
(PID.TID 0000.0001) %MON forcing_qnet_mean            =  -9.2751214867842E+00
(PID.TID 0000.0001) %MON forcing_qnet_sd              =   5.3417334292331E+01
(PID.TID 0000.0001) %MON forcing_qnet_del2            =   8.6450663547171E-01
(PID.TID 0000.0001) %MON forcing_qsw_max              =   0.0000000000000E+00
(PID.TID 0000.0001) %MON forcing_qsw_min              =   0.0000000000000E+00
(PID.TID 0000.0001) %MON forcing_qsw_mean             =   0.0000000000000E+00
(PID.TID 0000.0001) %MON forcing_qsw_sd               =   0.0000000000000E+00
(PID.TID 0000.0001) %MON forcing_qsw_del2             =   0.0000000000000E+00
(PID.TID 0000.0001) %MON forcing_empmr_max            =   6.9160628868303E-05
(PID.TID 0000.0001) %MON forcing_empmr_min            =  -7.9671801245240E-05
(PID.TID 0000.0001) %MON forcing_empmr_mean           =   6.6852043154790E-07
(PID.TID 0000.0001) %MON forcing_empmr_sd             =   2.6572386265845E-05
(PID.TID 0000.0001) %MON forcing_empmr_del2           =   3.5744101537631E-07
(PID.TID 0000.0001) %MON forcing_fu_max               =   3.4007865488529E-01
(PID.TID 0000.0001) %MON forcing_fu_min               =  -3.3120734989643E-01
(PID.TID 0000.0001) %MON forcing_fu_mean              =   1.9608932995262E-02
(PID.TID 0000.0001) %MON forcing_fu_sd                =   9.7551455334173E-02
(PID.TID 0000.0001) %MON forcing_fu_del2              =   7.5067710575234E-04
(PID.TID 0000.0001) %MON forcing_fv_max               =   1.4891323596239E-01
(PID.TID 0000.0001) %MON forcing_fv_min               =  -1.7985151261091E-01
(PID.TID 0000.0001) %MON forcing_fv_mean              =  -7.4357202903193E-03
(PID.TID 0000.0001) %MON forcing_fv_sd                =   4.1731256114148E-02
(PID.TID 0000.0001) %MON forcing_fv_del2              =   4.7036402229304E-04
(PID.TID 0000.0001) %MON trAdv_CFL_u_max              =   5.3577387424110E-02
(PID.TID 0000.0001) %MON trAdv_CFL_v_max              =   3.0333689623475E-02
(PID.TID 0000.0001) %MON trAdv_CFL_w_max              =   5.1642134044815E-02
(PID.TID 0000.0001) %MON advcfl_uvel_max              =   5.4840806902712E-02
(PID.TID 0000.0001) %MON advcfl_vvel_max              =   3.0917154139285E-02
(PID.TID 0000.0001) %MON advcfl_wvel_max              =   6.1864951608363E-02
(PID.TID 0000.0001) %MON advcfl_W_hf_max              =   7.2912264395571E-02
(PID.TID 0000.0001) %MON pe_b_mean                    =   5.3269099480858E-04
(PID.TID 0000.0001) %MON ke_max                       =   1.6952518885057E-02
(PID.TID 0000.0001) %MON ke_mean                      =   2.5777213585704E-04
(PID.TID 0000.0001) %MON ke_vol                       =   1.3226782436723E+18
(PID.TID 0000.0001) %MON vort_r_min                   =  -3.4776343096548E-07
(PID.TID 0000.0001) %MON vort_r_max                   =   6.8475267708276E-07
(PID.TID 0000.0001) %MON vort_a_mean                  =  -2.5274806983513E-05
(PID.TID 0000.0001) %MON vort_a_sd                    =   7.3604691694698E-05
(PID.TID 0000.0001) %MON vort_p_mean                  =  -3.1845655277921E-05
(PID.TID 0000.0001) %MON vort_p_sd                    =   1.3162410111959E-04
(PID.TID 0000.0001) %MON surfExpan_theta_mean         =   1.2054740417540E-06
(PID.TID 0000.0001) %MON surfExpan_salt_mean          =  -3.2902541051439E-07
(PID.TID 0000.0001) // =======================================================
(PID.TID 0000.0001) // End MONITOR dynamic field statistics
(PID.TID 0000.0001) // =======================================================
 EXTERNAL_FIELDS_LOAD,        67 : iP,iLd,i0,i1=    2    3    2    3 ; Wght=  0.2666666667  0.7333333333
 EXTERNAL_FIELDS_LOAD: (fu0,1),fu,fv= -1.4435E-02 -2.7199E-02 -2.3795E-02 -5.1267E-03
 EXTERNAL_FIELDS_LOAD: SST,SSS,Q,E-P= -2.7669E-01  3.4537E+01  2.2209E+02  8.8932E-06
DEBUG_STATS_RL:          Uvel (THERMODYNAMICS)  min= -1.47716082040449E-01
DEBUG_STATS_RL:          Uvel (THERMODYNAMICS)  max=  1.81440561703722E-01
DEBUG_STATS_RL:          Uvel (THERMODYNAMICS) mean=  6.36549957502574E-03
DEBUG_STATS_RL:          Uvel (THERMODYNAMICS) S.D.=  2.72851261381387E-02
DEBUG_STATS_RL:          Vvel (THERMODYNAMICS)  min= -1.34942117180918E-01
DEBUG_STATS_RL:          Vvel (THERMODYNAMICS)  max=  1.59133846316724E-01
DEBUG_STATS_RL:          Vvel (THERMODYNAMICS) mean=  2.52321109446782E-04
DEBUG_STATS_RL:          Vvel (THERMODYNAMICS) S.D.=  1.58169215143142E-02
DEBUG_STATS_RL:          Wvel (THERMODYNAMICS)  min= -1.27311136140375E-04
DEBUG_STATS_RL:          Wvel (THERMODYNAMICS)  max=  1.35085792964399E-04
DEBUG_STATS_RL:          Wvel (THERMODYNAMICS) mean= -1.78471743371555E-07
DEBUG_STATS_RL:          Wvel (THERMODYNAMICS) S.D.=  1.38862660954802E-05
DEBUG_STATS_RL:         Theta (THERMODYNAMICS)  min= -1.95380558016561E+00
DEBUG_STATS_RL:         Theta (THERMODYNAMICS)  max=  3.07861878865188E+01
DEBUG_STATS_RL:         Theta (THERMODYNAMICS) mean=  3.25064116703477E+00
DEBUG_STATS_RL:         Theta (THERMODYNAMICS) S.D.=  5.88104806042581E+00
DEBUG_STATS_RL:          Salt (THERMODYNAMICS)  min=  3.00000000000000E-02
DEBUG_STATS_RL:          Salt (THERMODYNAMICS)  max=  3.74972860412943E+01
DEBUG_STATS_RL:          Salt (THERMODYNAMICS) mean=  1.88747502991743E+01
DEBUG_STATS_RL:          Salt (THERMODYNAMICS) S.D.=  1.73002902377845E+01
DEBUG_STATS_RL:         GtNm1 (THERMODYNAMICS)  min= -2.96899267839659E-06
DEBUG_STATS_RL:         GtNm1 (THERMODYNAMICS)  max=  1.76735376155881E-06
DEBUG_STATS_RL:         GtNm1 (THERMODYNAMICS) mean=  3.24771528569572E-09
DEBUG_STATS_RL:         GtNm1 (THERMODYNAMICS) S.D.=  1.73002958413086E-07
DEBUG_STATS_RL:         GsNm1 (THERMODYNAMICS)  min= -3.95402216199846E-07
DEBUG_STATS_RL:         GsNm1 (THERMODYNAMICS)  max=  2.91744779606261E-07
DEBUG_STATS_RL:         GsNm1 (THERMODYNAMICS) mean= -1.08591197975929E-10
DEBUG_STATS_RL:         GsNm1 (THERMODYNAMICS) S.D.=  1.65312944103912E-08
DEBUG_STATS_RL:                EtaN (DYNAMICS)  min= -2.03942917334375E+00
DEBUG_STATS_RL:                EtaN (DYNAMICS)  max=  8.77624166064217E-01
DEBUG_STATS_RL:                EtaN (DYNAMICS) mean= -1.76859112294422E-01
DEBUG_STATS_RL:                EtaN (DYNAMICS) S.D.=  7.59022139835636E-01
DEBUG_STATS_RL:                Uvel (DYNAMICS)  min= -1.47716082040449E-01
DEBUG_STATS_RL:                Uvel (DYNAMICS)  max=  1.81440561703722E-01
DEBUG_STATS_RL:                Uvel (DYNAMICS) mean=  6.36549957502574E-03
DEBUG_STATS_RL:                Uvel (DYNAMICS) S.D.=  2.72851261381387E-02
DEBUG_STATS_RL:                Vvel (DYNAMICS)  min= -1.34942117180918E-01
DEBUG_STATS_RL:                Vvel (DYNAMICS)  max=  1.59133846316724E-01
DEBUG_STATS_RL:                Vvel (DYNAMICS) mean=  2.52321109446782E-04
DEBUG_STATS_RL:                Vvel (DYNAMICS) S.D.=  1.58169215143142E-02
DEBUG_STATS_RL:                Wvel (DYNAMICS)  min= -1.27311136140375E-04
DEBUG_STATS_RL:                Wvel (DYNAMICS)  max=  1.35085792964399E-04
DEBUG_STATS_RL:                Wvel (DYNAMICS) mean= -1.78471743371555E-07
DEBUG_STATS_RL:                Wvel (DYNAMICS) S.D.=  1.38862660954802E-05
DEBUG_STATS_RL:               Theta (DYNAMICS)  min= -1.95380558016561E+00
DEBUG_STATS_RL:               Theta (DYNAMICS)  max=  3.07861878865188E+01
DEBUG_STATS_RL:               Theta (DYNAMICS) mean=  3.25064116703477E+00
DEBUG_STATS_RL:               Theta (DYNAMICS) S.D.=  5.88104806042581E+00
DEBUG_STATS_RL:                Salt (DYNAMICS)  min=  3.00000000000000E-02
DEBUG_STATS_RL:                Salt (DYNAMICS)  max=  3.74972860412943E+01
DEBUG_STATS_RL:                Salt (DYNAMICS) mean=  1.88747502991743E+01
DEBUG_STATS_RL:                Salt (DYNAMICS) S.D.=  1.73002902377845E+01
DEBUG_STATS_RL:                  Gu (DYNAMICS)  min= -1.46225728450274E-01
DEBUG_STATS_RL:                  Gu (DYNAMICS)  max=  1.70959295328364E-01
DEBUG_STATS_RL:                  Gu (DYNAMICS) mean=  6.22105510600858E-03
DEBUG_STATS_RL:                  Gu (DYNAMICS) S.D.=  2.77394580198403E-02
DEBUG_STATS_RL:                  Gv (DYNAMICS)  min= -1.14503500546276E-01
DEBUG_STATS_RL:                  Gv (DYNAMICS)  max=  1.60077989775103E-01
DEBUG_STATS_RL:                  Gv (DYNAMICS) mean=  3.25319110666904E-03
DEBUG_STATS_RL:                  Gv (DYNAMICS) S.D.=  1.66831074661981E-02
DEBUG_STATS_RL:               GuNm1 (DYNAMICS)  min= -1.06224616940443E-05
DEBUG_STATS_RL:               GuNm1 (DYNAMICS)  max=  9.46683729208827E-06
DEBUG_STATS_RL:               GuNm1 (DYNAMICS) mean=  9.01529131987245E-09
DEBUG_STATS_RL:               GuNm1 (DYNAMICS) S.D.=  1.21631332582988E-06
DEBUG_STATS_RL:               GvNm1 (DYNAMICS)  min= -1.04726970786896E-05
DEBUG_STATS_RL:               GvNm1 (DYNAMICS)  max=  1.55955831371088E-05
DEBUG_STATS_RL:               GvNm1 (DYNAMICS) mean=  7.45438795342838E-07
DEBUG_STATS_RL:               GvNm1 (DYNAMICS) S.D.=  2.65962307346741E-06
DEBUG_STATS_RL:               GtNm1 (DYNAMICS)  min= -2.96899267839659E-06
DEBUG_STATS_RL:               GtNm1 (DYNAMICS)  max=  1.76735376155881E-06
DEBUG_STATS_RL:               GtNm1 (DYNAMICS) mean=  3.24771528569572E-09
DEBUG_STATS_RL:               GtNm1 (DYNAMICS) S.D.=  1.73002958413086E-07
DEBUG_STATS_RL:               GsNm1 (DYNAMICS)  min= -3.95402216199846E-07
DEBUG_STATS_RL:               GsNm1 (DYNAMICS)  max=  2.91744779606261E-07
DEBUG_STATS_RL:               GsNm1 (DYNAMICS) mean= -1.08591197975929E-10
DEBUG_STATS_RL:               GsNm1 (DYNAMICS) S.D.=  1.65312944103912E-08
DEBUG_STATS_RL:    cg2d_b (SOLVE_FOR_PRESSURE)  min= -1.89039236587426E+04
DEBUG_STATS_RL:    cg2d_b (SOLVE_FOR_PRESSURE)  max=  2.63958713681576E+04
DEBUG_STATS_RL:    cg2d_b (SOLVE_FOR_PRESSURE) mean=  4.72392642228205E+00
DEBUG_STATS_RL:    cg2d_b (SOLVE_FOR_PRESSURE) S.D.=  4.06469797334440E+03
 cg2d: Sum(rhs),rhsMax =   4.14303036829240E-01  1.73375150444528E+00
(PID.TID 0000.0001)  cg2d: iter=     1 ; resid.=  2.88089497499048E-01
(PID.TID 0000.0001)  cg2d: iter=     2 ; resid.=  3.08937068426888E-01
(PID.TID 0000.0001)  cg2d: iter=     3 ; resid.=  2.95966581104851E-01
(PID.TID 0000.0001)  cg2d: iter=     4 ; resid.=  2.63400881125048E-01
(PID.TID 0000.0001)  cg2d: iter=     5 ; resid.=  2.59008087572876E-01
(PID.TID 0000.0001)  cg2d: iter=     6 ; resid.=  2.13744940525901E-01
(PID.TID 0000.0001)  cg2d: iter=     7 ; resid.=  1.59259464824099E-01
(PID.TID 0000.0001)  cg2d: iter=     8 ; resid.=  1.16034997294912E-01
(PID.TID 0000.0001)  cg2d: iter=     9 ; resid.=  8.75959905364594E-02
(PID.TID 0000.0001)  cg2d: iter=    10 ; resid.=  7.04861915444039E-02
(PID.TID 0000.0001)  cg2d: iter=    11 ; resid.=  6.17821636418118E-02
(PID.TID 0000.0001)  cg2d: iter=    12 ; resid.=  5.41940344083314E-02
(PID.TID 0000.0001)  cg2d: iter=    13 ; resid.=  4.43487456312885E-02
(PID.TID 0000.0001)  cg2d: iter=    14 ; resid.=  3.74633676878579E-02
(PID.TID 0000.0001)  cg2d: iter=    15 ; resid.=  3.07489197697306E-02
(PID.TID 0000.0001)  cg2d: iter=    16 ; resid.=  2.75153984337142E-02
(PID.TID 0000.0001)  cg2d: iter=    17 ; resid.=  2.43170256671488E-02
(PID.TID 0000.0001)  cg2d: iter=    18 ; resid.=  1.87314938948182E-02
(PID.TID 0000.0001)  cg2d: iter=    19 ; resid.=  1.51658150504127E-02
(PID.TID 0000.0001)  cg2d: iter=    20 ; resid.=  1.27940051284071E-02
(PID.TID 0000.0001)  cg2d: iter=    21 ; resid.=  1.13792436370567E-02
(PID.TID 0000.0001)  cg2d: iter=    22 ; resid.=  1.01733274209429E-02
(PID.TID 0000.0001)  cg2d: iter=    23 ; resid.=  8.09146890113490E-03
(PID.TID 0000.0001)  cg2d: iter=    24 ; resid.=  6.61769567721672E-03
(PID.TID 0000.0001)  cg2d: iter=    25 ; resid.=  4.92895471164029E-03
(PID.TID 0000.0001)  cg2d: iter=    26 ; resid.=  3.87166450830137E-03
(PID.TID 0000.0001)  cg2d: iter=    27 ; resid.=  3.04157408479072E-03
(PID.TID 0000.0001)  cg2d: iter=    28 ; resid.=  2.45115281115174E-03
(PID.TID 0000.0001)  cg2d: iter=    29 ; resid.=  2.00127375467348E-03
(PID.TID 0000.0001)  cg2d: iter=    30 ; resid.=  1.67792418877184E-03
(PID.TID 0000.0001)  cg2d: iter=    31 ; resid.=  1.33691350483201E-03
(PID.TID 0000.0001)  cg2d: iter=    32 ; resid.=  9.86523367136164E-04
(PID.TID 0000.0001)  cg2d: iter=    33 ; resid.=  8.09364119976253E-04
(PID.TID 0000.0001)  cg2d: iter=    34 ; resid.=  7.27709488326781E-04
(PID.TID 0000.0001)  cg2d: iter=    35 ; resid.=  6.17403468713084E-04
(PID.TID 0000.0001)  cg2d: iter=    36 ; resid.=  5.17515448207014E-04
(PID.TID 0000.0001)  cg2d: iter=    37 ; resid.=  4.29096228169307E-04
(PID.TID 0000.0001)  cg2d: iter=    38 ; resid.=  3.62339172390389E-04
(PID.TID 0000.0001)  cg2d: iter=    39 ; resid.=  2.99025023363669E-04
(PID.TID 0000.0001)  cg2d: iter=    40 ; resid.=  2.44616810976714E-04
(PID.TID 0000.0001)  cg2d: iter=    41 ; resid.=  1.94717719295220E-04
(PID.TID 0000.0001)  cg2d: iter=    42 ; resid.=  1.64023547501969E-04
(PID.TID 0000.0001)  cg2d: iter=    43 ; resid.=  1.29101422069139E-04
(PID.TID 0000.0001)  cg2d: iter=    44 ; resid.=  1.01320754989577E-04
(PID.TID 0000.0001)  cg2d: iter=    45 ; resid.=  8.57705583937725E-05
(PID.TID 0000.0001)  cg2d: iter=    46 ; resid.=  6.47012433082035E-05
(PID.TID 0000.0001)  cg2d: iter=    47 ; resid.=  5.08891724850993E-05
(PID.TID 0000.0001)  cg2d: iter=    48 ; resid.=  4.12109538236687E-05
(PID.TID 0000.0001)  cg2d: iter=    49 ; resid.=  3.42081393571010E-05
(PID.TID 0000.0001)  cg2d: iter=    50 ; resid.=  2.83065839895933E-05
(PID.TID 0000.0001)  cg2d: iter=    51 ; resid.=  2.49136888316853E-05
(PID.TID 0000.0001)  cg2d: iter=    52 ; resid.=  2.17225813345427E-05
(PID.TID 0000.0001)  cg2d: iter=    53 ; resid.=  1.90294739489776E-05
(PID.TID 0000.0001)  cg2d: iter=    54 ; resid.=  1.56194859203097E-05
(PID.TID 0000.0001)  cg2d: iter=    55 ; resid.=  1.37579167429916E-05
(PID.TID 0000.0001)  cg2d: iter=    56 ; resid.=  1.17240278536281E-05
(PID.TID 0000.0001)  cg2d: iter=    57 ; resid.=  9.32670438471206E-06
(PID.TID 0000.0001)  cg2d: iter=    58 ; resid.=  7.45137203283544E-06
(PID.TID 0000.0001)  cg2d: iter=    59 ; resid.=  5.38121041066147E-06
(PID.TID 0000.0001)  cg2d: iter=    60 ; resid.=  4.28600180691762E-06
(PID.TID 0000.0001)  cg2d: iter=    61 ; resid.=  3.57191369186647E-06
(PID.TID 0000.0001)  cg2d: iter=    62 ; resid.=  2.92950903758631E-06
(PID.TID 0000.0001)  cg2d: iter=    63 ; resid.=  2.43895022917588E-06
(PID.TID 0000.0001)  cg2d: iter=    64 ; resid.=  1.87569846601677E-06
(PID.TID 0000.0001)  cg2d: iter=    65 ; resid.=  1.43663000136420E-06
(PID.TID 0000.0001)  cg2d: iter=    66 ; resid.=  1.06903597263968E-06
(PID.TID 0000.0001)  cg2d: iter=    67 ; resid.=  8.48917872493488E-07
(PID.TID 0000.0001)  cg2d: iter=    68 ; resid.=  7.58030530936212E-07
(PID.TID 0000.0001)  cg2d: iter=    69 ; resid.=  6.19655476316749E-07
(PID.TID 0000.0001)  cg2d: iter=    70 ; resid.=  5.09624443599330E-07
(PID.TID 0000.0001)  cg2d: iter=    71 ; resid.=  4.12388117626825E-07
(PID.TID 0000.0001)  cg2d: iter=    72 ; resid.=  3.42946183028544E-07
(PID.TID 0000.0001)  cg2d: iter=    73 ; resid.=  2.99679040170500E-07
(PID.TID 0000.0001)  cg2d: iter=    74 ; resid.=  2.75552248056622E-07
(PID.TID 0000.0001)  cg2d: iter=    75 ; resid.=  2.53610056515304E-07
(PID.TID 0000.0001)  cg2d: iter=    76 ; resid.=  2.28987915857290E-07
(PID.TID 0000.0001)  cg2d: iter=    77 ; resid.=  2.13581550474757E-07
(PID.TID 0000.0001)  cg2d: iter=    78 ; resid.=  1.92843729597611E-07
(PID.TID 0000.0001)  cg2d: iter=    79 ; resid.=  1.63070229305605E-07
(PID.TID 0000.0001)  cg2d: iter=    80 ; resid.=  1.26061980244695E-07
(PID.TID 0000.0001)  cg2d: iter=    81 ; resid.=  9.68499006470402E-08
(PID.TID 0000.0001)  cg2d: iter=    82 ; resid.=  7.12780230284841E-08
(PID.TID 0000.0001)  cg2d: iter=    83 ; resid.=  5.35741511828979E-08
(PID.TID 0000.0001)  cg2d: iter=    84 ; resid.=  4.15016253540742E-08
(PID.TID 0000.0001)  cg2d: iter=    85 ; resid.=  3.04914142548324E-08
(PID.TID 0000.0001)  cg2d: iter=    86 ; resid.=  2.33504647908463E-08
(PID.TID 0000.0001)  cg2d: iter=    87 ; resid.=  1.85983141983120E-08
(PID.TID 0000.0001)  cg2d: iter=    88 ; resid.=  1.50918477949533E-08
(PID.TID 0000.0001)  cg2d: iter=    89 ; resid.=  1.38288661738930E-08
(PID.TID 0000.0001)  cg2d: iter=    90 ; resid.=  1.14641684221213E-08
(PID.TID 0000.0001)  cg2d: iter=    91 ; resid.=  9.49590452247109E-09
(PID.TID 0000.0001)  cg2d: iter=    92 ; resid.=  8.14150218594009E-09
(PID.TID 0000.0001)  cg2d: iter=    93 ; resid.=  6.54233006682525E-09
(PID.TID 0000.0001)  cg2d: iter=    94 ; resid.=  5.26145810335547E-09
(PID.TID 0000.0001)  cg2d: iter=    95 ; resid.=  4.38959883345052E-09
(PID.TID 0000.0001)  cg2d: iter=    96 ; resid.=  3.34506842281221E-09
(PID.TID 0000.0001)  cg2d: iter=    97 ; resid.=  2.55520597663907E-09
(PID.TID 0000.0001)  cg2d: iter=    98 ; resid.=  2.15357404217026E-09
(PID.TID 0000.0001)  cg2d: iter=    99 ; resid.=  1.81541558998060E-09
(PID.TID 0000.0001)  cg2d: iter=   100 ; resid.=  1.56575467955259E-09
(PID.TID 0000.0001)  cg2d: iter=   101 ; resid.=  1.19195265748960E-09
(PID.TID 0000.0001)  cg2d: iter=   102 ; resid.=  9.37110222600946E-10
(PID.TID 0000.0001)  cg2d: iter=   103 ; resid.=  7.34168463286946E-10
(PID.TID 0000.0001)  cg2d: iter=   104 ; resid.=  5.95218227417873E-10
(PID.TID 0000.0001)  cg2d: iter=   105 ; resid.=  4.54489306703042E-10
(PID.TID 0000.0001)  cg2d: iter=   106 ; resid.=  3.64064514891986E-10
(PID.TID 0000.0001)  cg2d: iter=   107 ; resid.=  2.65074676064174E-10
(PID.TID 0000.0001)  cg2d: iter=   108 ; resid.=  1.91564680531864E-10
(PID.TID 0000.0001)  cg2d: iter=   109 ; resid.=  1.42332618472212E-10
(PID.TID 0000.0001)  cg2d: iter=   110 ; resid.=  1.06450108227222E-10
(PID.TID 0000.0001)  cg2d: iter=   111 ; resid.=  8.25736051805557E-11
(PID.TID 0000.0001)  cg2d: iter=   112 ; resid.=  6.08140715656016E-11
(PID.TID 0000.0001)  cg2d: iter=   113 ; resid.=  4.46188384247504E-11
(PID.TID 0000.0001)  cg2d: iter=   114 ; resid.=  3.36911545182854E-11
(PID.TID 0000.0001)  cg2d: iter=   115 ; resid.=  2.52125700083666E-11
(PID.TID 0000.0001)  cg2d: iter=   116 ; resid.=  1.95965026218941E-11
(PID.TID 0000.0001)  cg2d: iter=   117 ; resid.=  1.64634054081422E-11
(PID.TID 0000.0001)  cg2d: iter=   118 ; resid.=  1.24544243382978E-11
(PID.TID 0000.0001)  cg2d: iter=   119 ; resid.=  9.77094296682576E-12
(PID.TID 0000.0001)  cg2d: iter=   120 ; resid.=  8.16045642538066E-12
(PID.TID 0000.0001)  cg2d: iter=   121 ; resid.=  6.19519286546702E-12
(PID.TID 0000.0001)  cg2d: iter=   122 ; resid.=  4.69729432785477E-12
(PID.TID 0000.0001)  cg2d: iter=   123 ; resid.=  3.82961387489339E-12
(PID.TID 0000.0001)  cg2d: iter=   124 ; resid.=  3.07458186499995E-12
(PID.TID 0000.0001)  cg2d: iter=   125 ; resid.=  2.23121487336536E-12
(PID.TID 0000.0001)  cg2d: iter=   126 ; resid.=  1.53801168058548E-12
(PID.TID 0000.0001)  cg2d: iter=   127 ; resid.=  9.93267325977359E-13
(PID.TID 0000.0001)  cg2d: iter=   128 ; resid.=  7.08117045779406E-13
(PID.TID 0000.0001)  cg2d: iter=   129 ; resid.=  4.64569325063435E-13
(PID.TID 0000.0001)  cg2d: iter=   130 ; resid.=  3.13382845876251E-13
(PID.TID 0000.0001)  cg2d: iter=   131 ; resid.=  2.22082837795490E-13
(PID.TID 0000.0001)  cg2d: iter=   132 ; resid.=  1.59062136281103E-13
(PID.TID 0000.0001)  cg2d: iter=   133 ; resid.=  1.22322175745152E-13
(PID.TID 0000.0001)  cg2d: iter=   134 ; resid.=  9.93713434277023E-14
DEBUG_STATS_RL:    cg2d_x (SOLVE_FOR_PRESSURE)  min= -1.97850957719130E+01
DEBUG_STATS_RL:    cg2d_x (SOLVE_FOR_PRESSURE)  max=  8.97022910473506E+00
DEBUG_STATS_RL:    cg2d_x (SOLVE_FOR_PRESSURE) mean= -1.78887685626532E+00
DEBUG_STATS_RL:    cg2d_x (SOLVE_FOR_PRESSURE) S.D.=  7.57798238626002E+00
(PID.TID 0000.0001)      cg2d_init_res =   3.94250408267557E-01
(PID.TID 0000.0001)      cg2d_iters(min,last) =      -1     134
(PID.TID 0000.0001)      cg2d_last_res =   9.93713434277023E-14
(PID.TID 0000.0001) // =======================================================
(PID.TID 0000.0001) // Begin MONITOR dynamic field statistics
(PID.TID 0000.0001) // =======================================================
(PID.TID 0000.0001) %MON time_tsnumber                =                    68
(PID.TID 0000.0001) %MON time_secondsf                =   5.8752000000000E+06
(PID.TID 0000.0001) %MON dynstat_eta_max              =   9.1439644288842E-01
(PID.TID 0000.0001) %MON dynstat_eta_min              =  -2.0168293345480E+00
(PID.TID 0000.0001) %MON dynstat_eta_mean             =  -4.9288314741123E-03
(PID.TID 0000.0001) %MON dynstat_eta_sd               =   6.6226176704116E-01
(PID.TID 0000.0001) %MON dynstat_eta_del2             =   2.4440469315549E-03
(PID.TID 0000.0001) %MON dynstat_uvel_max             =   1.8185216755967E-01
(PID.TID 0000.0001) %MON dynstat_uvel_min             =  -1.4712061390199E-01
(PID.TID 0000.0001) %MON dynstat_uvel_mean            =   2.5884444121534E-03
(PID.TID 0000.0001) %MON dynstat_uvel_sd              =   2.0951657409715E-02
(PID.TID 0000.0001) %MON dynstat_uvel_del2            =   1.3856210610188E-04
(PID.TID 0000.0001) %MON dynstat_vvel_max             =   1.6109528479868E-01
(PID.TID 0000.0001) %MON dynstat_vvel_min             =  -1.3385843135607E-01
(PID.TID 0000.0001) %MON dynstat_vvel_mean            =  -8.1740417710693E-05
(PID.TID 0000.0001) %MON dynstat_vvel_sd              =   1.0996966369951E-02
(PID.TID 0000.0001) %MON dynstat_vvel_del2            =   9.3632755377371E-05
(PID.TID 0000.0001) %MON dynstat_wvel_max             =   1.2622093546736E-04
(PID.TID 0000.0001) %MON dynstat_wvel_min             =  -1.2662890913790E-04
(PID.TID 0000.0001) %MON dynstat_wvel_mean            =  -1.9401662127064E-22
(PID.TID 0000.0001) %MON dynstat_wvel_sd              =   1.6070609766990E-05
(PID.TID 0000.0001) %MON dynstat_wvel_del2            =   1.5502223961742E-07
(PID.TID 0000.0001) %MON dynstat_theta_max            =   3.0786187886519E+01
(PID.TID 0000.0001) %MON dynstat_theta_min            =  -1.9538055801656E+00
(PID.TID 0000.0001) %MON dynstat_theta_mean           =   3.6534545614698E+00
(PID.TID 0000.0001) %MON dynstat_theta_sd             =   4.4252010003550E+00
(PID.TID 0000.0001) %MON dynstat_theta_del2           =   4.9289142669375E-03
(PID.TID 0000.0001) %MON dynstat_salt_max             =   3.7497286041294E+01
(PID.TID 0000.0001) %MON dynstat_salt_min             =   2.9927915120065E+01
(PID.TID 0000.0001) %MON dynstat_salt_mean            =   3.4747982606310E+01
(PID.TID 0000.0001) %MON dynstat_salt_sd              =   2.9645534382966E-01
(PID.TID 0000.0001) %MON dynstat_salt_del2            =   9.9301212771056E-04
(PID.TID 0000.0001) %MON dynstat_sst_max              =   3.0786187886519E+01
(PID.TID 0000.0001) %MON dynstat_sst_min              =  -1.9538055801656E+00
(PID.TID 0000.0001) %MON dynstat_sst_mean             =   1.9061880821098E+01
(PID.TID 0000.0001) %MON dynstat_sst_sd               =   9.0991367271460E+00
(PID.TID 0000.0001) %MON dynstat_sst_del2             =   2.8336189968964E-02
(PID.TID 0000.0001) %MON dynstat_sss_max              =   3.7478834986577E+01
(PID.TID 0000.0001) %MON dynstat_sss_min              =   2.9927915120065E+01
(PID.TID 0000.0001) %MON dynstat_sss_mean             =   3.4869158255560E+01
(PID.TID 0000.0001) %MON dynstat_sss_sd               =   9.8337961058538E-01
(PID.TID 0000.0001) %MON dynstat_sss_del2             =   8.0888446149409E-03
(PID.TID 0000.0001) %MON forcing_qnet_max             =   2.9689290364583E+02
(PID.TID 0000.0001) %MON forcing_qnet_min             =  -1.6624982503255E+02
(PID.TID 0000.0001) %MON forcing_qnet_mean            =  -9.0517819871576E+00
(PID.TID 0000.0001) %MON forcing_qnet_sd              =   5.2467021838171E+01
(PID.TID 0000.0001) %MON forcing_qnet_del2            =   8.6239476817543E-01
(PID.TID 0000.0001) %MON forcing_qsw_max              =   0.0000000000000E+00
(PID.TID 0000.0001) %MON forcing_qsw_min              =   0.0000000000000E+00
(PID.TID 0000.0001) %MON forcing_qsw_mean             =   0.0000000000000E+00
(PID.TID 0000.0001) %MON forcing_qsw_sd               =   0.0000000000000E+00
(PID.TID 0000.0001) %MON forcing_qsw_del2             =   0.0000000000000E+00
(PID.TID 0000.0001) %MON forcing_empmr_max            =   6.9154872524753E-05
(PID.TID 0000.0001) %MON forcing_empmr_min            =  -8.0070980838324E-05
(PID.TID 0000.0001) %MON forcing_empmr_mean           =   6.5543050067353E-07
(PID.TID 0000.0001) %MON forcing_empmr_sd             =   2.6530988089422E-05
(PID.TID 0000.0001) %MON forcing_empmr_del2           =   3.5820452796475E-07
(PID.TID 0000.0001) %MON forcing_fu_max               =   3.4202007055283E-01
(PID.TID 0000.0001) %MON forcing_fu_min               =  -3.3757946888606E-01
(PID.TID 0000.0001) %MON forcing_fu_mean              =   1.9703132584721E-02
(PID.TID 0000.0001) %MON forcing_fu_sd                =   9.7988970330100E-02
(PID.TID 0000.0001) %MON forcing_fu_del2              =   7.5916327161955E-04
(PID.TID 0000.0001) %MON forcing_fv_max               =   1.5269908905029E-01
(PID.TID 0000.0001) %MON forcing_fv_min               =  -1.8134930332502E-01
(PID.TID 0000.0001) %MON forcing_fv_mean              =  -7.4461486402888E-03
(PID.TID 0000.0001) %MON forcing_fv_sd                =   4.1765973059055E-02
(PID.TID 0000.0001) %MON forcing_fv_del2              =   4.7254399856662E-04
(PID.TID 0000.0001) %MON trAdv_CFL_u_max              =   5.4851945462822E-02
(PID.TID 0000.0001) %MON trAdv_CFL_v_max              =   3.0791166133823E-02
(PID.TID 0000.0001) %MON trAdv_CFL_w_max              =   5.3724826396737E-02
(PID.TID 0000.0001) %MON advcfl_uvel_max              =   5.4965215673574E-02
(PID.TID 0000.0001) %MON advcfl_vvel_max              =   3.1298230178639E-02
(PID.TID 0000.0001) %MON advcfl_wvel_max              =   6.2984567292167E-02
(PID.TID 0000.0001) %MON advcfl_W_hf_max              =   7.4231811451483E-02
(PID.TID 0000.0001) %MON pe_b_mean                    =   5.6126068510394E-04
(PID.TID 0000.0001) %MON ke_max                       =   1.7395602371529E-02
(PID.TID 0000.0001) %MON ke_mean                      =   2.5677077602730E-04
(PID.TID 0000.0001) %MON ke_vol                       =   1.3226782436723E+18
(PID.TID 0000.0001) %MON vort_r_min                   =  -3.7561098485924E-07
(PID.TID 0000.0001) %MON vort_r_max                   =   6.9515012558877E-07
(PID.TID 0000.0001) %MON vort_a_mean                  =  -2.5274806788074E-05
(PID.TID 0000.0001) %MON vort_a_sd                    =   7.3604705591522E-05
(PID.TID 0000.0001) %MON vort_p_mean                  =  -3.1845655031671E-05
(PID.TID 0000.0001) %MON vort_p_sd                    =   1.3162427928257E-04
(PID.TID 0000.0001) %MON surfExpan_theta_mean         =   1.2849388284495E-06
(PID.TID 0000.0001) %MON surfExpan_salt_mean          =  -3.4768528946050E-07
(PID.TID 0000.0001) // =======================================================
(PID.TID 0000.0001) // End MONITOR dynamic field statistics
(PID.TID 0000.0001) // =======================================================
 EXTERNAL_FIELDS_LOAD,        68 : iP,iLd,i0,i1=    2    3    2    3 ; Wght=  0.2333333333  0.7666666667
 EXTERNAL_FIELDS_LOAD: (fu0,1),fu,fv= -1.4435E-02 -2.7199E-02 -2.4221E-02 -4.5581E-03
 EXTERNAL_FIELDS_LOAD: SST,SSS,Q,E-P= -2.6509E-01  3.4542E+01  2.2125E+02  8.9166E-06
DEBUG_STATS_RL:          Uvel (THERMODYNAMICS)  min= -1.47120613901985E-01
DEBUG_STATS_RL:          Uvel (THERMODYNAMICS)  max=  1.81852167559669E-01
DEBUG_STATS_RL:          Uvel (THERMODYNAMICS) mean=  6.36267437310568E-03
DEBUG_STATS_RL:          Uvel (THERMODYNAMICS) S.D.=  2.73795726970297E-02
DEBUG_STATS_RL:          Vvel (THERMODYNAMICS)  min= -1.33858431356069E-01
DEBUG_STATS_RL:          Vvel (THERMODYNAMICS)  max=  1.61095284798683E-01
DEBUG_STATS_RL:          Vvel (THERMODYNAMICS) mean=  2.30670742391117E-04
DEBUG_STATS_RL:          Vvel (THERMODYNAMICS) S.D.=  1.56706871484853E-02
DEBUG_STATS_RL:          Wvel (THERMODYNAMICS)  min= -1.26628909137896E-04
DEBUG_STATS_RL:          Wvel (THERMODYNAMICS)  max=  1.26220935467361E-04
DEBUG_STATS_RL:          Wvel (THERMODYNAMICS) mean= -1.69855082283260E-07
DEBUG_STATS_RL:          Wvel (THERMODYNAMICS) S.D.=  1.37771697026141E-05
DEBUG_STATS_RL:         Theta (THERMODYNAMICS)  min= -1.95226146556012E+00
DEBUG_STATS_RL:         Theta (THERMODYNAMICS)  max=  3.08021885751297E+01
DEBUG_STATS_RL:         Theta (THERMODYNAMICS) mean=  3.25075552883575E+00
DEBUG_STATS_RL:         Theta (THERMODYNAMICS) S.D.=  5.88145914411267E+00
DEBUG_STATS_RL:          Salt (THERMODYNAMICS)  min=  3.00000000000000E-02
DEBUG_STATS_RL:          Salt (THERMODYNAMICS)  max=  3.74973715382320E+01
DEBUG_STATS_RL:          Salt (THERMODYNAMICS) mean=  1.88747538694307E+01
DEBUG_STATS_RL:          Salt (THERMODYNAMICS) S.D.=  1.73002945255281E+01
DEBUG_STATS_RL:         GtNm1 (THERMODYNAMICS)  min= -2.55811315712573E-06
DEBUG_STATS_RL:         GtNm1 (THERMODYNAMICS)  max=  2.28104270630885E-06
DEBUG_STATS_RL:         GtNm1 (THERMODYNAMICS) mean=  2.92809617043918E-09
DEBUG_STATS_RL:         GtNm1 (THERMODYNAMICS) S.D.=  1.71062713084231E-07
DEBUG_STATS_RL:         GsNm1 (THERMODYNAMICS)  min= -3.79950846879673E-07
DEBUG_STATS_RL:         GsNm1 (THERMODYNAMICS)  max=  2.72942947097570E-07
DEBUG_STATS_RL:         GsNm1 (THERMODYNAMICS) mean= -6.02527729880940E-11
DEBUG_STATS_RL:         GsNm1 (THERMODYNAMICS) S.D.=  1.61563873568058E-08
DEBUG_STATS_RL:                EtaN (DYNAMICS)  min= -2.01682933454796E+00
DEBUG_STATS_RL:                EtaN (DYNAMICS)  max=  9.14396442888419E-01
DEBUG_STATS_RL:                EtaN (DYNAMICS) mean= -1.82352380862928E-01
DEBUG_STATS_RL:                EtaN (DYNAMICS) S.D.=  7.72475268731914E-01
DEBUG_STATS_RL:                Uvel (DYNAMICS)  min= -1.47120613901985E-01
DEBUG_STATS_RL:                Uvel (DYNAMICS)  max=  1.81852167559669E-01
DEBUG_STATS_RL:                Uvel (DYNAMICS) mean=  6.36267437310568E-03
DEBUG_STATS_RL:                Uvel (DYNAMICS) S.D.=  2.73795726970297E-02
DEBUG_STATS_RL:                Vvel (DYNAMICS)  min= -1.33858431356069E-01
DEBUG_STATS_RL:                Vvel (DYNAMICS)  max=  1.61095284798683E-01
DEBUG_STATS_RL:                Vvel (DYNAMICS) mean=  2.30670742391117E-04
DEBUG_STATS_RL:                Vvel (DYNAMICS) S.D.=  1.56706871484853E-02
DEBUG_STATS_RL:                Wvel (DYNAMICS)  min= -1.26628909137896E-04
DEBUG_STATS_RL:                Wvel (DYNAMICS)  max=  1.26220935467361E-04
DEBUG_STATS_RL:                Wvel (DYNAMICS) mean= -1.69855082283260E-07
DEBUG_STATS_RL:                Wvel (DYNAMICS) S.D.=  1.37771697026141E-05
DEBUG_STATS_RL:               Theta (DYNAMICS)  min= -1.95226146556012E+00
DEBUG_STATS_RL:               Theta (DYNAMICS)  max=  3.08021885751297E+01
DEBUG_STATS_RL:               Theta (DYNAMICS) mean=  3.25075552883575E+00
DEBUG_STATS_RL:               Theta (DYNAMICS) S.D.=  5.88145914411267E+00
DEBUG_STATS_RL:                Salt (DYNAMICS)  min=  3.00000000000000E-02
DEBUG_STATS_RL:                Salt (DYNAMICS)  max=  3.74973715382320E+01
DEBUG_STATS_RL:                Salt (DYNAMICS) mean=  1.88747538694307E+01
DEBUG_STATS_RL:                Salt (DYNAMICS) S.D.=  1.73002945255281E+01
DEBUG_STATS_RL:                  Gu (DYNAMICS)  min= -1.45473336697408E-01
DEBUG_STATS_RL:                  Gu (DYNAMICS)  max=  1.66227530955516E-01
DEBUG_STATS_RL:                  Gu (DYNAMICS) mean=  6.22536147660948E-03
DEBUG_STATS_RL:                  Gu (DYNAMICS) S.D.=  2.77929701546704E-02
DEBUG_STATS_RL:                  Gv (DYNAMICS)  min= -1.08235248160537E-01
DEBUG_STATS_RL:                  Gv (DYNAMICS)  max=  1.61970476879533E-01
DEBUG_STATS_RL:                  Gv (DYNAMICS) mean=  3.26449833169822E-03
DEBUG_STATS_RL:                  Gv (DYNAMICS) S.D.=  1.65736947231482E-02
DEBUG_STATS_RL:               GuNm1 (DYNAMICS)  min= -1.07379505312016E-05
DEBUG_STATS_RL:               GuNm1 (DYNAMICS)  max=  9.46241307918224E-06
DEBUG_STATS_RL:               GuNm1 (DYNAMICS) mean=  8.72148891937629E-09
DEBUG_STATS_RL:               GuNm1 (DYNAMICS) S.D.=  1.21784350017392E-06
DEBUG_STATS_RL:               GvNm1 (DYNAMICS)  min= -1.04803449856214E-05
DEBUG_STATS_RL:               GvNm1 (DYNAMICS)  max=  1.55759454935065E-05
DEBUG_STATS_RL:               GvNm1 (DYNAMICS) mean=  7.45053497733068E-07
DEBUG_STATS_RL:               GvNm1 (DYNAMICS) S.D.=  2.65757889257734E-06
DEBUG_STATS_RL:               GtNm1 (DYNAMICS)  min= -2.55811315712573E-06
DEBUG_STATS_RL:               GtNm1 (DYNAMICS)  max=  2.28104270630885E-06
DEBUG_STATS_RL:               GtNm1 (DYNAMICS) mean=  2.92809617043918E-09
DEBUG_STATS_RL:               GtNm1 (DYNAMICS) S.D.=  1.71062713084231E-07
DEBUG_STATS_RL:               GsNm1 (DYNAMICS)  min= -3.79950846879673E-07
DEBUG_STATS_RL:               GsNm1 (DYNAMICS)  max=  2.72942947097570E-07
DEBUG_STATS_RL:               GsNm1 (DYNAMICS) mean= -6.02527729880940E-11
DEBUG_STATS_RL:               GsNm1 (DYNAMICS) S.D.=  1.61563873568058E-08
DEBUG_STATS_RL:    cg2d_b (SOLVE_FOR_PRESSURE)  min= -1.89089668212028E+04
DEBUG_STATS_RL:    cg2d_b (SOLVE_FOR_PRESSURE)  max=  2.64198569976433E+04
DEBUG_STATS_RL:    cg2d_b (SOLVE_FOR_PRESSURE) mean=  4.77531870410849E+00
DEBUG_STATS_RL:    cg2d_b (SOLVE_FOR_PRESSURE) S.D.=  4.07090395026970E+03
 cg2d: Sum(rhs),rhsMax =   4.18430077081575E-01  1.73532694480964E+00
(PID.TID 0000.0001)  cg2d: iter=     1 ; resid.=  2.90955069753003E-01
(PID.TID 0000.0001)  cg2d: iter=     2 ; resid.=  3.11046685363678E-01
(PID.TID 0000.0001)  cg2d: iter=     3 ; resid.=  2.95330090209656E-01
(PID.TID 0000.0001)  cg2d: iter=     4 ; resid.=  2.66273916997384E-01
(PID.TID 0000.0001)  cg2d: iter=     5 ; resid.=  2.65712165188551E-01
(PID.TID 0000.0001)  cg2d: iter=     6 ; resid.=  2.17032625194050E-01
(PID.TID 0000.0001)  cg2d: iter=     7 ; resid.=  1.59001794789028E-01
(PID.TID 0000.0001)  cg2d: iter=     8 ; resid.=  1.14184068710401E-01
(PID.TID 0000.0001)  cg2d: iter=     9 ; resid.=  8.59923398563445E-02
(PID.TID 0000.0001)  cg2d: iter=    10 ; resid.=  6.83189696656682E-02
(PID.TID 0000.0001)  cg2d: iter=    11 ; resid.=  6.08519991597451E-02
(PID.TID 0000.0001)  cg2d: iter=    12 ; resid.=  5.34845993706954E-02
(PID.TID 0000.0001)  cg2d: iter=    13 ; resid.=  4.43508795258329E-02
(PID.TID 0000.0001)  cg2d: iter=    14 ; resid.=  3.79720320536240E-02
(PID.TID 0000.0001)  cg2d: iter=    15 ; resid.=  3.08323938913004E-02
(PID.TID 0000.0001)  cg2d: iter=    16 ; resid.=  2.76960426840324E-02
(PID.TID 0000.0001)  cg2d: iter=    17 ; resid.=  2.43120822542809E-02
(PID.TID 0000.0001)  cg2d: iter=    18 ; resid.=  1.88200007342332E-02
(PID.TID 0000.0001)  cg2d: iter=    19 ; resid.=  1.50576198794308E-02
(PID.TID 0000.0001)  cg2d: iter=    20 ; resid.=  1.24380873918656E-02
(PID.TID 0000.0001)  cg2d: iter=    21 ; resid.=  1.11174493153487E-02
(PID.TID 0000.0001)  cg2d: iter=    22 ; resid.=  1.00185292802521E-02
(PID.TID 0000.0001)  cg2d: iter=    23 ; resid.=  8.05440963099189E-03
(PID.TID 0000.0001)  cg2d: iter=    24 ; resid.=  6.70929224823764E-03
(PID.TID 0000.0001)  cg2d: iter=    25 ; resid.=  4.96956357358750E-03
(PID.TID 0000.0001)  cg2d: iter=    26 ; resid.=  3.85469048712109E-03
(PID.TID 0000.0001)  cg2d: iter=    27 ; resid.=  2.95973320015068E-03
(PID.TID 0000.0001)  cg2d: iter=    28 ; resid.=  2.34883915543758E-03
(PID.TID 0000.0001)  cg2d: iter=    29 ; resid.=  1.90956965631793E-03
(PID.TID 0000.0001)  cg2d: iter=    30 ; resid.=  1.63332535351306E-03
(PID.TID 0000.0001)  cg2d: iter=    31 ; resid.=  1.33604900233200E-03
(PID.TID 0000.0001)  cg2d: iter=    32 ; resid.=  9.97857912334869E-04
(PID.TID 0000.0001)  cg2d: iter=    33 ; resid.=  8.36034158025742E-04
(PID.TID 0000.0001)  cg2d: iter=    34 ; resid.=  7.48211145556042E-04
(PID.TID 0000.0001)  cg2d: iter=    35 ; resid.=  6.24012772195459E-04
(PID.TID 0000.0001)  cg2d: iter=    36 ; resid.=  5.23773925448900E-04
(PID.TID 0000.0001)  cg2d: iter=    37 ; resid.=  4.33547920415142E-04
(PID.TID 0000.0001)  cg2d: iter=    38 ; resid.=  3.68778563991532E-04
(PID.TID 0000.0001)  cg2d: iter=    39 ; resid.=  3.05657022070553E-04
(PID.TID 0000.0001)  cg2d: iter=    40 ; resid.=  2.57010703851306E-04
(PID.TID 0000.0001)  cg2d: iter=    41 ; resid.=  2.06697661946748E-04
(PID.TID 0000.0001)  cg2d: iter=    42 ; resid.=  1.74366018283263E-04
(PID.TID 0000.0001)  cg2d: iter=    43 ; resid.=  1.35849006811758E-04
(PID.TID 0000.0001)  cg2d: iter=    44 ; resid.=  1.06841572843883E-04
(PID.TID 0000.0001)  cg2d: iter=    45 ; resid.=  9.06410850809840E-05
(PID.TID 0000.0001)  cg2d: iter=    46 ; resid.=  6.92637727444194E-05
(PID.TID 0000.0001)  cg2d: iter=    47 ; resid.=  5.70359290717284E-05
(PID.TID 0000.0001)  cg2d: iter=    48 ; resid.=  4.75978795439755E-05
(PID.TID 0000.0001)  cg2d: iter=    49 ; resid.=  4.06892386313864E-05
(PID.TID 0000.0001)  cg2d: iter=    50 ; resid.=  3.52807142560139E-05
(PID.TID 0000.0001)  cg2d: iter=    51 ; resid.=  3.18774258906123E-05
(PID.TID 0000.0001)  cg2d: iter=    52 ; resid.=  2.79563580267902E-05
(PID.TID 0000.0001)  cg2d: iter=    53 ; resid.=  2.41715595578558E-05
(PID.TID 0000.0001)  cg2d: iter=    54 ; resid.=  1.94536374901934E-05
(PID.TID 0000.0001)  cg2d: iter=    55 ; resid.=  1.68466424909040E-05
(PID.TID 0000.0001)  cg2d: iter=    56 ; resid.=  1.45292208341614E-05
(PID.TID 0000.0001)  cg2d: iter=    57 ; resid.=  1.17902457516094E-05
(PID.TID 0000.0001)  cg2d: iter=    58 ; resid.=  9.48095700594968E-06
(PID.TID 0000.0001)  cg2d: iter=    59 ; resid.=  7.10070460310755E-06
(PID.TID 0000.0001)  cg2d: iter=    60 ; resid.=  5.78041657346145E-06
(PID.TID 0000.0001)  cg2d: iter=    61 ; resid.=  4.95794256077833E-06
(PID.TID 0000.0001)  cg2d: iter=    62 ; resid.=  4.21950440741958E-06
(PID.TID 0000.0001)  cg2d: iter=    63 ; resid.=  3.69596883357614E-06
(PID.TID 0000.0001)  cg2d: iter=    64 ; resid.=  2.97723928924956E-06
(PID.TID 0000.0001)  cg2d: iter=    65 ; resid.=  2.41384381214652E-06
(PID.TID 0000.0001)  cg2d: iter=    66 ; resid.=  1.97190622414458E-06
(PID.TID 0000.0001)  cg2d: iter=    67 ; resid.=  1.71633307485674E-06
(PID.TID 0000.0001)  cg2d: iter=    68 ; resid.=  1.59156238266340E-06
(PID.TID 0000.0001)  cg2d: iter=    69 ; resid.=  1.37089314409486E-06
(PID.TID 0000.0001)  cg2d: iter=    70 ; resid.=  1.16066418912690E-06
(PID.TID 0000.0001)  cg2d: iter=    71 ; resid.=  9.61234696875005E-07
(PID.TID 0000.0001)  cg2d: iter=    72 ; resid.=  8.39800888745035E-07
(PID.TID 0000.0001)  cg2d: iter=    73 ; resid.=  7.50562795256479E-07
(PID.TID 0000.0001)  cg2d: iter=    74 ; resid.=  6.48320099955091E-07
(PID.TID 0000.0001)  cg2d: iter=    75 ; resid.=  5.33714150786949E-07
(PID.TID 0000.0001)  cg2d: iter=    76 ; resid.=  4.29027406590203E-07
(PID.TID 0000.0001)  cg2d: iter=    77 ; resid.=  3.45012399166849E-07
(PID.TID 0000.0001)  cg2d: iter=    78 ; resid.=  2.67873779675683E-07
(PID.TID 0000.0001)  cg2d: iter=    79 ; resid.=  2.07282798494236E-07
(PID.TID 0000.0001)  cg2d: iter=    80 ; resid.=  1.49981608327245E-07
(PID.TID 0000.0001)  cg2d: iter=    81 ; resid.=  1.09382576956127E-07
(PID.TID 0000.0001)  cg2d: iter=    82 ; resid.=  7.77349743566623E-08
(PID.TID 0000.0001)  cg2d: iter=    83 ; resid.=  5.73531576286817E-08
(PID.TID 0000.0001)  cg2d: iter=    84 ; resid.=  4.29271663799547E-08
(PID.TID 0000.0001)  cg2d: iter=    85 ; resid.=  3.12458809985755E-08
(PID.TID 0000.0001)  cg2d: iter=    86 ; resid.=  2.41312048507585E-08
(PID.TID 0000.0001)  cg2d: iter=    87 ; resid.=  1.96097192088777E-08
(PID.TID 0000.0001)  cg2d: iter=    88 ; resid.=  1.62267959656395E-08
(PID.TID 0000.0001)  cg2d: iter=    89 ; resid.=  1.52193303889153E-08
(PID.TID 0000.0001)  cg2d: iter=    90 ; resid.=  1.25900659360082E-08
(PID.TID 0000.0001)  cg2d: iter=    91 ; resid.=  1.01285045147933E-08
(PID.TID 0000.0001)  cg2d: iter=    92 ; resid.=  8.42208505555745E-09
(PID.TID 0000.0001)  cg2d: iter=    93 ; resid.=  6.56874737023331E-09
(PID.TID 0000.0001)  cg2d: iter=    94 ; resid.=  5.15975014260393E-09
(PID.TID 0000.0001)  cg2d: iter=    95 ; resid.=  4.22659223198276E-09
(PID.TID 0000.0001)  cg2d: iter=    96 ; resid.=  3.22254378384632E-09
(PID.TID 0000.0001)  cg2d: iter=    97 ; resid.=  2.48582674736334E-09
(PID.TID 0000.0001)  cg2d: iter=    98 ; resid.=  2.14899350688020E-09
(PID.TID 0000.0001)  cg2d: iter=    99 ; resid.=  1.85005384357487E-09
(PID.TID 0000.0001)  cg2d: iter=   100 ; resid.=  1.64581597120908E-09
(PID.TID 0000.0001)  cg2d: iter=   101 ; resid.=  1.25305787172037E-09
(PID.TID 0000.0001)  cg2d: iter=   102 ; resid.=  9.90362675579398E-10
(PID.TID 0000.0001)  cg2d: iter=   103 ; resid.=  7.69605148945958E-10
(PID.TID 0000.0001)  cg2d: iter=   104 ; resid.=  6.10728992767586E-10
(PID.TID 0000.0001)  cg2d: iter=   105 ; resid.=  4.66130738465068E-10
(PID.TID 0000.0001)  cg2d: iter=   106 ; resid.=  3.71689295557507E-10
(PID.TID 0000.0001)  cg2d: iter=   107 ; resid.=  2.63630336675615E-10
(PID.TID 0000.0001)  cg2d: iter=   108 ; resid.=  1.89727280856009E-10
(PID.TID 0000.0001)  cg2d: iter=   109 ; resid.=  1.40387647500568E-10
(PID.TID 0000.0001)  cg2d: iter=   110 ; resid.=  1.04786680585786E-10
(PID.TID 0000.0001)  cg2d: iter=   111 ; resid.=  8.31356312064372E-11
(PID.TID 0000.0001)  cg2d: iter=   112 ; resid.=  6.39467438935404E-11
(PID.TID 0000.0001)  cg2d: iter=   113 ; resid.=  4.87051332036772E-11
(PID.TID 0000.0001)  cg2d: iter=   114 ; resid.=  3.77941199528865E-11
(PID.TID 0000.0001)  cg2d: iter=   115 ; resid.=  2.99775929188387E-11
(PID.TID 0000.0001)  cg2d: iter=   116 ; resid.=  2.38030938875722E-11
(PID.TID 0000.0001)  cg2d: iter=   117 ; resid.=  1.97035186684839E-11
(PID.TID 0000.0001)  cg2d: iter=   118 ; resid.=  1.45815744612849E-11
(PID.TID 0000.0001)  cg2d: iter=   119 ; resid.=  1.06926612976752E-11
(PID.TID 0000.0001)  cg2d: iter=   120 ; resid.=  8.31260716533953E-12
(PID.TID 0000.0001)  cg2d: iter=   121 ; resid.=  6.04383016072396E-12
(PID.TID 0000.0001)  cg2d: iter=   122 ; resid.=  4.46165893358223E-12
(PID.TID 0000.0001)  cg2d: iter=   123 ; resid.=  3.50769689575929E-12
(PID.TID 0000.0001)  cg2d: iter=   124 ; resid.=  2.80839207952184E-12
(PID.TID 0000.0001)  cg2d: iter=   125 ; resid.=  2.06668012872734E-12
(PID.TID 0000.0001)  cg2d: iter=   126 ; resid.=  1.42257073168987E-12
(PID.TID 0000.0001)  cg2d: iter=   127 ; resid.=  9.15861902747661E-13
(PID.TID 0000.0001)  cg2d: iter=   128 ; resid.=  6.57383572145564E-13
(PID.TID 0000.0001)  cg2d: iter=   129 ; resid.=  4.40887101505669E-13
(PID.TID 0000.0001)  cg2d: iter=   130 ; resid.=  3.04120472300693E-13
(PID.TID 0000.0001)  cg2d: iter=   131 ; resid.=  2.19410836678979E-13
(PID.TID 0000.0001)  cg2d: iter=   132 ; resid.=  1.61956059914812E-13
(PID.TID 0000.0001)  cg2d: iter=   133 ; resid.=  1.30023845668807E-13
(PID.TID 0000.0001)  cg2d: iter=   134 ; resid.=  1.09923856058520E-13
(PID.TID 0000.0001)  cg2d: iter=   135 ; resid.=  9.07810055209258E-14
DEBUG_STATS_RL:    cg2d_x (SOLVE_FOR_PRESSURE)  min= -1.97728469729240E+01
DEBUG_STATS_RL:    cg2d_x (SOLVE_FOR_PRESSURE)  max=  9.59560124020292E+00
DEBUG_STATS_RL:    cg2d_x (SOLVE_FOR_PRESSURE) mean= -1.84529472581813E+00
DEBUG_STATS_RL:    cg2d_x (SOLVE_FOR_PRESSURE) S.D.=  7.76803497373863E+00
(PID.TID 0000.0001)      cg2d_init_res =   3.94503177795044E-01
(PID.TID 0000.0001)      cg2d_iters(min,last) =      -1     135
(PID.TID 0000.0001)      cg2d_last_res =   9.07810055209258E-14
(PID.TID 0000.0001) // =======================================================
(PID.TID 0000.0001) // Begin MONITOR dynamic field statistics
(PID.TID 0000.0001) // =======================================================
(PID.TID 0000.0001) %MON time_tsnumber                =                    69
(PID.TID 0000.0001) %MON time_secondsf                =   5.9616000000000E+06
(PID.TID 0000.0001) %MON dynstat_eta_max              =   9.7814487667718E-01
(PID.TID 0000.0001) %MON dynstat_eta_min              =  -2.0155807311847E+00
(PID.TID 0000.0001) %MON dynstat_eta_mean             =  -4.9824529477654E-03
(PID.TID 0000.0001) %MON dynstat_eta_sd               =   6.8658790677208E-01
(PID.TID 0000.0001) %MON dynstat_eta_del2             =   2.4507092707107E-03
(PID.TID 0000.0001) %MON dynstat_uvel_max             =   1.7863783659210E-01
(PID.TID 0000.0001) %MON dynstat_uvel_min             =  -1.4622992300538E-01
(PID.TID 0000.0001) %MON dynstat_uvel_mean            =   2.5970201079922E-03
(PID.TID 0000.0001) %MON dynstat_uvel_sd              =   2.0931605913993E-02
(PID.TID 0000.0001) %MON dynstat_uvel_del2            =   1.3930217978482E-04
(PID.TID 0000.0001) %MON dynstat_vvel_max             =   1.6264262877535E-01
(PID.TID 0000.0001) %MON dynstat_vvel_min             =  -1.2981270765709E-01
(PID.TID 0000.0001) %MON dynstat_vvel_mean            =  -1.2858626558202E-04
(PID.TID 0000.0001) %MON dynstat_vvel_sd              =   1.0854638295355E-02
(PID.TID 0000.0001) %MON dynstat_vvel_del2            =   9.3249264715201E-05
(PID.TID 0000.0001) %MON dynstat_wvel_max             =   1.2713639161847E-04
(PID.TID 0000.0001) %MON dynstat_wvel_min             =  -1.2520783688098E-04
(PID.TID 0000.0001) %MON dynstat_wvel_mean            =   5.4589876462193E-24
(PID.TID 0000.0001) %MON dynstat_wvel_sd              =   1.5942880339725E-05
(PID.TID 0000.0001) %MON dynstat_wvel_del2            =   1.5291205009474E-07
(PID.TID 0000.0001) %MON dynstat_theta_max            =   3.0802188575130E+01
(PID.TID 0000.0001) %MON dynstat_theta_min            =  -1.9522614655601E+00
(PID.TID 0000.0001) %MON dynstat_theta_mean           =   3.6534738743847E+00
(PID.TID 0000.0001) %MON dynstat_theta_sd             =   4.4253197355580E+00
(PID.TID 0000.0001) %MON dynstat_theta_del2           =   4.9266912429401E-03
(PID.TID 0000.0001) %MON dynstat_salt_max             =   3.7497371538232E+01
(PID.TID 0000.0001) %MON dynstat_salt_min             =   2.9928050522302E+01
(PID.TID 0000.0001) %MON dynstat_salt_mean            =   3.4747991450381E+01
(PID.TID 0000.0001) %MON dynstat_salt_sd              =   2.9647873364437E-01
(PID.TID 0000.0001) %MON dynstat_salt_del2            =   9.9342525051351E-04
(PID.TID 0000.0001) %MON dynstat_sst_max              =   3.0802188575130E+01
(PID.TID 0000.0001) %MON dynstat_sst_min              =  -1.9522614655601E+00
(PID.TID 0000.0001) %MON dynstat_sst_mean             =   1.9066129606274E+01
(PID.TID 0000.0001) %MON dynstat_sst_sd               =   9.1043454750773E+00
(PID.TID 0000.0001) %MON dynstat_sst_del2             =   2.8411729981222E-02
(PID.TID 0000.0001) %MON dynstat_sss_max              =   3.7479844978497E+01
(PID.TID 0000.0001) %MON dynstat_sss_min              =   2.9928050522302E+01
(PID.TID 0000.0001) %MON dynstat_sss_mean             =   3.4869077229854E+01
(PID.TID 0000.0001) %MON dynstat_sss_sd               =   9.8370345756842E-01
(PID.TID 0000.0001) %MON dynstat_sss_del2             =   8.1032043571597E-03
(PID.TID 0000.0001) %MON forcing_qnet_max             =   2.9409475199382E+02
(PID.TID 0000.0001) %MON forcing_qnet_min             =  -1.6595054575602E+02
(PID.TID 0000.0001) %MON forcing_qnet_mean            =  -8.8284424875309E+00
(PID.TID 0000.0001) %MON forcing_qnet_sd              =   5.1556716411678E+01
(PID.TID 0000.0001) %MON forcing_qnet_del2            =   8.6047167969994E-01
(PID.TID 0000.0001) %MON forcing_qsw_max              =   0.0000000000000E+00
(PID.TID 0000.0001) %MON forcing_qsw_min              =   0.0000000000000E+00
(PID.TID 0000.0001) %MON forcing_qsw_mean             =   0.0000000000000E+00
(PID.TID 0000.0001) %MON forcing_qsw_sd               =   0.0000000000000E+00
(PID.TID 0000.0001) %MON forcing_qsw_del2             =   0.0000000000000E+00
(PID.TID 0000.0001) %MON forcing_empmr_max            =   6.9149116181203E-05
(PID.TID 0000.0001) %MON forcing_empmr_min            =  -8.0470160431408E-05
(PID.TID 0000.0001) %MON forcing_empmr_mean           =   6.4234056979919E-07
(PID.TID 0000.0001) %MON forcing_empmr_sd             =   2.6492034709442E-05
(PID.TID 0000.0001) %MON forcing_empmr_del2           =   3.5902970702507E-07
(PID.TID 0000.0001) %MON forcing_fu_max               =   3.4396148622036E-01
(PID.TID 0000.0001) %MON forcing_fu_min               =  -3.4395158787568E-01
(PID.TID 0000.0001) %MON forcing_fu_mean              =   1.9797332174179E-02
(PID.TID 0000.0001) %MON forcing_fu_sd                =   9.8445033933998E-02
(PID.TID 0000.0001) %MON forcing_fu_del2              =   7.6829958802129E-04
(PID.TID 0000.0001) %MON forcing_fv_max               =   1.5652424618602E-01
(PID.TID 0000.0001) %MON forcing_fv_min               =  -1.8284709403912E-01
(PID.TID 0000.0001) %MON forcing_fv_mean              =  -7.4565769902582E-03
(PID.TID 0000.0001) %MON forcing_fv_sd                =   4.1818730949016E-02
(PID.TID 0000.0001) %MON forcing_fv_del2              =   4.7523888340989E-04
(PID.TID 0000.0001) %MON trAdv_CFL_u_max              =   5.4976379501995E-02
(PID.TID 0000.0001) %MON trAdv_CFL_v_max              =   3.1170689280892E-02
(PID.TID 0000.0001) %MON trAdv_CFL_w_max              =   5.5279015546140E-02
(PID.TID 0000.0001) %MON advcfl_uvel_max              =   5.3993677103264E-02
(PID.TID 0000.0001) %MON advcfl_vvel_max              =   3.1598854296892E-02
(PID.TID 0000.0001) %MON advcfl_wvel_max              =   6.2755163023099E-02
(PID.TID 0000.0001) %MON advcfl_W_hf_max              =   7.3961442134366E-02
(PID.TID 0000.0001) %MON pe_b_mean                    =   6.0324866519608E-04
(PID.TID 0000.0001) %MON ke_max                       =   1.7796337748374E-02
(PID.TID 0000.0001) %MON ke_mean                      =   2.5501759967324E-04
(PID.TID 0000.0001) %MON ke_vol                       =   1.3226782436723E+18
(PID.TID 0000.0001) %MON vort_r_min                   =  -3.9101008502950E-07
(PID.TID 0000.0001) %MON vort_r_max                   =   6.9369275033767E-07
(PID.TID 0000.0001) %MON vort_a_mean                  =  -2.5274806609765E-05
(PID.TID 0000.0001) %MON vort_a_sd                    =   7.3604715379322E-05
(PID.TID 0000.0001) %MON vort_p_mean                  =  -3.1845654807007E-05
(PID.TID 0000.0001) %MON vort_p_sd                    =   1.3162447260845E-04
(PID.TID 0000.0001) %MON surfExpan_theta_mean         =   1.3253428079219E-06
(PID.TID 0000.0001) %MON surfExpan_salt_mean          =  -3.5487577652197E-07
(PID.TID 0000.0001) // =======================================================
(PID.TID 0000.0001) // End MONITOR dynamic field statistics
(PID.TID 0000.0001) // =======================================================
 EXTERNAL_FIELDS_LOAD,        69 : iP,iLd,i0,i1=    2    3    2    3 ; Wght=  0.2000000000  0.8000000000
 EXTERNAL_FIELDS_LOAD: (fu0,1),fu,fv= -1.4435E-02 -2.7199E-02 -2.4646E-02 -3.9896E-03
 EXTERNAL_FIELDS_LOAD: SST,SSS,Q,E-P= -2.5350E-01  3.4548E+01  2.2041E+02  8.9401E-06
DEBUG_STATS_RL:          Uvel (THERMODYNAMICS)  min= -1.46229923005385E-01
DEBUG_STATS_RL:          Uvel (THERMODYNAMICS)  max=  1.78637836592100E-01
DEBUG_STATS_RL:          Uvel (THERMODYNAMICS) mean=  6.35895627876528E-03
DEBUG_STATS_RL:          Uvel (THERMODYNAMICS) S.D.=  2.74128203957229E-02
DEBUG_STATS_RL:          Vvel (THERMODYNAMICS)  min= -1.29812707657094E-01
DEBUG_STATS_RL:          Vvel (THERMODYNAMICS)  max=  1.62642628775354E-01
DEBUG_STATS_RL:          Vvel (THERMODYNAMICS) mean=  2.30484224396643E-04
DEBUG_STATS_RL:          Vvel (THERMODYNAMICS) S.D.=  1.55448665189004E-02
DEBUG_STATS_RL:          Wvel (THERMODYNAMICS)  min= -1.25207836880981E-04
DEBUG_STATS_RL:          Wvel (THERMODYNAMICS)  max=  1.27136391618466E-04
DEBUG_STATS_RL:          Wvel (THERMODYNAMICS) mean= -1.57971887668875E-07
DEBUG_STATS_RL:          Wvel (THERMODYNAMICS) S.D.=  1.36595563120085E-05
DEBUG_STATS_RL:         Theta (THERMODYNAMICS)  min= -1.95209507257521E+00
DEBUG_STATS_RL:         Theta (THERMODYNAMICS)  max=  3.08183519886723E+01
DEBUG_STATS_RL:         Theta (THERMODYNAMICS) mean=  3.25084820830066E+00
DEBUG_STATS_RL:         Theta (THERMODYNAMICS) S.D.=  5.88187003068973E+00
DEBUG_STATS_RL:          Salt (THERMODYNAMICS)  min=  3.00000000000000E-02
DEBUG_STATS_RL:          Salt (THERMODYNAMICS)  max=  3.74974213130068E+01
DEBUG_STATS_RL:          Salt (THERMODYNAMICS) mean=  1.88747584233658E+01
DEBUG_STATS_RL:          Salt (THERMODYNAMICS) S.D.=  1.73002997342000E+01
DEBUG_STATS_RL:         GtNm1 (THERMODYNAMICS)  min= -2.04551014528265E-06
DEBUG_STATS_RL:         GtNm1 (THERMODYNAMICS)  max=  1.84173588553222E-06
DEBUG_STATS_RL:         GtNm1 (THERMODYNAMICS) mean=  2.65781569959396E-09
DEBUG_STATS_RL:         GtNm1 (THERMODYNAMICS) S.D.=  1.69726262692218E-07
DEBUG_STATS_RL:         GsNm1 (THERMODYNAMICS)  min= -3.60809107817991E-07
DEBUG_STATS_RL:         GsNm1 (THERMODYNAMICS)  max=  2.48052741294862E-07
DEBUG_STATS_RL:         GsNm1 (THERMODYNAMICS) mean= -1.35789346834262E-11
DEBUG_STATS_RL:         GsNm1 (THERMODYNAMICS) S.D.=  1.58170881916594E-08
DEBUG_STATS_RL:                EtaN (DYNAMICS)  min= -2.01558073118468E+00
DEBUG_STATS_RL:                EtaN (DYNAMICS)  max=  9.78144876677176E-01
DEBUG_STATS_RL:                EtaN (DYNAMICS) mean= -1.88103437901948E-01
DEBUG_STATS_RL:                EtaN (DYNAMICS) S.D.=  7.91848621176213E-01
DEBUG_STATS_RL:                Uvel (DYNAMICS)  min= -1.46229923005385E-01
DEBUG_STATS_RL:                Uvel (DYNAMICS)  max=  1.78637836592100E-01
DEBUG_STATS_RL:                Uvel (DYNAMICS) mean=  6.35895627876528E-03
DEBUG_STATS_RL:                Uvel (DYNAMICS) S.D.=  2.74128203957229E-02
DEBUG_STATS_RL:                Vvel (DYNAMICS)  min= -1.29812707657094E-01
DEBUG_STATS_RL:                Vvel (DYNAMICS)  max=  1.62642628775354E-01
DEBUG_STATS_RL:                Vvel (DYNAMICS) mean=  2.30484224396643E-04
DEBUG_STATS_RL:                Vvel (DYNAMICS) S.D.=  1.55448665189004E-02
DEBUG_STATS_RL:                Wvel (DYNAMICS)  min= -1.25207836880981E-04
DEBUG_STATS_RL:                Wvel (DYNAMICS)  max=  1.27136391618466E-04
DEBUG_STATS_RL:                Wvel (DYNAMICS) mean= -1.57971887668875E-07
DEBUG_STATS_RL:                Wvel (DYNAMICS) S.D.=  1.36595563120085E-05
DEBUG_STATS_RL:               Theta (DYNAMICS)  min= -1.95209507257521E+00
DEBUG_STATS_RL:               Theta (DYNAMICS)  max=  3.08183519886723E+01
DEBUG_STATS_RL:               Theta (DYNAMICS) mean=  3.25084820830066E+00
DEBUG_STATS_RL:               Theta (DYNAMICS) S.D.=  5.88187003068973E+00
DEBUG_STATS_RL:                Salt (DYNAMICS)  min=  3.00000000000000E-02
DEBUG_STATS_RL:                Salt (DYNAMICS)  max=  3.74974213130068E+01
DEBUG_STATS_RL:                Salt (DYNAMICS) mean=  1.88747584233658E+01
DEBUG_STATS_RL:                Salt (DYNAMICS) S.D.=  1.73002997342000E+01
DEBUG_STATS_RL:                  Gu (DYNAMICS)  min= -1.44434629547663E-01
DEBUG_STATS_RL:                  Gu (DYNAMICS)  max=  1.58141926979185E-01
DEBUG_STATS_RL:                  Gu (DYNAMICS) mean=  6.23605235461848E-03
DEBUG_STATS_RL:                  Gu (DYNAMICS) S.D.=  2.77857724670305E-02
DEBUG_STATS_RL:                  Gv (DYNAMICS)  min= -9.93460908806996E-02
DEBUG_STATS_RL:                  Gv (DYNAMICS)  max=  1.63448154660363E-01
DEBUG_STATS_RL:                  Gv (DYNAMICS) mean=  3.28496241171040E-03
DEBUG_STATS_RL:                  Gv (DYNAMICS) S.D.=  1.64998957097087E-02
DEBUG_STATS_RL:               GuNm1 (DYNAMICS)  min= -1.08544820695336E-05
DEBUG_STATS_RL:               GuNm1 (DYNAMICS)  max=  9.45856793324851E-06
DEBUG_STATS_RL:               GuNm1 (DYNAMICS) mean=  8.50990885458871E-09
DEBUG_STATS_RL:               GuNm1 (DYNAMICS) S.D.=  1.21970165333605E-06
DEBUG_STATS_RL:               GvNm1 (DYNAMICS)  min= -1.04701178877206E-05
DEBUG_STATS_RL:               GvNm1 (DYNAMICS)  max=  1.55615535047305E-05
DEBUG_STATS_RL:               GvNm1 (DYNAMICS) mean=  7.44600229661813E-07
DEBUG_STATS_RL:               GvNm1 (DYNAMICS) S.D.=  2.65531214766391E-06
DEBUG_STATS_RL:               GtNm1 (DYNAMICS)  min= -2.04551014528265E-06
DEBUG_STATS_RL:               GtNm1 (DYNAMICS)  max=  1.84173588553222E-06
DEBUG_STATS_RL:               GtNm1 (DYNAMICS) mean=  2.65781569959396E-09
DEBUG_STATS_RL:               GtNm1 (DYNAMICS) S.D.=  1.69726262692218E-07
DEBUG_STATS_RL:               GsNm1 (DYNAMICS)  min= -3.60809107817991E-07
DEBUG_STATS_RL:               GsNm1 (DYNAMICS)  max=  2.48052741294862E-07
DEBUG_STATS_RL:               GsNm1 (DYNAMICS) mean= -1.35789346834262E-11
DEBUG_STATS_RL:               GsNm1 (DYNAMICS) S.D.=  1.58170881916594E-08
DEBUG_STATS_RL:    cg2d_b (SOLVE_FOR_PRESSURE)  min= -1.89296202755164E+04
DEBUG_STATS_RL:    cg2d_b (SOLVE_FOR_PRESSURE)  max=  2.64576803587887E+04
DEBUG_STATS_RL:    cg2d_b (SOLVE_FOR_PRESSURE) mean=  4.82566368883340E+00
DEBUG_STATS_RL:    cg2d_b (SOLVE_FOR_PRESSURE) S.D.=  4.07897192279557E+03
 cg2d: Sum(rhs),rhsMax =   4.22236994632779E-01  1.73781128443891E+00
(PID.TID 0000.0001)  cg2d: iter=     1 ; resid.=  2.89419201945689E-01
(PID.TID 0000.0001)  cg2d: iter=     2 ; resid.=  3.05136324120391E-01
(PID.TID 0000.0001)  cg2d: iter=     3 ; resid.=  2.88317690264809E-01
(PID.TID 0000.0001)  cg2d: iter=     4 ; resid.=  2.63313360725299E-01
(PID.TID 0000.0001)  cg2d: iter=     5 ; resid.=  2.63214510134899E-01
(PID.TID 0000.0001)  cg2d: iter=     6 ; resid.=  2.14887792112789E-01
(PID.TID 0000.0001)  cg2d: iter=     7 ; resid.=  1.56924633578336E-01
(PID.TID 0000.0001)  cg2d: iter=     8 ; resid.=  1.11671869710912E-01
(PID.TID 0000.0001)  cg2d: iter=     9 ; resid.=  8.41478504134839E-02
(PID.TID 0000.0001)  cg2d: iter=    10 ; resid.=  6.63992303735274E-02
(PID.TID 0000.0001)  cg2d: iter=    11 ; resid.=  5.97527558492982E-02
(PID.TID 0000.0001)  cg2d: iter=    12 ; resid.=  5.21023082253192E-02
(PID.TID 0000.0001)  cg2d: iter=    13 ; resid.=  4.35124045842551E-02
(PID.TID 0000.0001)  cg2d: iter=    14 ; resid.=  3.75402080431547E-02
(PID.TID 0000.0001)  cg2d: iter=    15 ; resid.=  3.02523297814413E-02
(PID.TID 0000.0001)  cg2d: iter=    16 ; resid.=  2.73510385319540E-02
(PID.TID 0000.0001)  cg2d: iter=    17 ; resid.=  2.40262046729399E-02
(PID.TID 0000.0001)  cg2d: iter=    18 ; resid.=  1.88671381816597E-02
(PID.TID 0000.0001)  cg2d: iter=    19 ; resid.=  1.48798200895972E-02
(PID.TID 0000.0001)  cg2d: iter=    20 ; resid.=  1.20199601507524E-02
(PID.TID 0000.0001)  cg2d: iter=    21 ; resid.=  1.07524614689883E-02
(PID.TID 0000.0001)  cg2d: iter=    22 ; resid.=  9.67756120179400E-03
(PID.TID 0000.0001)  cg2d: iter=    23 ; resid.=  7.85852446837331E-03
(PID.TID 0000.0001)  cg2d: iter=    24 ; resid.=  6.68619412827629E-03
(PID.TID 0000.0001)  cg2d: iter=    25 ; resid.=  4.97169611330370E-03
(PID.TID 0000.0001)  cg2d: iter=    26 ; resid.=  3.84636802389465E-03
(PID.TID 0000.0001)  cg2d: iter=    27 ; resid.=  2.91289816263310E-03
(PID.TID 0000.0001)  cg2d: iter=    28 ; resid.=  2.29245692281034E-03
(PID.TID 0000.0001)  cg2d: iter=    29 ; resid.=  1.84958886034111E-03
(PID.TID 0000.0001)  cg2d: iter=    30 ; resid.=  1.59969333344455E-03
(PID.TID 0000.0001)  cg2d: iter=    31 ; resid.=  1.33059228438697E-03
(PID.TID 0000.0001)  cg2d: iter=    32 ; resid.=  1.00401731650369E-03
(PID.TID 0000.0001)  cg2d: iter=    33 ; resid.=  8.60705886584751E-04
(PID.TID 0000.0001)  cg2d: iter=    34 ; resid.=  7.67471626733280E-04
(PID.TID 0000.0001)  cg2d: iter=    35 ; resid.=  6.35566191473935E-04
(PID.TID 0000.0001)  cg2d: iter=    36 ; resid.=  5.36219694338389E-04
(PID.TID 0000.0001)  cg2d: iter=    37 ; resid.=  4.43386001474231E-04
(PID.TID 0000.0001)  cg2d: iter=    38 ; resid.=  3.80095372028990E-04
(PID.TID 0000.0001)  cg2d: iter=    39 ; resid.=  3.16183524925085E-04
(PID.TID 0000.0001)  cg2d: iter=    40 ; resid.=  2.73171714713082E-04
(PID.TID 0000.0001)  cg2d: iter=    41 ; resid.=  2.22891298597084E-04
(PID.TID 0000.0001)  cg2d: iter=    42 ; resid.=  1.89708752210512E-04
(PID.TID 0000.0001)  cg2d: iter=    43 ; resid.=  1.47680079418276E-04
(PID.TID 0000.0001)  cg2d: iter=    44 ; resid.=  1.16502658247013E-04
(PID.TID 0000.0001)  cg2d: iter=    45 ; resid.=  9.85398320560735E-05
(PID.TID 0000.0001)  cg2d: iter=    46 ; resid.=  7.64787173106187E-05
(PID.TID 0000.0001)  cg2d: iter=    47 ; resid.=  6.57449295623361E-05
(PID.TID 0000.0001)  cg2d: iter=    48 ; resid.=  5.61572023107961E-05
(PID.TID 0000.0001)  cg2d: iter=    49 ; resid.=  4.92929243325569E-05
(PID.TID 0000.0001)  cg2d: iter=    50 ; resid.=  4.40577697555947E-05
(PID.TID 0000.0001)  cg2d: iter=    51 ; resid.=  3.97592753481986E-05
(PID.TID 0000.0001)  cg2d: iter=    52 ; resid.=  3.43468709349138E-05
(PID.TID 0000.0001)  cg2d: iter=    53 ; resid.=  2.87863185570109E-05
(PID.TID 0000.0001)  cg2d: iter=    54 ; resid.=  2.23664341181594E-05
(PID.TID 0000.0001)  cg2d: iter=    55 ; resid.=  1.89637049422322E-05
(PID.TID 0000.0001)  cg2d: iter=    56 ; resid.=  1.65330523501136E-05
(PID.TID 0000.0001)  cg2d: iter=    57 ; resid.=  1.37402844790521E-05
(PID.TID 0000.0001)  cg2d: iter=    58 ; resid.=  1.10771720138414E-05
(PID.TID 0000.0001)  cg2d: iter=    59 ; resid.=  8.48154031161933E-06
(PID.TID 0000.0001)  cg2d: iter=    60 ; resid.=  6.85697439192518E-06
(PID.TID 0000.0001)  cg2d: iter=    61 ; resid.=  5.80530043331765E-06
(PID.TID 0000.0001)  cg2d: iter=    62 ; resid.=  4.90788215818578E-06
(PID.TID 0000.0001)  cg2d: iter=    63 ; resid.=  4.32826741755844E-06
(PID.TID 0000.0001)  cg2d: iter=    64 ; resid.=  3.48221264092791E-06
(PID.TID 0000.0001)  cg2d: iter=    65 ; resid.=  2.82418244727298E-06
(PID.TID 0000.0001)  cg2d: iter=    66 ; resid.=  2.33949551747966E-06
(PID.TID 0000.0001)  cg2d: iter=    67 ; resid.=  2.02437655386855E-06
(PID.TID 0000.0001)  cg2d: iter=    68 ; resid.=  1.81356483429221E-06
(PID.TID 0000.0001)  cg2d: iter=    69 ; resid.=  1.56416782462419E-06
(PID.TID 0000.0001)  cg2d: iter=    70 ; resid.=  1.28665367112419E-06
(PID.TID 0000.0001)  cg2d: iter=    71 ; resid.=  1.04171065772038E-06
(PID.TID 0000.0001)  cg2d: iter=    72 ; resid.=  9.11001144099638E-07
(PID.TID 0000.0001)  cg2d: iter=    73 ; resid.=  8.15871255667282E-07
(PID.TID 0000.0001)  cg2d: iter=    74 ; resid.=  6.90044062436701E-07
(PID.TID 0000.0001)  cg2d: iter=    75 ; resid.=  5.59112740803857E-07
(PID.TID 0000.0001)  cg2d: iter=    76 ; resid.=  4.48461483658254E-07
(PID.TID 0000.0001)  cg2d: iter=    77 ; resid.=  3.49430827390963E-07
(PID.TID 0000.0001)  cg2d: iter=    78 ; resid.=  2.66756169080099E-07
(PID.TID 0000.0001)  cg2d: iter=    79 ; resid.=  2.09966281830071E-07
(PID.TID 0000.0001)  cg2d: iter=    80 ; resid.=  1.52770673678733E-07
(PID.TID 0000.0001)  cg2d: iter=    81 ; resid.=  1.11515875333486E-07
(PID.TID 0000.0001)  cg2d: iter=    82 ; resid.=  7.91988852539556E-08
(PID.TID 0000.0001)  cg2d: iter=    83 ; resid.=  5.85177517038432E-08
(PID.TID 0000.0001)  cg2d: iter=    84 ; resid.=  4.28970582404446E-08
(PID.TID 0000.0001)  cg2d: iter=    85 ; resid.=  3.13280124338452E-08
(PID.TID 0000.0001)  cg2d: iter=    86 ; resid.=  2.45385382105311E-08
(PID.TID 0000.0001)  cg2d: iter=    87 ; resid.=  2.02281533244621E-08
(PID.TID 0000.0001)  cg2d: iter=    88 ; resid.=  1.69774082868019E-08
(PID.TID 0000.0001)  cg2d: iter=    89 ; resid.=  1.60818209368718E-08
(PID.TID 0000.0001)  cg2d: iter=    90 ; resid.=  1.32629928436599E-08
(PID.TID 0000.0001)  cg2d: iter=    91 ; resid.=  1.03140378801455E-08
(PID.TID 0000.0001)  cg2d: iter=    92 ; resid.=  8.32836462779265E-09
(PID.TID 0000.0001)  cg2d: iter=    93 ; resid.=  6.37574603500168E-09
(PID.TID 0000.0001)  cg2d: iter=    94 ; resid.=  4.92773538737060E-09
(PID.TID 0000.0001)  cg2d: iter=    95 ; resid.=  3.98071506808589E-09
(PID.TID 0000.0001)  cg2d: iter=    96 ; resid.=  3.05982578257293E-09
(PID.TID 0000.0001)  cg2d: iter=    97 ; resid.=  2.38983479171754E-09
(PID.TID 0000.0001)  cg2d: iter=    98 ; resid.=  2.11364599484226E-09
(PID.TID 0000.0001)  cg2d: iter=    99 ; resid.=  1.87296913097578E-09
(PID.TID 0000.0001)  cg2d: iter=   100 ; resid.=  1.72756523231836E-09
(PID.TID 0000.0001)  cg2d: iter=   101 ; resid.=  1.30794546826765E-09
(PID.TID 0000.0001)  cg2d: iter=   102 ; resid.=  1.02089105132530E-09
(PID.TID 0000.0001)  cg2d: iter=   103 ; resid.=  7.67694574132634E-10
(PID.TID 0000.0001)  cg2d: iter=   104 ; resid.=  5.81912796403049E-10
(PID.TID 0000.0001)  cg2d: iter=   105 ; resid.=  4.37505773561120E-10
(PID.TID 0000.0001)  cg2d: iter=   106 ; resid.=  3.47261435576671E-10
(PID.TID 0000.0001)  cg2d: iter=   107 ; resid.=  2.45598909346517E-10
(PID.TID 0000.0001)  cg2d: iter=   108 ; resid.=  1.80184723542475E-10
(PID.TID 0000.0001)  cg2d: iter=   109 ; resid.=  1.34827609309361E-10
(PID.TID 0000.0001)  cg2d: iter=   110 ; resid.=  1.01156097942054E-10
(PID.TID 0000.0001)  cg2d: iter=   111 ; resid.=  8.30680174280531E-11
(PID.TID 0000.0001)  cg2d: iter=   112 ; resid.=  6.59105245062948E-11
(PID.TID 0000.0001)  cg2d: iter=   113 ; resid.=  5.09731540726894E-11
(PID.TID 0000.0001)  cg2d: iter=   114 ; resid.=  3.98501383476957E-11
(PID.TID 0000.0001)  cg2d: iter=   115 ; resid.=  3.20776848446740E-11
(PID.TID 0000.0001)  cg2d: iter=   116 ; resid.=  2.49831010759820E-11
(PID.TID 0000.0001)  cg2d: iter=   117 ; resid.=  2.00204471120803E-11
(PID.TID 0000.0001)  cg2d: iter=   118 ; resid.=  1.44123816571746E-11
(PID.TID 0000.0001)  cg2d: iter=   119 ; resid.=  9.78980221043695E-12
(PID.TID 0000.0001)  cg2d: iter=   120 ; resid.=  6.96759671003466E-12
(PID.TID 0000.0001)  cg2d: iter=   121 ; resid.=  4.79265027927508E-12
(PID.TID 0000.0001)  cg2d: iter=   122 ; resid.=  3.37124590831946E-12
(PID.TID 0000.0001)  cg2d: iter=   123 ; resid.=  2.50102939273726E-12
(PID.TID 0000.0001)  cg2d: iter=   124 ; resid.=  2.01126358494787E-12
(PID.TID 0000.0001)  cg2d: iter=   125 ; resid.=  1.59016437259234E-12
(PID.TID 0000.0001)  cg2d: iter=   126 ; resid.=  1.15736491544820E-12
(PID.TID 0000.0001)  cg2d: iter=   127 ; resid.=  7.75378425910409E-13
(PID.TID 0000.0001)  cg2d: iter=   128 ; resid.=  5.77059524310451E-13
(PID.TID 0000.0001)  cg2d: iter=   129 ; resid.=  4.05282154086005E-13
(PID.TID 0000.0001)  cg2d: iter=   130 ; resid.=  2.91331735462216E-13
(PID.TID 0000.0001)  cg2d: iter=   131 ; resid.=  2.15197078324376E-13
(PID.TID 0000.0001)  cg2d: iter=   132 ; resid.=  1.60580989090001E-13
(PID.TID 0000.0001)  cg2d: iter=   133 ; resid.=  1.29746618669759E-13
(PID.TID 0000.0001)  cg2d: iter=   134 ; resid.=  1.09888677988270E-13
(PID.TID 0000.0001)  cg2d: iter=   135 ; resid.=  9.28487974797105E-14
DEBUG_STATS_RL:    cg2d_x (SOLVE_FOR_PRESSURE)  min= -2.03102087841061E+01
DEBUG_STATS_RL:    cg2d_x (SOLVE_FOR_PRESSURE)  max=  1.01746448397249E+01
DEBUG_STATS_RL:    cg2d_x (SOLVE_FOR_PRESSURE) mean= -1.90246171769046E+00
DEBUG_STATS_RL:    cg2d_x (SOLVE_FOR_PRESSURE) S.D.=  8.01146328373681E+00
(PID.TID 0000.0001)      cg2d_init_res =   3.92983734228678E-01
(PID.TID 0000.0001)      cg2d_iters(min,last) =      -1     135
(PID.TID 0000.0001)      cg2d_last_res =   9.28487974797105E-14
(PID.TID 0000.0001) // =======================================================
(PID.TID 0000.0001) // Begin MONITOR dynamic field statistics
(PID.TID 0000.0001) // =======================================================
(PID.TID 0000.0001) %MON time_tsnumber                =                    70
(PID.TID 0000.0001) %MON time_secondsf                =   6.0480000000000E+06
(PID.TID 0000.0001) %MON dynstat_eta_max              =   1.0371707278007E+00
(PID.TID 0000.0001) %MON dynstat_eta_min              =  -2.0703576742208E+00
(PID.TID 0000.0001) %MON dynstat_eta_mean             =  -5.0349816967540E-03
(PID.TID 0000.0001) %MON dynstat_eta_sd               =   7.1699088829886E-01
(PID.TID 0000.0001) %MON dynstat_eta_del2             =   2.4594970419367E-03
(PID.TID 0000.0001) %MON dynstat_uvel_max             =   1.7208488088252E-01
(PID.TID 0000.0001) %MON dynstat_uvel_min             =  -1.4504644329143E-01
(PID.TID 0000.0001) %MON dynstat_uvel_mean            =   2.5981610662674E-03
(PID.TID 0000.0001) %MON dynstat_uvel_sd              =   2.0870137204205E-02
(PID.TID 0000.0001) %MON dynstat_uvel_del2            =   1.3985949442523E-04
(PID.TID 0000.0001) %MON dynstat_vvel_max             =   1.6376805629151E-01
(PID.TID 0000.0001) %MON dynstat_vvel_min             =  -1.2296717272199E-01
(PID.TID 0000.0001) %MON dynstat_vvel_mean            =  -1.6807475439634E-04
(PID.TID 0000.0001) %MON dynstat_vvel_sd              =   1.0721848176606E-02
(PID.TID 0000.0001) %MON dynstat_vvel_del2            =   9.2772859352454E-05
(PID.TID 0000.0001) %MON dynstat_wvel_max             =   1.2541305008833E-04
(PID.TID 0000.0001) %MON dynstat_wvel_min             =  -1.2294711840123E-04
(PID.TID 0000.0001) %MON dynstat_wvel_mean            =   1.9943654447007E-22
(PID.TID 0000.0001) %MON dynstat_wvel_sd              =   1.5814146949453E-05
(PID.TID 0000.0001) %MON dynstat_wvel_del2            =   1.5090179545997E-07
(PID.TID 0000.0001) %MON dynstat_theta_max            =   3.0818351988672E+01
(PID.TID 0000.0001) %MON dynstat_theta_min            =  -1.9520950725752E+00
(PID.TID 0000.0001) %MON dynstat_theta_mean           =   3.6534915758897E+00
(PID.TID 0000.0001) %MON dynstat_theta_sd             =   4.4254385357475E+00
(PID.TID 0000.0001) %MON dynstat_theta_del2           =   4.9238472037669E-03
(PID.TID 0000.0001) %MON dynstat_salt_max             =   3.7497421313007E+01
(PID.TID 0000.0001) %MON dynstat_salt_min             =   2.9927837470200E+01
(PID.TID 0000.0001) %MON dynstat_salt_mean            =   3.4748000291332E+01
(PID.TID 0000.0001) %MON dynstat_salt_sd              =   2.9650261188965E-01
(PID.TID 0000.0001) %MON dynstat_salt_del2            =   9.9381371686380E-04
(PID.TID 0000.0001) %MON dynstat_sst_max              =   3.0818351988672E+01
(PID.TID 0000.0001) %MON dynstat_sst_min              =  -1.9520950725752E+00
(PID.TID 0000.0001) %MON dynstat_sst_mean             =   1.9070113105882E+01
(PID.TID 0000.0001) %MON dynstat_sst_sd               =   9.1098951682234E+00
(PID.TID 0000.0001) %MON dynstat_sst_del2             =   2.8478350908363E-02
(PID.TID 0000.0001) %MON dynstat_sss_max              =   3.7480817386340E+01
(PID.TID 0000.0001) %MON dynstat_sss_min              =   2.9927837470200E+01
(PID.TID 0000.0001) %MON dynstat_sss_mean             =   3.4869017062616E+01
(PID.TID 0000.0001) %MON dynstat_sss_sd               =   9.8402178340015E-01
(PID.TID 0000.0001) %MON dynstat_sss_del2             =   8.1166258127593E-03
(PID.TID 0000.0001) %MON forcing_qnet_max             =   2.9129660034180E+02
(PID.TID 0000.0001) %MON forcing_qnet_min             =  -1.6565126647949E+02
(PID.TID 0000.0001) %MON forcing_qnet_mean            =  -8.6051029879044E+00
(PID.TID 0000.0001) %MON forcing_qnet_sd              =   5.0688573492058E+01
(PID.TID 0000.0001) %MON forcing_qnet_del2            =   8.5873863831928E-01
(PID.TID 0000.0001) %MON forcing_qsw_max              =   0.0000000000000E+00
(PID.TID 0000.0001) %MON forcing_qsw_min              =   0.0000000000000E+00
(PID.TID 0000.0001) %MON forcing_qsw_mean             =   0.0000000000000E+00
(PID.TID 0000.0001) %MON forcing_qsw_sd               =   0.0000000000000E+00
(PID.TID 0000.0001) %MON forcing_qsw_del2             =   0.0000000000000E+00
(PID.TID 0000.0001) %MON forcing_empmr_max            =   6.9143359837653E-05
(PID.TID 0000.0001) %MON forcing_empmr_min            =  -8.0869340024492E-05
(PID.TID 0000.0001) %MON forcing_empmr_mean           =   6.2925063892483E-07
(PID.TID 0000.0001) %MON forcing_empmr_sd             =   2.6455536925131E-05
(PID.TID 0000.0001) %MON forcing_empmr_del2           =   3.5991612840969E-07
(PID.TID 0000.0001) %MON forcing_fu_max               =   3.4590290188789E-01
(PID.TID 0000.0001) %MON forcing_fu_min               =  -3.5032370686531E-01
(PID.TID 0000.0001) %MON forcing_fu_mean              =   1.9891531763637E-02
(PID.TID 0000.0001) %MON forcing_fu_sd                =   9.8919389593516E-02
(PID.TID 0000.0001) %MON forcing_fu_del2              =   7.7806315234272E-04
(PID.TID 0000.0001) %MON forcing_fv_max               =   1.6034940332174E-01
(PID.TID 0000.0001) %MON forcing_fv_min               =  -1.8434488475323E-01
(PID.TID 0000.0001) %MON forcing_fv_mean              =  -7.4670053402277E-03
(PID.TID 0000.0001) %MON forcing_fv_sd                =   4.1889461618814E-02
(PID.TID 0000.0001) %MON forcing_fv_del2              =   4.7843997600298E-04
(PID.TID 0000.0001) %MON trAdv_CFL_u_max              =   5.4004643605253E-02
(PID.TID 0000.0001) %MON trAdv_CFL_v_max              =   3.1470088350006E-02
(PID.TID 0000.0001) %MON trAdv_CFL_w_max              =   5.5844920476908E-02
(PID.TID 0000.0001) %MON advcfl_uvel_max              =   5.2013031897273E-02
(PID.TID 0000.0001) %MON advcfl_vvel_max              =   3.1817506813593E-02
(PID.TID 0000.0001) %MON advcfl_wvel_max              =   6.1230609590506E-02
(PID.TID 0000.0001) %MON advcfl_W_hf_max              =   7.2164647017382E-02
(PID.TID 0000.0001) %MON pe_b_mean                    =   6.5785456016940E-04
(PID.TID 0000.0001) %MON ke_max                       =   1.8149069322732E-02
(PID.TID 0000.0001) %MON ke_mean                      =   2.5257190064043E-04
(PID.TID 0000.0001) %MON ke_vol                       =   1.3226782436723E+18
(PID.TID 0000.0001) %MON vort_r_min                   =  -3.9334151493670E-07
(PID.TID 0000.0001) %MON vort_r_max                   =   6.8058754946173E-07
(PID.TID 0000.0001) %MON vort_a_mean                  =  -2.5274806455801E-05
(PID.TID 0000.0001) %MON vort_a_sd                    =   7.3604721301957E-05
(PID.TID 0000.0001) %MON vort_p_mean                  =  -3.1845654613016E-05
(PID.TID 0000.0001) %MON vort_p_sd                    =   1.3162467552555E-04
(PID.TID 0000.0001) %MON surfExpan_theta_mean         =   1.3244288488526E-06
(PID.TID 0000.0001) %MON surfExpan_salt_mean          =  -3.5070896868184E-07
(PID.TID 0000.0001) // =======================================================
(PID.TID 0000.0001) // End MONITOR dynamic field statistics
(PID.TID 0000.0001) // =======================================================
(PID.TID 0000.0001) // =======================================================
(PID.TID 0000.0001) // Field Current uVel   at iteration         70
(PID.TID 0000.0001) // CMIN =         -1.450464432914309E-01
(PID.TID 0000.0001) // CMAX =          1.720848808825235E-01
(PID.TID 0000.0001) // CINT =          1.174560459903535E-02
(PID.TID 0000.0001) // SYMBOLS (CMIN->CMAX): -abcdefghijklmnopqrstuvwxyz+
(PID.TID 0000.0001) //                  0.0: .
(PID.TID 0000.0001) // RANGE I (Lo:Hi:Step):(     1:    90:     1)
(PID.TID 0000.0001) // RANGE J (Lo:Hi:Step):(    40:     1:    -1)
(PID.TID 0000.0001) // RANGE K (Lo:Hi:Step):(   1:   1:   1)
(PID.TID 0000.0001) // =======================================================
(PID.TID 0000.0001) K =   1
(PID.TID 0000.0001)                I=10      I=20      I=30      I=40      I=50      I=60      I=70      I=80      I=90
(PID.TID 0000.0001) |--J--|123456789|123456789|123456789|123456789|123456789|123456789|123456789|123456789|123456789|
(PID.TID 0000.0001)     40 lllkl..lkklllllllll...................................................................llkl
(PID.TID 0000.0001)     39 mmnmkkjkkklkll....m......................................................lll.........kklmm
(PID.TID 0000.0001)     38 nnoommnnmmmmm............................................................mllm.......jjjklm
(PID.TID 0000.0001)     37 nnn...................................................................m....kl....klkk..llm
(PID.TID 0000.0001)     36 nn..........................................kll.....................lmmnnnnkik..kkkkkklkkm
(PID.TID 0000.0001)     35 mm..................................lll...lkjjjm....lmmm............mm.....kikljjlmmmmmmml
(PID.TID 0000.0001)     34 ....................................lkk..kkjjjkl..mkklllm...................nkjkmnoooonm..
(PID.TID 0000.0001)     33 .....................................kjjkkklllllmnnnmmmmllk..................kmnprrqqpoll.
(PID.TID 0000.0001)     32 .....................................jjklmmnooooooooonnnmml.................kmnnpqqpponmn.
(PID.TID 0000.0001)     31 .....................................lmnooopppppppoooonnnnm...............mrtqpqqqponnmm..
(PID.TID 0000.0001)     30 ....................................pqqppqqqqqqqppppppoonnm.............poqrrrqqqqponmlk..
(PID.TID 0000.0001)     29 ..................................qstsrqqqqqrrqppoppppoonmmm............srqqpoonnnmllkjj..
(PID.TID 0000.0001)     28 ................................oqqqqppppppqqqoommnnnnnmlkkll..........qponnnmlkkkjjiijk..
(PID.TID 0000.0001)     27 ...............l...............lmnnnnmlmnnnnnmmmlkkklllkkjjjkl....mmn..nnnnmmllkiiihhi....
(PID.TID 0000.0001)     26 ...............ml............ihjmmlllkklmmlmllklkjkllllllllllmmm..mnllmmnnnnnmmllkkkkk....
(PID.TID 0000.0001)     25 ...............onn....ml....mmmmqponmlllmmlmmmmmllmmnnnooopooooom....lmmqqqrqpppppoonm....
(PID.TID 0000.0001)     24 .............oonnnn..onl....oo..nommkkkkklllklllmnnnnnnnnnonnnmmmmmm..mknoqqpoppppnnoo....
(PID.TID 0000.0001)     23 .............lhhhik..khj....kl...ghgfeddfffffggiiiijjjjjkkkjiihhhhijl.....mmegijjjijln....
(PID.TID 0000.0001)     22 l............caaabccdddg....l..fccfdbb-acdccdddfggghijkmnlljiihhhhghhi.......jhfddfhjnopml
(PID.TID 0000.0001)     21 mmn.........feedbbccdgjjn......ggnnihheffhighhhijiihjkkmnmlklllmmmkjij.........jedhjlooonn
(PID.TID 0000.0001)     20 nmn........kjkmlkkjhjnpnm.........nnokhlmoonnnmmmmljjjkjkjiijlllmmljij..........ieikklmllm
(PID.TID 0000.0001)     19 lnn........ihijkmmljklnmklm....mm......nnpqqqqponlmkijiiihfeffffgggggh............jhhiihhi
(PID.TID 0000.0001)     18 hkn........gecefhhihijjihikkkkjlm....mommmnoooomkijkjiihggfeeddddddddfk...........jhggggff
(PID.TID 0000.0001)     17 hjl..........gghhfhikmkjjkkjjji......lklkklnomnnlihjjjjjhhhhggggggggggi..........lljhhghhg
(PID.TID 0000.0001)     16 kkk.......k..ljjijjjlmmlklmmll........lmllmppnnooljkkkllkjjkkkkkkkkllllk.........mmlkjjjkk
(PID.TID 0000.0001)     15 kkij.....no..onnnnllnnomlmnoo..........nnnoqppqqrpnnnnnnmmmmlllmnmmmmmllk.......onmmmlkkll
(PID.TID 0000.0001)     14 jhgg.....mlnqppqqqpponomlllln..........nnnpqpqrrsrpqqqqppppommmmmmllmljjk......nonooonmkkk
(PID.TID 0000.0001)     13 jihg.....kllmnooooponlmmkkjik..........mnnppqqqopppppqqppqpoonmllmmllkjjk.....jklmnnoonmlk
(PID.TID 0000.0001)     12 lkjihdchjlmmmmlmmmmmmmmmlkjjkllmmm.....lmnpponnmmnnmnnnnnonnnnmlllllkkkk......jkllmnooonml
(PID.TID 0000.0001)     11 nmmllkjlnpppppoonooonoonnmmmmmmmmmn...klmmo..oommlllmmmllmmmmmmllllmllll.....kmnnnnoopoonn
(PID.TID 0000.0001)     10 qqpppqrssuvwvuutttuusrrrrqqpppoonmmm..nnnno..ttonmlmmmmmmmmnnnnnoonnnnno...klnppqqqrrrrrrr
(PID.TID 0000.0001)      9 uuuuuuvvvxyywvwwvxyxwvuuvvuutssrrqqqqqqqpo..rvsqppoooooooooppppppqpppppp..qtrrsssttuuvvvvv
(PID.TID 0000.0001)      8 vwwxxwvvvwwvvuuuuxwvwxwwwwwwwvvvvvwwwwwvtty+wvtttttttsssttssrrrrrrrqqqqp..psqqrrrsttuuvvvv
(PID.TID 0000.0001)      7 stuutsrstsssssssstsrsttttuuuuuuuvvwxyyxxxwwvtttttuuvwwwvuutssssssssssstvusppppqqoopqrrrrss
(PID.TID 0000.0001)      6 ooooopppqqqqpppppppoooopqqqrrrsssssssttuvwvutssstttuvwwvutsrrrsssssttssssrqrrqqponnnoooooo
(PID.TID 0000.0001)      5 llllmnnnnnnmmmmmnnnnmmmmmmnnoooooooooopqrsttsrrrrssrrrqqqqqqqqqrrrrrrrrqqonnnmmmmmmmmmmmml
(PID.TID 0000.0001)      4 kjjkklllmlllllklllllllkjhhjkklllllmmmmmmmnoooppoooonnmmmnnoooooooooooonnmm...llllkkkkkkkkk
(PID.TID 0000.0001)      3 kkjkkkkkll.............................llllkklmmmllkkkkllllllllllmmllllll...lllkkkkkkjjkll
(PID.TID 0000.0001)      2 ...........................................lllmmmmmmmmmmmmmmmlll...lll......lmmmmmmmlmm...
(PID.TID 0000.0001)      1 ..........................................................................................
(PID.TID 0000.0001) // =======================================================
(PID.TID 0000.0001) // END OF FIELD                                          =
(PID.TID 0000.0001) // =======================================================
(PID.TID 0000.0001) 
(PID.TID 0000.0001) // =======================================================
(PID.TID 0000.0001) // Field Current vVel   at iteration         70
(PID.TID 0000.0001) // CMIN =         -1.078863246666513E-01
(PID.TID 0000.0001) // CMAX =          1.637680562915062E-01
(PID.TID 0000.0001) // CINT =          1.006127336882064E-02
(PID.TID 0000.0001) // SYMBOLS (CMIN->CMAX): -abcdefghijklmnopqrstuvwxyz+
(PID.TID 0000.0001) //                  0.0: .
(PID.TID 0000.0001) // RANGE I (Lo:Hi:Step):(     1:    90:     1)
(PID.TID 0000.0001) // RANGE J (Lo:Hi:Step):(    40:     1:    -1)
(PID.TID 0000.0001) // RANGE K (Lo:Hi:Step):(   1:   1:   1)
(PID.TID 0000.0001) // =======================================================
(PID.TID 0000.0001) K =   1
(PID.TID 0000.0001)                I=10      I=20      I=30      I=40      I=50      I=60      I=70      I=80      I=90
(PID.TID 0000.0001) |--J--|123456789|123456789|123456789|123456789|123456789|123456789|123456789|123456789|123456789|
(PID.TID 0000.0001)     40 jknon.gijkkllj...kk..................................................................jhhhh
(PID.TID 0000.0001)     39 jklllkkllllml...........................................................jjkk........ijijjj
(PID.TID 0000.0001)     38 klm.......................................................................jki......ig.lmkk
(PID.TID 0000.0001)     37 lm...................................................................kj...kjh...hjlkj.ijjj
(PID.TID 0000.0001)     36 ll.........................................lmll....................ill....jhhi.hehjiiiikkj
(PID.TID 0000.0001)     35 ...................................jklk..llllkji...kklml...................ggiiggiiiiilm..
(PID.TID 0000.0001)     34 ....................................kmn.kkjjkkkk.jjjjkmml...................efhikkkkjijl..
(PID.TID 0000.0001)     33 ....................................hlnmlkkjjkjiiiiijkkllmm.................dafkllllkihkl.
(PID.TID 0000.0001)     32 ....................................eijjkkjiijihhhhhiiiijkl................hfdillkkjjiik..
(PID.TID 0000.0001)     31 ....................................jihhhhhgggffffeefffgghj..............hjkihijiiiiijjj..
(PID.TID 0000.0001)     30 ...................................ligeeeedbcdddddcdddeeeef............okhhgffgggggijjjj..
(PID.TID 0000.0001)     29 .................................ljihfdcdecbcdefffffgggggfef...........ojgfffghiiiijjiij..
(PID.TID 0000.0001)     28 ...............................ooljiiihhiihhijjjjjjkkjjjjihgg.........mljjijjjjkkkkkki....
(PID.TID 0000.0001)     27 ..............jk..............kmlklmmmmmnnmlllllmmlllkkkkjiiii...kllo.kmllmlkjjklkkkkk....
(PID.TID 0000.0001)     26 ..............jmk...........hjmljjlmnmmmmmmlkkkkkkjjjjkkkkkkkkkl....nmmlhikkjijjkkjikk....
(PID.TID 0000.0001)     25 ..............opnj...jjk...kkk.mkkllllmmnnnnmmmmmllklmnnoooonmmlk....nljiklmnnnoonnnmk....
(PID.TID 0000.0001)     24 ............prtspki.mllk...nmm..oopqrsuvuutttsssrsssstuvwvusrpnmllll.....pqntuttuttspk....
(PID.TID 0000.0001)     23 ............otutrnn.lopp...lk...ilquwyz++yxxwwwvvuuuvvvvvvutronnmmmmm.......vtuuuutsrm....
(PID.TID 0000.0001)     22 j...........joqrrpnlknpr......hgffjoqruuutssssssrrrrsttuvuusqonnmmmmmk........nprtsrqnklml
(PID.TID 0000.0001)     21 kjj........mmoppnlkkklmml......f.cfhimrqnnnnnmmnonnnopqrrrrrqonnmmlljh.........jmsspnnmmml
(PID.TID 0000.0001)     20 hgj.......mnqqpmhghhhijgf......d......nkiijiihhiklkklklllkklmljjjjjjji...........tqnlllkji
(PID.TID 0000.0001)     19 ffh.......jmrqkeabdddefedgj...kjk.....mljjjiiiiijkmmmljiihhhgfeefgghii...........mlihhhgff
(PID.TID 0000.0001)     18 fgi.......h.pqjfdfghhgggghjklki.....kmpmnomklmmkklmnnmkjihhgfeeeefffghj..........klihgecde
(PID.TID 0000.0001)     17 hjj.......k.kokjigijjkjijkllli.......klklmlkmoonlkklnnnlkkkkjiihhhhghik.........gkkiihgfgg
(PID.TID 0000.0001)     16 mnn......kl.jkihfegjighijkkjl.........ijiihilmmljiijkkjijjjjjkkkjjkkklmm........fhiijkkkll
(PID.TID 0000.0001)     15 moom....mjj.ihfefefihefhikkjj.........igfeefghiihgghhihgghhhikkkjjkllmnnl......lgggghiijkl
(PID.TID 0000.0001)     14 lmmn....jikhghgfefhjiffikkjij.........jgggghgghhhhhggggghiiijllllklmmmnml.....mkhggghiikll
(PID.TID 0000.0001)     13 nmmn....ijnmjkkkjjlljijlnlkjk.........jikkljhhijjjjiiijjjkkklmmmnnmmnmmk.....fjlkkkjjkkmnn
(PID.TID 0000.0001)     12 onnmmigihknommnnmlmnmllmnmmmlkkkli....jkmmp.hhjkllkkjkkklllmmmmnoonnnnnk.....fkmlmmllmmnoo
(PID.TID 0000.0001)     11 nmmljiiiijmnkikkllkllllmmmmmlkllllj..hkllkn.fghjkkkkkkkllllllllmopommmmk....chmmlkkkjkklmn
(PID.TID 0000.0001)     10 llllkjjikmooliijllihiklllllllkkkjjkk.ikkkh..efghjjjjkjjkllllkkkmooommmmj..ihfimnmkjjhhijkl
(PID.TID 0000.0001)      9 kklmmljikmnonmkkprlijlmmmllllkjjjikmljjkli.qmjiijjjjjjjkklmmlklmoonnmmie.ronkknpnlkjiijklk
(PID.TID 0000.0001)      8 mmmmmlkklmmnonmlnsronnnnnnnmmlllkkmnmkjjlorsolllmllklllmnmnnmlmnooonnmg-.ytspoqsqnlkkklmnn
(PID.TID 0000.0001)      7 onmllllmmmmnnmmnnoqqqononnmmmnnnnnoomkjiknpqpnnnoonnmllmmmnnnmnnnooononmopopqqqrpomlklmnno
(PID.TID 0000.0001)      6 mmkkkllmmmllllllmmoponnmlkklmmnmmmnnmlkkkmnnnooppoppomkkklmnonnnnooonoooopooooponmmlklmnmm
(PID.TID 0000.0001)      5 kkjjjjkkkjjjjjjjkkkkkkjiiiijjjjjjjkklllkklmllmnoonnnnlkkkklmnmmmmnnnmmmlkk..lmnmlllkkkllkk
(PID.TID 0000.0001)      4 ihghhggghh............................jjjjkjjkllllllkkkkllllllkkkkllkkiij...jkkkkkkkkkkjji
(PID.TID 0000.0001)      3 ..........................................kjiihiijjjiijklllkkjij..kjij.....jjiihiijklll...
(PID.TID 0000.0001)      2 ..........................................................................................
(PID.TID 0000.0001)      1 ..........................................................................................
(PID.TID 0000.0001) // =======================================================
(PID.TID 0000.0001) // END OF FIELD                                          =
(PID.TID 0000.0001) // =======================================================
(PID.TID 0000.0001) 
(PID.TID 0000.0001) // =======================================================
(PID.TID 0000.0001) // Field Current theta  at iteration         70
(PID.TID 0000.0001) // CMIN =         -1.952095072575213E+00
(PID.TID 0000.0001) // CMAX =          3.081835198867228E+01
(PID.TID 0000.0001) // CINT =          1.213720261527685E+00
(PID.TID 0000.0001) // SYMBOLS (CMIN->CMAX): -abcdefghijklmnopqrstuvwxyz+
(PID.TID 0000.0001) //                  0.0: .
(PID.TID 0000.0001) // RANGE I (Lo:Hi:Step):(     1:    90:     1)
(PID.TID 0000.0001) // RANGE J (Lo:Hi:Step):(    40:     1:    -1)
(PID.TID 0000.0001) // RANGE K (Lo:Hi:Step):(   1:   1:   1)
(PID.TID 0000.0001) // =======================================================
(PID.TID 0000.0001) K =   1
(PID.TID 0000.0001)                I=10      I=20      I=30      I=40      I=50      I=60      I=70      I=80      I=90
(PID.TID 0000.0001) |--J--|123456789|123456789|123456789|123456789|123456789|123456789|123456789|123456789|123456789|
(PID.TID 0000.0001)     40 -bbccba-------abcddbbbbbbbbbbbbbbbbbbbbbbbbbbbbbbbbbbbbbbbbbbbbbbbbbbbbbbbbbbbbbbbbbbaaa--
(PID.TID 0000.0001)     39 bbccccbbaaa---bbbddbbbbbbbbbbbbbbbbbbbbbbbbbbbbbbbbbbbbbbbbbbbbbbbbbbbbb----bbbbbbbbbaaaaa
(PID.TID 0000.0001)     38 deeeeecccbba-bbbbbbbbbbbbbbbbbbbbbbbbbbbbbbbbbbbbbbbbbbbbbbbbbbbbbbbbbbb-----bbbbbbb---bcd
(PID.TID 0000.0001)     37 ffgbbbbbbbbbbbbbbbbbbbbbbbbbbbbbbbbbbbbbbbbbbbbbbbbbbbbbbbbbbbbbbbbbbbbbbba-bbbbcbeeebcdde
(PID.TID 0000.0001)     36 ggbbbbbbbbbbbbbbbbbbbbbbbbbbbbbbbbbbbbbbbbbba--bbbbbbbbbbbbbbbbbbbbccccbaaabbcbceffghhhggg
(PID.TID 0000.0001)     35 ffbbbbbbbbbbbbbbbbbbbbbbbbbbbbbbbbb----bbbbcccb-bbbddeefbbbbbbbbbbbbbbbbbbbcddddefghhiiihg
(PID.TID 0000.0001)     34 bbbbbbbbbbbbbbbbbbbbbbbbbbbbbbbbbbb----bacccccccbccedefffbbbbbbbbbbbbbbbbbbbabdeffghiijibb
(PID.TID 0000.0001)     33 bbbbbbbbbbbbbbbbbbbbbbbbbbbbbbbbbbbb--abbcccccdddeeeefffgghbbbbbbbbbbbbbbbbbaacghijjkkkjjb
(PID.TID 0000.0001)     32 bbbbbbbbbbbbbbbbbbbbbbbbbbbbbbbbbbbb-abbccddddeefgggggghhhibbbbbbbbbbbbbbbbdcaaiklllllkkjb
(PID.TID 0000.0001)     31 bbbbbbbbbbbbbbbbbbbbbbbbbbbbbbbbbbbbdeefggghhihhiiiiijjjjjjbbbbbbbbbbbbbbhilkhjlmmmmmlllbb
(PID.TID 0000.0001)     30 bbbbbbbbbbbbbbbbbbbbbbbbbbbbbbbbbbbkkjjjkkkklkkkkkklllmmmllbbbbbbbbbbbbmmnoooooooooonnnnbb
(PID.TID 0000.0001)     29 bbbbbbbbbbbbbbbbbbbbbbbbbbbbbbbbbnnnnnnnnnnnnnnnnnnnnoooonmmbbbbbbbbbbboqqqqqpppppppoooobb
(PID.TID 0000.0001)     28 bbbbbbbbbbbbbbbbbbbbbbbbbbbbbbbmoppppppopppppppppqqpqqqqponnnbbbbbbbbbrrrrrrrrqqqqqpppppbb
(PID.TID 0000.0001)     27 bbbbbbbbbbbbbbuubbbbbbbbbbbbbbqqrrrrrrrrssssssssssssssrrqqppppbbbrrssbttttttttssssrrrqbbbb
(PID.TID 0000.0001)     26 bbbbbbbbbbbbbbuttbbbbbbbbbbbtstttttuuuuuuuuuuuuuuuuttsssrrqqqrsubttuvuuuuuuuuuuttssrrqbbbb
(PID.TID 0000.0001)     25 bbbbbbbbbbbbbbuuvvbbbwvwbbbuuvvvvvwwwwwwwvvvvvvuvuuuuttttsssstuvwbbbvvvvvvvuuuuutssrqqbbbb
(PID.TID 0000.0001)     24 bbbbbbbbbbbbvuvvwxybwwwxbbbwwvbwwwxxxwwwwwvvwwvvvvvvvvvvvvvvvvwwwvvwbwvvvvvvuvuuutttssbbbb
(PID.TID 0000.0001)     23 bbbbbbbbbbbbwvwxxyybwwxxbbbxwwbbwxxxxxxxxxxwwwwwwwwwwwwwwwwwwvwwwwwwvbbbbwvvvvvvvvvvvvbbbb
(PID.TID 0000.0001)     22 wbbbbbbbbbbbwwwxxyyyxxyybbbxxbyyxxxyyxyyyyyxxxxxxxxxxxxwwwwwwwwwwwwvvwbbbbbbxwwwwwxxxyxxxw
(PID.TID 0000.0001)     21 wvvbbbbbbbbxxxxxyxyyyzz++bbbbbzzzzzzzzzzzzzyyyyyyyyyyyxxxxxxxxxxxwwvvvbbbbbbbbxxxyyyyzzyxw
(PID.TID 0000.0001)     20 wwvbbbbbbbyyyyyyyyzzzzzz+bbbbbbzbzzzzz+++++zzzzzzzzzyyyyxxxyxxxxxxxwwvbbbbbbbbbyyyyyyyyxxx
(PID.TID 0000.0001)     19 wwwbbbbbbbzzzzyyyyyyyyzyzzybbbzyzbbbbbzzzz++zzzzzzzzyyyxxxxxxwwvvwwvvvbbbbbbbbbbbyxxxwwvww
(PID.TID 0000.0001)     18 vuubbbbbbbzzyxxxxxyyyyyyyyzzzz+zzbbb++zzzz+zzzzzzzzzyyyyxxxxwwwvvvvvuutbbbbbbbbbbyxxwwvvwv
(PID.TID 0000.0001)     17 uutbbbbbbbzbyxxxxxxyyyyyyyyyyzzbbbbbzzyzzzzzzzzzzzzzyyyyxxxxwwwvuvvuttvbbbbbbbbbxyyxxvuvvu
(PID.TID 0000.0001)     16 utsbbbbbbyzbyxxxxwxwxxxwwxxxxzbbbbbbbxxxyyyzzyzzyyyyyyyxxxxxxwwwvvvuutttbbbbbbbbyyyyxwvvvu
(PID.TID 0000.0001)     15 tsrrbbbbwxxbwxxwwwwwwwwvvvvvxbbbbbbbbbwwxxxxxxxxxxxxxxxxxyyxxwwwwvvuttssrbbbbbbxxxxxxxwwvu
(PID.TID 0000.0001)     14 utrqbbbbwxwwwwwvwwwvvuuuttttubbbbbbbbbvvvwwwwwwwwwwxxxxwxxxxxwwwvvvvtssssbbbbbvwxxxxxxwwvu
(PID.TID 0000.0001)     13 uttrbbbbvxwvwwvuvvvvuuutsstssbbbbbbbbbuvvvvvvvvvvvuvvvwwwwwxxwwvvuuuussspbbbbvvwwwwwwwwvvu
(PID.TID 0000.0001)     12 tssstsrsuvutuutttssstutrrssrrqqrrqbbbbtuuutttttsststttttttuvuutttstttsrrbbbbbtvvvuuuuuuttt
(PID.TID 0000.0001)     11 qpppqrrsssrrrsrqqqppprrppqpppqqqqqqbbssssssbrrrqrrrrrrrrrrssqqrrrqrrrrqpbbbbpqsssrrrsrrrqq
(PID.TID 0000.0001)     10 mmllmnopppopoponnmnnnnnmmmmllnnooppobqrrqrqbpqqqqqqpppqpppppooppoooopppobbooppppooonopponn
(PID.TID 0000.0001)      9 jjiiijjjjjkkkkjjjijjjjjiiijjijkklmnmmnooopbnnoooooooooooonmmmmnnmmllmmmmbmnnnnmmlllkkllkjj
(PID.TID 0000.0001)      8 ggggggghhghhiiiihghhhihggghhhiijjjkkkkllmmmmlmlllllmmmllllkkkkkkkkkkkklkbklllkkjiiihhhhggf
(PID.TID 0000.0001)      7 eeeeffffggfffggggfffffeeffgggggghhhhhiijkkkjjjkkkjjjiiiiiiiiiiiiiiiiijjjiijjiihhgffffffeee
(PID.TID 0000.0001)      6 ddddeeeeeeeeeeffffeeeefffeeeeeeffffffgghhiihhhhiihggffgggggggffgghhhhhhhhhhhhggfeeeeeddddd
(PID.TID 0000.0001)      5 dddeeedddeeeeeeeeeeeeeeedddeeeeeeeeeeefffffgffffffeddeeeeeeeeeeefffffffffffeeeeedddddddddd
(PID.TID 0000.0001)      4 dddddddccddcccccccccccccbbbccccccccccccddddddddcddddddddddddddddddddddddddbbbbbccccddccccd
(PID.TID 0000.0001)      3 ccccbbbaaabbbbbbbbbbbbbbbbbbbbbbbbbbbbbbbbbbcccccccccccbbbbbbbbbbbbbbbbbbbbbbaaabbcccccbbb
(PID.TID 0000.0001)      2 bbbbbbbbbbbbbbbbbbbbbbbbbbbbbbbbbbbbbbbbbbbbbbcbbbbbbaaaaaaaaababbaaaabbbbbaaaaabbbbbbbbbb
(PID.TID 0000.0001)      1 bbbbbbbbbbbbbbbbbbbbbbbbbbbbbbbbbbbbbbbbbbbbbbbbbbbbbbbbbbbbbbbbbbbbbbbbbbbbbbbbbbbbbbbbbb
(PID.TID 0000.0001) // =======================================================
(PID.TID 0000.0001) // END OF FIELD                                          =
(PID.TID 0000.0001) // =======================================================
(PID.TID 0000.0001) 
(PID.TID 0000.0001) // =======================================================
(PID.TID 0000.0001) // Field Current etaN   at iteration         70
(PID.TID 0000.0001) // CMIN =         -2.070357674220821E+00
(PID.TID 0000.0001) // CMAX =          1.037170727800699E+00
(PID.TID 0000.0001) // CINT =          1.150936445193156E-01
(PID.TID 0000.0001) // SYMBOLS (CMIN->CMAX): -abcdefghijklmnopqrstuvwxyz+
(PID.TID 0000.0001) //                  0.0: .
(PID.TID 0000.0001) // RANGE I (Lo:Hi:Step):(    -1:    92:     1)
(PID.TID 0000.0001) // RANGE J (Lo:Hi:Step):(    42:    -1:    -1)
(PID.TID 0000.0001) // RANGE K (Lo:Hi:Step):(   1:   1:   1)
(PID.TID 0000.0001) // =======================================================
(PID.TID 0000.0001) K =   1
(PID.TID 0000.0001)                I=8       I=18      I=28      I=38      I=48      I=58      I=68      I=78      I=88
(PID.TID 0000.0001) |--J--|101234567|901234567|901234567|901234567|901234567|901234567|901234567|901234567|901234567|9012
(PID.TID 0000.0001)     42 ............................................bbbbcccddddeeeddddcccc..dccc.....-aabbbcccccc.....
(PID.TID 0000.0001)     41 ..............................................................................................
(PID.TID 0000.0001)     40 llkkkll.ppqqqrrrsrrrr..................................................................mmlllkk
(PID.TID 0000.0001)     39 mlllllmmmnnoopqr...rr.....................................................ssss........nnmmmlll
(PID.TID 0000.0001)     38 mmmmmnnnnnnnnno...........................................................qqqrr......ommmmmmmm
(PID.TID 0000.0001)     37 mmmno..................................................................rr...qqq...onmnm.lmmmmn
(PID.TID 0000.0001)     36 mmnp.........................................tttt....................opqrrqppppo.qnllmmmlmmmnp
(PID.TID 0000.0001)     35 nooo.................................nooo..tttttuu...vtttt...........opp....qonmmmllllllllnooo
(PID.TID 0000.0001)     34 .....................................ooop.tttstttt.tsssrsst..................onllkkkklllln....
(PID.TID 0000.0001)     33 l.....................................ppqrssssssssssssrrrrrss.................nlkkkllmmmlll...
(PID.TID 0000.0001)     32 n.....................................oppqrrsssstssssssssssss................fllklmmnnnmmln...
(PID.TID 0000.0001)     31 ......................................opqqrrsstttttttttttttst..............ijklllmnnnnnmml....
(PID.TID 0000.0001)     30 .....................................qrrssstuuuuuuuuuuuuuuutt............jlklnnoooooonnnmm....
(PID.TID 0000.0001)     29 ...................................vvvvvvvvwwwwvvvvvvvvvvvvutt...........noppppppppooonnmm....
(PID.TID 0000.0001)     28 .................................wxxyyyxxxxxyxxxxwwwwvvvvvvuutt.........qqqqqqqppppooonnnn....
(PID.TID 0000.0001)     27 ................tt..............yyyzzzyyyyyyyyyyxxwwwwwwvvvvuutt...qqqq.rrrqqqqppoooonnn......
(PID.TID 0000.0001)     26 ................stt...........yxyzzzzzzyyzzzzyyyyxxxxxwwwvvvuutttt.qqqrssssrrqqqppoooonn......
(PID.TID 0000.0001)     25 ................stuu...uuv...xxxxyzzzzzzzzzzzyyyxxxxxwwwwvvvuuuuuuu...rrssssrrqpppppoonn......
(PID.TID 0000.0001)     24 ..............ttttuvv.vvvv...xxx.zzyyyyyyyyyyxxxxxxwwwwvvvuuuuuuuuuuuu.srrrrrqqppppooooo......
(PID.TID 0000.0001)     23 ..............uttuuvv.vvvv...yyy..yxxxxxwxxxxxxxxwwwwwwvvvuuuuuuuuuuuuu....rqppppppppoop......
(PID.TID 0000.0001)     22 ppp...........uuuuuvvwvvvw...yy.yzyxxwwwwxxxxxxxxxxxwwwwwwvvvvvuuuuuuuuu......qqqqqpppppppppp.
(PID.TID 0000.0001)     21 ppppp........vvvuuuuvvvvwww.....zzzyyxxxyyyyyyyyyyyxxxxxwwwvvvvvvuuuuuut........rqqqqqqqqqpppp
(PID.TID 0000.0001)     20 ppppp.......wvvvvvuuvvvvwww......y.yzzzzzzzyyyyyyyxxxxxwwwvvvvvvuuuutttt.........qqqqqqqqppppp
(PID.TID 0000.0001)     19 opppp.......wwvvuuuuvvvvvvvvv...xxy.....zzyyyyyyxxxxxwwwvvvvuuuutttttttt...........rqpppppoppp
(PID.TID 0000.0001)     18 ooopp.......xwwvuttuvvvvvvvvvwwxxxy...++zzyyyyxxxwwwxxwwvvvvuuuutttttttts..........rqpppooooop
(PID.TID 0000.0001)     17 ooooo.......y.xwvvvvvwwwwvvvvwwwx.....zzyyyyyyxxyxxxxxxwwwvvvvvuuttttttss.........rrqqppoooooo
(PID.TID 0000.0001)     16 pppoo......yy.ywwwwvwwwwwvvvvvvw.......yxxxyyyyyyyyxxxxxwwwwwwwvvuuuuttsss........qqqqqqqqpppo
(PID.TID 0000.0001)     15 qqppoo....wxw.wwwwwwxwvwwvvuuuv.........xxxyyyyyyyxxxxxxwxxxwwwwvvuuuuttsss......oqqqrrrrrqqpp
(PID.TID 0000.0001)     14 rrqqpo....vwvuvvvvvvwvuuvuutttt.........vwwxxxxxxxxwwwwwwxxxxxxwvvvvuuuttss.....oppqqrrrssrrqq
(PID.TID 0000.0001)     13 srrrqp....vxwvvvvvuvvuuuvvuttss.........vwwwwwwwvvvvuuvvvwwwwwxwvwvvvuuttss....pqqqqqrsssssrrr
(PID.TID 0000.0001)     12 srrrqqqqtuwxwvvvvvuuuuuuuutttssssssr....vvvwvuuuuuuttuuuuuuvvvvvvvvuutttsr.....qqpqqqqrrsssrrr
(PID.TID 0000.0001)     11 rqqqqqrstuuvvuuuuuttttttttsssrrrrrrrq..vuuuvw.tutttsttttuutuuuuuuvuttssssr....moooooopqqqrrqqq
(PID.TID 0000.0001)     10 pooooooppqrrrqpqqqqqqqrrqqqqqqpqqqqqqq.tttuuw.ssssssttttuutttttttutsrrrrrs..kilmmlllmmnnoppooo
(PID.TID 0000.0001)      9 lllllmlllmmmllkkkllllmnnnnnnnnnnoopqrqpqrsss.rqqrrssssttttttssssssrrqppppp.hiijkkjiiiijkklllll
(PID.TID 0000.0001)      8 ggghhhhgghhhhhhhhhjhghijjjjjjkkkllmnoooopqrrqoooppqqrrsssrrrrqqqqrqppoonnp.gggghhfeffffggggggh
(PID.TID 0000.0001)      7 ddddddddeeeeeeeeeeegfeeeeffffgghhhiijiijklnnnmmmmnnnnnooopooonnooonnnmmlkkkiihhggfddccdddddddd
(PID.TID 0000.0001)      6 baaaabbcccccccccccdddccccccddeeeeeeefeefghijkjjjjjjjjjjjjkkklkkkkkkkjjjiiihggffedcccbbbcbbbaaa
(PID.TID 0000.0001)      5 aa--aaabbbaaaaaabbbbbbbbaaaabbbcccccdddddeefffggggffffeeefghhhhhhhhggffffeedcbbbbbbaaaaaaaaa--
(PID.TID 0000.0001)      4 a-----aaaaaabbaaaaaaaaaaaaaaaabbbbcccccccccccccddddccccdddeeeeeeeeeeddddcccd..bbbbaaaaaaaaa---
(PID.TID 0000.0001)      3 aaaaaaaaaaaa............................bbbbbbbcccccccccddddcccccccccccccdd..ccbbbbbbbbaaaaaaa
(PID.TID 0000.0001)      2 ............................................bbbbcccddddeeeddddcccc..dccc.....-aabbbcccccc.....
(PID.TID 0000.0001)      1 ..............................................................................................
(PID.TID 0000.0001)      0 llkkkll.ppqqqrrrsrrrr..................................................................mmlllkk
(PID.TID 0000.0001)     -1 mlllllmmmnnoopqr...rr.....................................................ssss........nnmmmlll
(PID.TID 0000.0001) // =======================================================
(PID.TID 0000.0001) // END OF FIELD                                          =
(PID.TID 0000.0001) // =======================================================
(PID.TID 0000.0001) 
(PID.TID 0000.0001)  MDS_WRITE_FIELD: it,rec,kS,kL,kH=      70     1  15   1  15 file=U.0000000070
(PID.TID 0000.0001)  MDS_WRITE_FIELD: it,rec,kS,kL,kH=      70     1  15   1  15 file=V.0000000070
(PID.TID 0000.0001)  MDS_WRITE_FIELD: it,rec,kS,kL,kH=      70     1  15   1  15 file=T.0000000070
(PID.TID 0000.0001)  MDS_WRITE_FIELD: it,rec,kS,kL,kH=      70     1  15   1  15 file=S.0000000070
(PID.TID 0000.0001)  MDS_WRITE_FIELD: it,rec,kS,kL,kH=      70     1   1   1   1 file=Eta.0000000070
(PID.TID 0000.0001)  MDS_WRITE_FIELD: it,rec,kS,kL,kH=      70     1  15   1  15 file=W.0000000070
(PID.TID 0000.0001)  MDS_WRITE_FIELD: it,rec,kS,kL,kH=      70     1  15   1  15 file=PH.0000000070
(PID.TID 0000.0001)  MDS_WRITE_FIELD: it,rec,kS,kL,kH=      70     1   1   1   1 file=PHL.0000000070
(PID.TID 0000.0001)  MDS_WRITE_FIELD: it,rec,kS,kL,kH=      70     1   1   1   1 file=ETAtave.0000000070
(PID.TID 0000.0001)  MDS_WRITE_FIELD: it,rec,kS,kL,kH=      70     1  15   1  15 file=Ttave.0000000070
(PID.TID 0000.0001)  MDS_WRITE_FIELD: it,rec,kS,kL,kH=      70     1  15   1  15 file=Stave.0000000070
(PID.TID 0000.0001)  MDS_WRITE_FIELD: it,rec,kS,kL,kH=      70     1  15   1  15 file=uVeltave.0000000070
(PID.TID 0000.0001)  MDS_WRITE_FIELD: it,rec,kS,kL,kH=      70     1  15   1  15 file=vVeltave.0000000070
(PID.TID 0000.0001)  MDS_WRITE_FIELD: it,rec,kS,kL,kH=      70     1  15   1  15 file=wVeltave.0000000070
(PID.TID 0000.0001)  MDS_WRITE_FIELD: it,rec,kS,kL,kH=      70     1   1   1   1 file=Eta2tave.0000000070
(PID.TID 0000.0001)  MDS_WRITE_FIELD: it,rec,kS,kL,kH=      70     1  15   1  15 file=UTtave.0000000070
(PID.TID 0000.0001)  MDS_WRITE_FIELD: it,rec,kS,kL,kH=      70     1  15   1  15 file=VTtave.0000000070
(PID.TID 0000.0001)  MDS_WRITE_FIELD: it,rec,kS,kL,kH=      70     1  15   1  15 file=WTtave.0000000070
(PID.TID 0000.0001)  MDS_WRITE_FIELD: it,rec,kS,kL,kH=      70     1  15   1  15 file=UStave.0000000070
(PID.TID 0000.0001)  MDS_WRITE_FIELD: it,rec,kS,kL,kH=      70     1  15   1  15 file=VStave.0000000070
(PID.TID 0000.0001)  MDS_WRITE_FIELD: it,rec,kS,kL,kH=      70     1  15   1  15 file=WStave.0000000070
(PID.TID 0000.0001)  MDS_WRITE_FIELD: it,rec,kS,kL,kH=      70     1  15   1  15 file=TTtave.0000000070
(PID.TID 0000.0001)  MDS_WRITE_FIELD: it,rec,kS,kL,kH=      70     1  15   1  15 file=UUtave.0000000070
(PID.TID 0000.0001)  MDS_WRITE_FIELD: it,rec,kS,kL,kH=      70     1  15   1  15 file=VVtave.0000000070
(PID.TID 0000.0001)  MDS_WRITE_FIELD: it,rec,kS,kL,kH=      70     1  15   1  15 file=UVtave.0000000070
(PID.TID 0000.0001)  MDS_WRITE_FIELD: it,rec,kS,kL,kH=      70     1  15   1  15 file=Tdiftave.0000000070
(PID.TID 0000.0001)  MDS_WRITE_FIELD: it,rec,kS,kL,kH=      70     1  15   1  15 file=PhHytave.0000000070
(PID.TID 0000.0001)  MDS_WRITE_FIELD: it,rec,kS,kL,kH=      70     1   1   1   1 file=PHLtave.0000000070
(PID.TID 0000.0001)  MDS_WRITE_FIELD: it,rec,kS,kL,kH=      70     1   1   1   1 file=uFluxtave.0000000070
(PID.TID 0000.0001)  MDS_WRITE_FIELD: it,rec,kS,kL,kH=      70     1   1   1   1 file=vFluxtave.0000000070
(PID.TID 0000.0001)  MDS_WRITE_FIELD: it,rec,kS,kL,kH=      70     1   1   1   1 file=tFluxtave.0000000070
(PID.TID 0000.0001)  MDS_WRITE_FIELD: it,rec,kS,kL,kH=      70     1   1   1   1 file=sFluxtave.0000000070
(PID.TID 0000.0001)  MDS_WRITE_FIELD: it,rec,kS,kL,kH=      70     1   1   1   1 file=PHL2tave.0000000070
(PID.TID 0000.0001)  MDS_WRITE_FIELD: it,rec,kS,kL,kH=      70     1  15   1  15 file=Convtave.0000000070
(PID.TID 0000.0001) // Time-average data written, t-step        70
(PID.TID 0000.0001) 
(PID.TID 0000.0001)  MDS_WRITE_FIELD: it,rec,kS,kL,kH=      70     1  15   1  15 file=GM_Kwx-T.0000000070
(PID.TID 0000.0001)  MDS_WRITE_FIELD: it,rec,kS,kL,kH=      70     1  15   1  15 file=GM_Kwy-T.0000000070
(PID.TID 0000.0001)  MDS_WRITE_FIELD: it,rec,kS,kL,kH=      70     1  15   1  15 file=GM_Kwz-T.0000000070
(PID.TID 0000.0001)  MDS_WRITE_FIELD: it,rec,kS,kL,kH=      70     1  15   1  15 file=pickup_cd.0000000070
(PID.TID 0000.0001)  MDS_WRITE_FIELD: it,rec,kS,kL,kH=      70     2  15   1  15 file=pickup_cd.0000000070
(PID.TID 0000.0001)  MDS_WRITE_FIELD: it,rec,kS,kL,kH=      70     3  15   1  15 file=pickup_cd.0000000070
(PID.TID 0000.0001)  MDS_WRITE_FIELD: it,rec,kS,kL,kH=      70     4  15   1  15 file=pickup_cd.0000000070
(PID.TID 0000.0001)  MDS_WRITE_FIELD: it,rec,kS,kL,kH=      70    61   1   1   1 file=pickup_cd.0000000070
(PID.TID 0000.0001)  MDS_WRITE_FIELD: it,rec,kS,kL,kH=      70    -1  15   1  15 file=pickup.0000000070
(PID.TID 0000.0001)  MDS_WRITE_FIELD: it,rec,kS,kL,kH=      70    -2  15   1  15 file=pickup.0000000070
(PID.TID 0000.0001)  MDS_WRITE_FIELD: it,rec,kS,kL,kH=      70    -3  15   1  15 file=pickup.0000000070
(PID.TID 0000.0001)  MDS_WRITE_FIELD: it,rec,kS,kL,kH=      70    -4  15   1  15 file=pickup.0000000070
(PID.TID 0000.0001)  MDS_WRITE_FIELD: it,rec,kS,kL,kH=      70    -5  15   1  15 file=pickup.0000000070
(PID.TID 0000.0001)  MDS_WRITE_FIELD: it,rec,kS,kL,kH=      70    -6  15   1  15 file=pickup.0000000070
(PID.TID 0000.0001)  MDS_WRITE_FIELD: it,rec,kS,kL,kH=      70    -7  15   1  15 file=pickup.0000000070
(PID.TID 0000.0001)  MDS_WRITE_FIELD: it,rec,kS,kL,kH=      70    -8  15   1  15 file=pickup.0000000070
(PID.TID 0000.0001)  MDS_WRITE_FIELD: it,rec,kS,kL,kH=      70  -121   1   1   1 file=pickup.0000000070
(PID.TID 0000.0001)  MDS_WRITE_FIELD: it,rec,kS,kL,kH=      70  -122   1   1   1 file=pickup.0000000070
(PID.TID 0000.0001)  MDS_WRITE_FIELD: it,rec,kS,kL,kH=      70  -123   1   1   1 file=pickup.0000000070
(PID.TID 0000.0001) %CHECKPOINT        70 0000000070
 EXTERNAL_FIELDS_LOAD,        70 : iP,iLd,i0,i1=    2    3    2    3 ; Wght=  0.1666666667  0.8333333333
 EXTERNAL_FIELDS_LOAD: (fu0,1),fu,fv= -1.4435E-02 -2.7199E-02 -2.5072E-02 -3.4210E-03
 EXTERNAL_FIELDS_LOAD: SST,SSS,Q,E-P= -2.4190E-01  3.4553E+01  2.1958E+02  8.9635E-06
DEBUG_STATS_RL:          Uvel (THERMODYNAMICS)  min= -1.45046443291431E-01
DEBUG_STATS_RL:          Uvel (THERMODYNAMICS)  max=  1.72084880882524E-01
DEBUG_STATS_RL:          Uvel (THERMODYNAMICS) mean=  6.35831352773734E-03
DEBUG_STATS_RL:          Uvel (THERMODYNAMICS) S.D.=  2.73833919437956E-02
DEBUG_STATS_RL:          Vvel (THERMODYNAMICS)  min= -1.22967172721992E-01
DEBUG_STATS_RL:          Vvel (THERMODYNAMICS)  max=  1.63768056291506E-01
DEBUG_STATS_RL:          Vvel (THERMODYNAMICS) mean=  2.51049048455287E-04
DEBUG_STATS_RL:          Vvel (THERMODYNAMICS) S.D.=  1.54458571378915E-02
DEBUG_STATS_RL:          Wvel (THERMODYNAMICS)  min= -1.22947118401231E-04
DEBUG_STATS_RL:          Wvel (THERMODYNAMICS)  max=  1.25413050088325E-04
DEBUG_STATS_RL:          Wvel (THERMODYNAMICS) mean= -1.43367321621575E-07
DEBUG_STATS_RL:          Wvel (THERMODYNAMICS) S.D.=  1.35382812091627E-05
DEBUG_STATS_RL:         Theta (THERMODYNAMICS)  min= -1.95259543125988E+00
DEBUG_STATS_RL:         Theta (THERMODYNAMICS)  max=  3.08348637126455E+01
DEBUG_STATS_RL:         Theta (THERMODYNAMICS) mean=  3.25092040189565E+00
DEBUG_STATS_RL:         Theta (THERMODYNAMICS) S.D.=  5.88228104968626E+00
DEBUG_STATS_RL:          Salt (THERMODYNAMICS)  min=  3.00000000000000E-02
DEBUG_STATS_RL:          Salt (THERMODYNAMICS)  max=  3.74974295761177E+01
DEBUG_STATS_RL:          Salt (THERMODYNAMICS) mean=  1.88747641036866E+01
DEBUG_STATS_RL:          Salt (THERMODYNAMICS) S.D.=  1.73003059927774E+01
DEBUG_STATS_RL:         GtNm1 (THERMODYNAMICS)  min= -2.04401479933449E-06
DEBUG_STATS_RL:         GtNm1 (THERMODYNAMICS)  max=  2.26291226198291E-06
DEBUG_STATS_RL:         GtNm1 (THERMODYNAMICS) mean=  2.30440181394022E-09
DEBUG_STATS_RL:         GtNm1 (THERMODYNAMICS) S.D.=  1.68454867010021E-07
DEBUG_STATS_RL:         GsNm1 (THERMODYNAMICS)  min= -3.61749102937493E-07
DEBUG_STATS_RL:         GsNm1 (THERMODYNAMICS)  max=  2.72448692612231E-07
DEBUG_STATS_RL:         GsNm1 (THERMODYNAMICS) mean=  2.37757398162623E-11
DEBUG_STATS_RL:         GsNm1 (THERMODYNAMICS) S.D.=  1.56317103866826E-08
DEBUG_STATS_RL:                EtaN (DYNAMICS)  min= -2.07035767422082E+00
DEBUG_STATS_RL:                EtaN (DYNAMICS)  max=  1.03717072780070E+00
DEBUG_STATS_RL:                EtaN (DYNAMICS) mean= -1.93930858072421E-01
DEBUG_STATS_RL:                EtaN (DYNAMICS) S.D.=  8.16662923928320E-01
DEBUG_STATS_RL:                Uvel (DYNAMICS)  min= -1.45046443291431E-01
DEBUG_STATS_RL:                Uvel (DYNAMICS)  max=  1.72084880882524E-01
DEBUG_STATS_RL:                Uvel (DYNAMICS) mean=  6.35831352773734E-03
DEBUG_STATS_RL:                Uvel (DYNAMICS) S.D.=  2.73833919437956E-02
DEBUG_STATS_RL:                Vvel (DYNAMICS)  min= -1.22967172721992E-01
DEBUG_STATS_RL:                Vvel (DYNAMICS)  max=  1.63768056291506E-01
DEBUG_STATS_RL:                Vvel (DYNAMICS) mean=  2.51049048455287E-04
DEBUG_STATS_RL:                Vvel (DYNAMICS) S.D.=  1.54458571378915E-02
DEBUG_STATS_RL:                Wvel (DYNAMICS)  min= -1.22947118401231E-04
DEBUG_STATS_RL:                Wvel (DYNAMICS)  max=  1.25413050088325E-04
DEBUG_STATS_RL:                Wvel (DYNAMICS) mean= -1.43367321621575E-07
DEBUG_STATS_RL:                Wvel (DYNAMICS) S.D.=  1.35382812091627E-05
DEBUG_STATS_RL:               Theta (DYNAMICS)  min= -1.95259543125988E+00
DEBUG_STATS_RL:               Theta (DYNAMICS)  max=  3.08348637126455E+01
DEBUG_STATS_RL:               Theta (DYNAMICS) mean=  3.25092040189565E+00
DEBUG_STATS_RL:               Theta (DYNAMICS) S.D.=  5.88228104968626E+00
DEBUG_STATS_RL:                Salt (DYNAMICS)  min=  3.00000000000000E-02
DEBUG_STATS_RL:                Salt (DYNAMICS)  max=  3.74974295761177E+01
DEBUG_STATS_RL:                Salt (DYNAMICS) mean=  1.88747641036866E+01
DEBUG_STATS_RL:                Salt (DYNAMICS) S.D.=  1.73003059927774E+01
DEBUG_STATS_RL:                  Gu (DYNAMICS)  min= -1.43112825825829E-01
DEBUG_STATS_RL:                  Gu (DYNAMICS)  max=  1.52936223771090E-01
DEBUG_STATS_RL:                  Gu (DYNAMICS) mean=  6.25550743645124E-03
DEBUG_STATS_RL:                  Gu (DYNAMICS) S.D.=  2.77208373558552E-02
DEBUG_STATS_RL:                  Gv (DYNAMICS)  min= -9.72323523288380E-02
DEBUG_STATS_RL:                  Gv (DYNAMICS)  max=  1.64503162083829E-01
DEBUG_STATS_RL:                  Gv (DYNAMICS) mean=  3.31365474350941E-03
DEBUG_STATS_RL:                  Gv (DYNAMICS) S.D.=  1.64638843410077E-02
DEBUG_STATS_RL:               GuNm1 (DYNAMICS)  min= -1.09696339401794E-05
DEBUG_STATS_RL:               GuNm1 (DYNAMICS)  max=  9.45491525901781E-06
DEBUG_STATS_RL:               GuNm1 (DYNAMICS) mean=  8.39008222628327E-09
DEBUG_STATS_RL:               GuNm1 (DYNAMICS) S.D.=  1.22185768437306E-06
DEBUG_STATS_RL:               GvNm1 (DYNAMICS)  min= -1.04428725260290E-05
DEBUG_STATS_RL:               GvNm1 (DYNAMICS)  max=  1.55516616109830E-05
DEBUG_STATS_RL:               GvNm1 (DYNAMICS) mean=  7.44079573389949E-07
DEBUG_STATS_RL:               GvNm1 (DYNAMICS) S.D.=  2.65289845088693E-06
DEBUG_STATS_RL:               GtNm1 (DYNAMICS)  min= -2.04401479933449E-06
DEBUG_STATS_RL:               GtNm1 (DYNAMICS)  max=  2.26291226198291E-06
DEBUG_STATS_RL:               GtNm1 (DYNAMICS) mean=  2.30440181394022E-09
DEBUG_STATS_RL:               GtNm1 (DYNAMICS) S.D.=  1.68454867010021E-07
DEBUG_STATS_RL:               GsNm1 (DYNAMICS)  min= -3.61749102937493E-07
DEBUG_STATS_RL:               GsNm1 (DYNAMICS)  max=  2.72448692612231E-07
DEBUG_STATS_RL:               GsNm1 (DYNAMICS) mean=  2.37757398162623E-11
DEBUG_STATS_RL:               GsNm1 (DYNAMICS) S.D.=  1.56317103866826E-08
DEBUG_STATS_RL:    cg2d_b (SOLVE_FOR_PRESSURE)  min= -1.89667138259391E+04
DEBUG_STATS_RL:    cg2d_b (SOLVE_FOR_PRESSURE)  max=  2.65085764625765E+04
DEBUG_STATS_RL:    cg2d_b (SOLVE_FOR_PRESSURE) mean=  4.87496137645763E+00
DEBUG_STATS_RL:    cg2d_b (SOLVE_FOR_PRESSURE) S.D.=  4.08886652747072E+03
 cg2d: Sum(rhs),rhsMax =   4.25731483636252E-01  1.74115427680623E+00
(PID.TID 0000.0001)  cg2d: iter=     1 ; resid.=  2.83589084748782E-01
(PID.TID 0000.0001)  cg2d: iter=     2 ; resid.=  2.91990445748477E-01
(PID.TID 0000.0001)  cg2d: iter=     3 ; resid.=  2.75887429084157E-01
(PID.TID 0000.0001)  cg2d: iter=     4 ; resid.=  2.54431037428864E-01
(PID.TID 0000.0001)  cg2d: iter=     5 ; resid.=  2.52143951736882E-01
(PID.TID 0000.0001)  cg2d: iter=     6 ; resid.=  2.07898846439852E-01
(PID.TID 0000.0001)  cg2d: iter=     7 ; resid.=  1.52964910967421E-01
(PID.TID 0000.0001)  cg2d: iter=     8 ; resid.=  1.08586984945803E-01
(PID.TID 0000.0001)  cg2d: iter=     9 ; resid.=  8.22534222564452E-02
(PID.TID 0000.0001)  cg2d: iter=    10 ; resid.=  6.48669197064645E-02
(PID.TID 0000.0001)  cg2d: iter=    11 ; resid.=  5.85866107861299E-02
(PID.TID 0000.0001)  cg2d: iter=    12 ; resid.=  5.02479227899294E-02
(PID.TID 0000.0001)  cg2d: iter=    13 ; resid.=  4.19090769552807E-02
(PID.TID 0000.0001)  cg2d: iter=    14 ; resid.=  3.61524691372373E-02
(PID.TID 0000.0001)  cg2d: iter=    15 ; resid.=  2.91087566840242E-02
(PID.TID 0000.0001)  cg2d: iter=    16 ; resid.=  2.65489985502479E-02
(PID.TID 0000.0001)  cg2d: iter=    17 ; resid.=  2.35230301580749E-02
(PID.TID 0000.0001)  cg2d: iter=    18 ; resid.=  1.88948200901446E-02
(PID.TID 0000.0001)  cg2d: iter=    19 ; resid.=  1.46759908872702E-02
(PID.TID 0000.0001)  cg2d: iter=    20 ; resid.=  1.16094200266170E-02
(PID.TID 0000.0001)  cg2d: iter=    21 ; resid.=  1.03402533976292E-02
(PID.TID 0000.0001)  cg2d: iter=    22 ; resid.=  9.22467178807814E-03
(PID.TID 0000.0001)  cg2d: iter=    23 ; resid.=  7.54473762267215E-03
(PID.TID 0000.0001)  cg2d: iter=    24 ; resid.=  6.52416102728089E-03
(PID.TID 0000.0001)  cg2d: iter=    25 ; resid.=  4.91490896219426E-03
(PID.TID 0000.0001)  cg2d: iter=    26 ; resid.=  3.83365066638244E-03
(PID.TID 0000.0001)  cg2d: iter=    27 ; resid.=  2.89792576831419E-03
(PID.TID 0000.0001)  cg2d: iter=    28 ; resid.=  2.29201130716348E-03
(PID.TID 0000.0001)  cg2d: iter=    29 ; resid.=  1.84174289393837E-03
(PID.TID 0000.0001)  cg2d: iter=    30 ; resid.=  1.59744035535636E-03
(PID.TID 0000.0001)  cg2d: iter=    31 ; resid.=  1.32884405546517E-03
(PID.TID 0000.0001)  cg2d: iter=    32 ; resid.=  1.00382529840956E-03
(PID.TID 0000.0001)  cg2d: iter=    33 ; resid.=  8.72781993055387E-04
(PID.TID 0000.0001)  cg2d: iter=    34 ; resid.=  7.74816932033227E-04
(PID.TID 0000.0001)  cg2d: iter=    35 ; resid.=  6.46261690965067E-04
(PID.TID 0000.0001)  cg2d: iter=    36 ; resid.=  5.53010351865458E-04
(PID.TID 0000.0001)  cg2d: iter=    37 ; resid.=  4.60406293105179E-04
(PID.TID 0000.0001)  cg2d: iter=    38 ; resid.=  3.98394045935129E-04
(PID.TID 0000.0001)  cg2d: iter=    39 ; resid.=  3.31280196751259E-04
(PID.TID 0000.0001)  cg2d: iter=    40 ; resid.=  2.90376517480692E-04
(PID.TID 0000.0001)  cg2d: iter=    41 ; resid.=  2.38342594952382E-04
(PID.TID 0000.0001)  cg2d: iter=    42 ; resid.=  2.04371217249936E-04
(PID.TID 0000.0001)  cg2d: iter=    43 ; resid.=  1.59681595679680E-04
(PID.TID 0000.0001)  cg2d: iter=    44 ; resid.=  1.26610720392516E-04
(PID.TID 0000.0001)  cg2d: iter=    45 ; resid.=  1.06636541142432E-04
(PID.TID 0000.0001)  cg2d: iter=    46 ; resid.=  8.38846119769110E-05
(PID.TID 0000.0001)  cg2d: iter=    47 ; resid.=  7.40176603853975E-05
(PID.TID 0000.0001)  cg2d: iter=    48 ; resid.=  6.34224254309078E-05
(PID.TID 0000.0001)  cg2d: iter=    49 ; resid.=  5.59390054317187E-05
(PID.TID 0000.0001)  cg2d: iter=    50 ; resid.=  5.01042660829562E-05
(PID.TID 0000.0001)  cg2d: iter=    51 ; resid.=  4.44707083848389E-05
(PID.TID 0000.0001)  cg2d: iter=    52 ; resid.=  3.79019658634855E-05
(PID.TID 0000.0001)  cg2d: iter=    53 ; resid.=  3.11291556520432E-05
(PID.TID 0000.0001)  cg2d: iter=    54 ; resid.=  2.37092631434016E-05
(PID.TID 0000.0001)  cg2d: iter=    55 ; resid.=  1.99471935098593E-05
(PID.TID 0000.0001)  cg2d: iter=    56 ; resid.=  1.75712947570939E-05
(PID.TID 0000.0001)  cg2d: iter=    57 ; resid.=  1.48823123022305E-05
(PID.TID 0000.0001)  cg2d: iter=    58 ; resid.=  1.18848398242687E-05
(PID.TID 0000.0001)  cg2d: iter=    59 ; resid.=  9.19405849060830E-06
(PID.TID 0000.0001)  cg2d: iter=    60 ; resid.=  7.34569359687021E-06
(PID.TID 0000.0001)  cg2d: iter=    61 ; resid.=  6.11527271895734E-06
(PID.TID 0000.0001)  cg2d: iter=    62 ; resid.=  5.14096430549129E-06
(PID.TID 0000.0001)  cg2d: iter=    63 ; resid.=  4.57183862678408E-06
(PID.TID 0000.0001)  cg2d: iter=    64 ; resid.=  3.65769569954414E-06
(PID.TID 0000.0001)  cg2d: iter=    65 ; resid.=  2.94652779526272E-06
(PID.TID 0000.0001)  cg2d: iter=    66 ; resid.=  2.44764742670886E-06
(PID.TID 0000.0001)  cg2d: iter=    67 ; resid.=  2.09609084523651E-06
(PID.TID 0000.0001)  cg2d: iter=    68 ; resid.=  1.82419490390566E-06
(PID.TID 0000.0001)  cg2d: iter=    69 ; resid.=  1.59108411310849E-06
(PID.TID 0000.0001)  cg2d: iter=    70 ; resid.=  1.29193575979547E-06
(PID.TID 0000.0001)  cg2d: iter=    71 ; resid.=  1.04253912274965E-06
(PID.TID 0000.0001)  cg2d: iter=    72 ; resid.=  9.18604957811934E-07
(PID.TID 0000.0001)  cg2d: iter=    73 ; resid.=  8.27717660500524E-07
(PID.TID 0000.0001)  cg2d: iter=    74 ; resid.=  6.92968121154252E-07
(PID.TID 0000.0001)  cg2d: iter=    75 ; resid.=  5.56371073398614E-07
(PID.TID 0000.0001)  cg2d: iter=    76 ; resid.=  4.50435935361141E-07
(PID.TID 0000.0001)  cg2d: iter=    77 ; resid.=  3.45408179812479E-07
(PID.TID 0000.0001)  cg2d: iter=    78 ; resid.=  2.64318910599780E-07
(PID.TID 0000.0001)  cg2d: iter=    79 ; resid.=  2.13751785861009E-07
(PID.TID 0000.0001)  cg2d: iter=    80 ; resid.=  1.56764608435647E-07
(PID.TID 0000.0001)  cg2d: iter=    81 ; resid.=  1.15370703566102E-07
(PID.TID 0000.0001)  cg2d: iter=    82 ; resid.=  8.21291863911182E-08
(PID.TID 0000.0001)  cg2d: iter=    83 ; resid.=  6.08505424420304E-08
(PID.TID 0000.0001)  cg2d: iter=    84 ; resid.=  4.38305696637444E-08
(PID.TID 0000.0001)  cg2d: iter=    85 ; resid.=  3.20790349286141E-08
(PID.TID 0000.0001)  cg2d: iter=    86 ; resid.=  2.53649152935570E-08
(PID.TID 0000.0001)  cg2d: iter=    87 ; resid.=  2.09128383161664E-08
(PID.TID 0000.0001)  cg2d: iter=    88 ; resid.=  1.74853000511732E-08
(PID.TID 0000.0001)  cg2d: iter=    89 ; resid.=  1.64013809534733E-08
(PID.TID 0000.0001)  cg2d: iter=    90 ; resid.=  1.34812968090546E-08
(PID.TID 0000.0001)  cg2d: iter=    91 ; resid.=  1.01879014247862E-08
(PID.TID 0000.0001)  cg2d: iter=    92 ; resid.=  8.12600937286564E-09
(PID.TID 0000.0001)  cg2d: iter=    93 ; resid.=  6.27273430859715E-09
(PID.TID 0000.0001)  cg2d: iter=    94 ; resid.=  4.88082514183423E-09
(PID.TID 0000.0001)  cg2d: iter=    95 ; resid.=  3.94002460971730E-09
(PID.TID 0000.0001)  cg2d: iter=    96 ; resid.=  3.04794747215384E-09
(PID.TID 0000.0001)  cg2d: iter=    97 ; resid.=  2.37576168731301E-09
(PID.TID 0000.0001)  cg2d: iter=    98 ; resid.=  2.08035378951477E-09
(PID.TID 0000.0001)  cg2d: iter=    99 ; resid.=  1.84773730399264E-09
(PID.TID 0000.0001)  cg2d: iter=   100 ; resid.=  1.73849404695964E-09
(PID.TID 0000.0001)  cg2d: iter=   101 ; resid.=  1.31364786701481E-09
(PID.TID 0000.0001)  cg2d: iter=   102 ; resid.=  1.03783933740351E-09
(PID.TID 0000.0001)  cg2d: iter=   103 ; resid.=  7.82646605347720E-10
(PID.TID 0000.0001)  cg2d: iter=   104 ; resid.=  5.89743455411064E-10
(PID.TID 0000.0001)  cg2d: iter=   105 ; resid.=  4.50982938975806E-10
(PID.TID 0000.0001)  cg2d: iter=   106 ; resid.=  3.60460021247620E-10
(PID.TID 0000.0001)  cg2d: iter=   107 ; resid.=  2.56184510099039E-10
(PID.TID 0000.0001)  cg2d: iter=   108 ; resid.=  1.91794241532729E-10
(PID.TID 0000.0001)  cg2d: iter=   109 ; resid.=  1.43742014783955E-10
(PID.TID 0000.0001)  cg2d: iter=   110 ; resid.=  1.06451113840181E-10
(PID.TID 0000.0001)  cg2d: iter=   111 ; resid.=  8.80643122354218E-11
(PID.TID 0000.0001)  cg2d: iter=   112 ; resid.=  6.97344106193416E-11
(PID.TID 0000.0001)  cg2d: iter=   113 ; resid.=  5.34098702175218E-11
(PID.TID 0000.0001)  cg2d: iter=   114 ; resid.=  4.16590410802204E-11
(PID.TID 0000.0001)  cg2d: iter=   115 ; resid.=  3.36358013328778E-11
(PID.TID 0000.0001)  cg2d: iter=   116 ; resid.=  2.57487919438354E-11
(PID.TID 0000.0001)  cg2d: iter=   117 ; resid.=  2.01891759199258E-11
(PID.TID 0000.0001)  cg2d: iter=   118 ; resid.=  1.45178105100088E-11
(PID.TID 0000.0001)  cg2d: iter=   119 ; resid.=  9.61341770568320E-12
(PID.TID 0000.0001)  cg2d: iter=   120 ; resid.=  6.63890094878188E-12
(PID.TID 0000.0001)  cg2d: iter=   121 ; resid.=  4.65831360036152E-12
(PID.TID 0000.0001)  cg2d: iter=   122 ; resid.=  3.40268205969039E-12
(PID.TID 0000.0001)  cg2d: iter=   123 ; resid.=  2.51638813745566E-12
(PID.TID 0000.0001)  cg2d: iter=   124 ; resid.=  2.02544577925237E-12
(PID.TID 0000.0001)  cg2d: iter=   125 ; resid.=  1.59857012718579E-12
(PID.TID 0000.0001)  cg2d: iter=   126 ; resid.=  1.12654906292155E-12
(PID.TID 0000.0001)  cg2d: iter=   127 ; resid.=  7.41615429149716E-13
(PID.TID 0000.0001)  cg2d: iter=   128 ; resid.=  5.50389091523334E-13
(PID.TID 0000.0001)  cg2d: iter=   129 ; resid.=  3.93677011477903E-13
(PID.TID 0000.0001)  cg2d: iter=   130 ; resid.=  2.90998279555233E-13
(PID.TID 0000.0001)  cg2d: iter=   131 ; resid.=  2.16739587745863E-13
(PID.TID 0000.0001)  cg2d: iter=   132 ; resid.=  1.59810020064593E-13
(PID.TID 0000.0001)  cg2d: iter=   133 ; resid.=  1.25602864517818E-13
(PID.TID 0000.0001)  cg2d: iter=   134 ; resid.=  1.02910538190708E-13
(PID.TID 0000.0001)  cg2d: iter=   135 ; resid.=  8.66003086466404E-14
DEBUG_STATS_RL:    cg2d_x (SOLVE_FOR_PRESSURE)  min= -2.09817820028754E+01
DEBUG_STATS_RL:    cg2d_x (SOLVE_FOR_PRESSURE)  max=  1.06922340381313E+01
DEBUG_STATS_RL:    cg2d_x (SOLVE_FOR_PRESSURE) mean= -1.95856862640431E+00
DEBUG_STATS_RL:    cg2d_x (SOLVE_FOR_PRESSURE) S.D.=  8.29535307659809E+00
(PID.TID 0000.0001)      cg2d_init_res =   3.89799131545707E-01
(PID.TID 0000.0001)      cg2d_iters(min,last) =      -1     135
(PID.TID 0000.0001)      cg2d_last_res =   8.66003086466404E-14
(PID.TID 0000.0001) // =======================================================
(PID.TID 0000.0001) // Begin MONITOR dynamic field statistics
(PID.TID 0000.0001) // =======================================================
(PID.TID 0000.0001) %MON time_tsnumber                =                    71
(PID.TID 0000.0001) %MON time_secondsf                =   6.1344000000000E+06
(PID.TID 0000.0001) %MON dynstat_eta_max              =   1.0899321139787E+00
(PID.TID 0000.0001) %MON dynstat_eta_min              =  -2.1388156985603E+00
(PID.TID 0000.0001) %MON dynstat_eta_mean             =  -5.0864177210775E-03
(PID.TID 0000.0001) %MON dynstat_eta_sd               =   7.5145763945794E-01
(PID.TID 0000.0001) %MON dynstat_eta_del2             =   2.4702179621821E-03
(PID.TID 0000.0001) %MON dynstat_uvel_max             =   1.6257328443965E-01
(PID.TID 0000.0001) %MON dynstat_uvel_min             =  -1.4357491010375E-01
(PID.TID 0000.0001) %MON dynstat_uvel_mean            =   2.5943615077521E-03
(PID.TID 0000.0001) %MON dynstat_uvel_sd              =   2.0770799502942E-02
(PID.TID 0000.0001) %MON dynstat_uvel_del2            =   1.4030284040350E-04
(PID.TID 0000.0001) %MON dynstat_vvel_max             =   1.6446697195798E-01
(PID.TID 0000.0001) %MON dynstat_vvel_min             =  -1.1356794759611E-01
(PID.TID 0000.0001) %MON dynstat_vvel_mean            =  -1.9872844629285E-04
(PID.TID 0000.0001) %MON dynstat_vvel_sd              =   1.0604920958097E-02
(PID.TID 0000.0001) %MON dynstat_vvel_del2            =   9.2263608060727E-05
(PID.TID 0000.0001) %MON dynstat_wvel_max             =   1.2119651276610E-04
(PID.TID 0000.0001) %MON dynstat_wvel_min             =  -1.1975781363963E-04
(PID.TID 0000.0001) %MON dynstat_wvel_mean            =   4.5002242696984E-23
(PID.TID 0000.0001) %MON dynstat_wvel_sd              =   1.5688440268548E-05
(PID.TID 0000.0001) %MON dynstat_wvel_del2            =   1.4916690118333E-07
(PID.TID 0000.0001) %MON dynstat_theta_max            =   3.0834863712646E+01
(PID.TID 0000.0001) %MON dynstat_theta_min            =  -1.9525954312599E+00
(PID.TID 0000.0001) %MON dynstat_theta_mean           =   3.6535086183261E+00
(PID.TID 0000.0001) %MON dynstat_theta_sd             =   4.4255602340581E+00
(PID.TID 0000.0001) %MON dynstat_theta_del2           =   4.9204282110868E-03
(PID.TID 0000.0001) %MON dynstat_salt_max             =   3.7497429576118E+01
(PID.TID 0000.0001) %MON dynstat_salt_min             =   2.9927396368921E+01
(PID.TID 0000.0001) %MON dynstat_salt_mean            =   3.4748008874683E+01
(PID.TID 0000.0001) %MON dynstat_salt_sd              =   2.9652637361079E-01
(PID.TID 0000.0001) %MON dynstat_salt_del2            =   9.9418267704511E-04
(PID.TID 0000.0001) %MON dynstat_sst_max              =   3.0834863712646E+01
(PID.TID 0000.0001) %MON dynstat_sst_min              =  -1.9525954312599E+00
(PID.TID 0000.0001) %MON dynstat_sst_mean             =   1.9073661704722E+01
(PID.TID 0000.0001) %MON dynstat_sst_sd               =   9.1158715874153E+00
(PID.TID 0000.0001) %MON dynstat_sst_del2             =   2.8530014738775E-02
(PID.TID 0000.0001) %MON dynstat_sss_max              =   3.7481741652509E+01
(PID.TID 0000.0001) %MON dynstat_sss_min              =   2.9927396368921E+01
(PID.TID 0000.0001) %MON dynstat_sss_mean             =   3.4868971992437E+01
(PID.TID 0000.0001) %MON dynstat_sss_sd               =   9.8434151998073E-01
(PID.TID 0000.0001) %MON dynstat_sss_del2             =   8.1289059530556E-03
(PID.TID 0000.0001) %MON forcing_qnet_max             =   2.8849844868978E+02
(PID.TID 0000.0001) %MON forcing_qnet_min             =  -1.6535198720296E+02
(PID.TID 0000.0001) %MON forcing_qnet_mean            =  -8.3817634882777E+00
(PID.TID 0000.0001) %MON forcing_qnet_sd              =   4.9864795267644E+01
(PID.TID 0000.0001) %MON forcing_qnet_del2            =   8.5719679671987E-01
(PID.TID 0000.0001) %MON forcing_qsw_max              =   0.0000000000000E+00
(PID.TID 0000.0001) %MON forcing_qsw_min              =   0.0000000000000E+00
(PID.TID 0000.0001) %MON forcing_qsw_mean             =   0.0000000000000E+00
(PID.TID 0000.0001) %MON forcing_qsw_sd               =   0.0000000000000E+00
(PID.TID 0000.0001) %MON forcing_qsw_del2             =   0.0000000000000E+00
(PID.TID 0000.0001) %MON forcing_empmr_max            =   6.9137603494103E-05
(PID.TID 0000.0001) %MON forcing_empmr_min            =  -8.1268519617576E-05
(PID.TID 0000.0001) %MON forcing_empmr_mean           =   6.1616070805047E-07
(PID.TID 0000.0001) %MON forcing_empmr_sd             =   2.6421504912725E-05
(PID.TID 0000.0001) %MON forcing_empmr_del2           =   3.6086334081367E-07
(PID.TID 0000.0001) %MON forcing_fu_max               =   3.4784431755543E-01
(PID.TID 0000.0001) %MON forcing_fu_min               =  -3.5669582585494E-01
(PID.TID 0000.0001) %MON forcing_fu_mean              =   1.9985731353096E-02
(PID.TID 0000.0001) %MON forcing_fu_sd                =   9.9411775460539E-02
(PID.TID 0000.0001) %MON forcing_fu_del2              =   7.8843066227507E-04
(PID.TID 0000.0001) %MON forcing_fv_max               =   1.6417456045747E-01
(PID.TID 0000.0001) %MON forcing_fv_min               =  -1.8584267546733E-01
(PID.TID 0000.0001) %MON forcing_fv_mean              =  -7.4774336901972E-03
(PID.TID 0000.0001) %MON forcing_fv_sd                =   4.1978074219208E-02
(PID.TID 0000.0001) %MON forcing_fv_del2              =   4.8213719373275E-04
(PID.TID 0000.0001) %MON trAdv_CFL_u_max              =   5.2023596116054E-02
(PID.TID 0000.0001) %MON trAdv_CFL_v_max              =   3.1687849853442E-02
(PID.TID 0000.0001) %MON trAdv_CFL_w_max              =   5.5302513298175E-02
(PID.TID 0000.0001) %MON advcfl_uvel_max              =   4.9655968040200E-02
(PID.TID 0000.0001) %MON advcfl_vvel_max              =   3.1953294918328E-02
(PID.TID 0000.0001) %MON advcfl_wvel_max              =   5.8494697733779E-02
(PID.TID 0000.0001) %MON advcfl_W_hf_max              =   6.8940179471954E-02
(PID.TID 0000.0001) %MON pe_b_mean                    =   7.2262021250165E-04
(PID.TID 0000.0001) %MON ke_max                       =   1.8448377790654E-02
(PID.TID 0000.0001) %MON ke_mean                      =   2.4956918167959E-04
(PID.TID 0000.0001) %MON ke_vol                       =   1.3226782436723E+18
(PID.TID 0000.0001) %MON vort_r_min                   =  -3.8260053765770E-07
(PID.TID 0000.0001) %MON vort_r_max                   =   6.5638273654411E-07
(PID.TID 0000.0001) %MON vort_a_mean                  =  -2.5274806331885E-05
(PID.TID 0000.0001) %MON vort_a_sd                    =   7.3604723658536E-05
(PID.TID 0000.0001) %MON vort_p_mean                  =  -3.1845654456884E-05
(PID.TID 0000.0001) %MON vort_p_sd                    =   1.3162488161489E-04
(PID.TID 0000.0001) %MON surfExpan_theta_mean         =   1.2816218760667E-06
(PID.TID 0000.0001) %MON surfExpan_salt_mean          =  -3.3568372025275E-07
(PID.TID 0000.0001) // =======================================================
(PID.TID 0000.0001) // End MONITOR dynamic field statistics
(PID.TID 0000.0001) // =======================================================
 EXTERNAL_FIELDS_LOAD,        71 : iP,iLd,i0,i1=    2    3    2    3 ; Wght=  0.1333333333  0.8666666667
 EXTERNAL_FIELDS_LOAD: (fu0,1),fu,fv= -1.4435E-02 -2.7199E-02 -2.5497E-02 -2.8524E-03
 EXTERNAL_FIELDS_LOAD: SST,SSS,Q,E-P= -2.3030E-01  3.4558E+01  2.1874E+02  8.9870E-06
DEBUG_STATS_RL:          Uvel (THERMODYNAMICS)  min= -1.43574910103752E-01
DEBUG_STATS_RL:          Uvel (THERMODYNAMICS)  max=  1.62573284439649E-01
DEBUG_STATS_RL:          Uvel (THERMODYNAMICS) mean=  6.36332534956954E-03
DEBUG_STATS_RL:          Uvel (THERMODYNAMICS) S.D.=  2.72959157667741E-02
DEBUG_STATS_RL:          Vvel (THERMODYNAMICS)  min= -1.13567947596106E-01
DEBUG_STATS_RL:          Vvel (THERMODYNAMICS)  max=  1.64466971957976E-01
DEBUG_STATS_RL:          Vvel (THERMODYNAMICS) mean=  2.90789528391567E-04
DEBUG_STATS_RL:          Vvel (THERMODYNAMICS) S.D.=  1.53776852603058E-02
DEBUG_STATS_RL:          Wvel (THERMODYNAMICS)  min= -1.19757813639634E-04
DEBUG_STATS_RL:          Wvel (THERMODYNAMICS)  max=  1.21196512766097E-04
DEBUG_STATS_RL:          Wvel (THERMODYNAMICS) mean= -1.26661413544246E-07
DEBUG_STATS_RL:          Wvel (THERMODYNAMICS) S.D.=  1.34205972882945E-05
DEBUG_STATS_RL:         Theta (THERMODYNAMICS)  min= -1.95300739585839E+00
DEBUG_STATS_RL:         Theta (THERMODYNAMICS)  max=  3.08518782608412E+01
DEBUG_STATS_RL:         Theta (THERMODYNAMICS) mean=  3.25097723763233E+00
DEBUG_STATS_RL:         Theta (THERMODYNAMICS) S.D.=  5.88269787202933E+00
DEBUG_STATS_RL:          Salt (THERMODYNAMICS)  min=  3.00000000000000E-02
DEBUG_STATS_RL:          Salt (THERMODYNAMICS)  max=  3.74973912222340E+01
DEBUG_STATS_RL:          Salt (THERMODYNAMICS) mean=  1.88747710162746E+01
DEBUG_STATS_RL:          Salt (THERMODYNAMICS) S.D.=  1.73003133844388E+01
DEBUG_STATS_RL:         GtNm1 (THERMODYNAMICS)  min= -1.97597474377220E-06
DEBUG_STATS_RL:         GtNm1 (THERMODYNAMICS)  max=  1.95707138104061E-06
DEBUG_STATS_RL:         GtNm1 (THERMODYNAMICS) mean=  1.99325438366961E-09
DEBUG_STATS_RL:         GtNm1 (THERMODYNAMICS) S.D.=  1.67866992668046E-07
DEBUG_STATS_RL:         GsNm1 (THERMODYNAMICS)  min= -3.47050190444890E-07
DEBUG_STATS_RL:         GsNm1 (THERMODYNAMICS)  max=  2.50705195966479E-07
DEBUG_STATS_RL:         GsNm1 (THERMODYNAMICS) mean=  5.42804146384870E-11
DEBUG_STATS_RL:         GsNm1 (THERMODYNAMICS) S.D.=  1.54969382846544E-08
DEBUG_STATS_RL:                EtaN (DYNAMICS)  min= -2.13881569856025E+00
DEBUG_STATS_RL:                EtaN (DYNAMICS)  max=  1.08993211397874E+00
DEBUG_STATS_RL:                EtaN (DYNAMICS) mean= -1.99650216758850E-01
DEBUG_STATS_RL:                EtaN (DYNAMICS) S.D.=  8.45601740733752E-01
DEBUG_STATS_RL:                Uvel (DYNAMICS)  min= -1.43574910103752E-01
DEBUG_STATS_RL:                Uvel (DYNAMICS)  max=  1.62573284439649E-01
DEBUG_STATS_RL:                Uvel (DYNAMICS) mean=  6.36332534956954E-03
DEBUG_STATS_RL:                Uvel (DYNAMICS) S.D.=  2.72959157667741E-02
DEBUG_STATS_RL:                Vvel (DYNAMICS)  min= -1.13567947596106E-01
DEBUG_STATS_RL:                Vvel (DYNAMICS)  max=  1.64466971957976E-01
DEBUG_STATS_RL:                Vvel (DYNAMICS) mean=  2.90789528391567E-04
DEBUG_STATS_RL:                Vvel (DYNAMICS) S.D.=  1.53776852603058E-02
DEBUG_STATS_RL:                Wvel (DYNAMICS)  min= -1.19757813639634E-04
DEBUG_STATS_RL:                Wvel (DYNAMICS)  max=  1.21196512766097E-04
DEBUG_STATS_RL:                Wvel (DYNAMICS) mean= -1.26661413544246E-07
DEBUG_STATS_RL:                Wvel (DYNAMICS) S.D.=  1.34205972882945E-05
DEBUG_STATS_RL:               Theta (DYNAMICS)  min= -1.95300739585839E+00
DEBUG_STATS_RL:               Theta (DYNAMICS)  max=  3.08518782608412E+01
DEBUG_STATS_RL:               Theta (DYNAMICS) mean=  3.25097723763233E+00
DEBUG_STATS_RL:               Theta (DYNAMICS) S.D.=  5.88269787202933E+00
DEBUG_STATS_RL:                Salt (DYNAMICS)  min=  3.00000000000000E-02
DEBUG_STATS_RL:                Salt (DYNAMICS)  max=  3.74973912222340E+01
DEBUG_STATS_RL:                Salt (DYNAMICS) mean=  1.88747710162746E+01
DEBUG_STATS_RL:                Salt (DYNAMICS) S.D.=  1.73003133844388E+01
DEBUG_STATS_RL:                  Gu (DYNAMICS)  min= -1.41513400729008E-01
DEBUG_STATS_RL:                  Gu (DYNAMICS)  max=  1.55335981499722E-01
DEBUG_STATS_RL:                  Gu (DYNAMICS) mean=  6.28452451910548E-03
DEBUG_STATS_RL:                  Gu (DYNAMICS) S.D.=  2.76060666032294E-02
DEBUG_STATS_RL:                  Gv (DYNAMICS)  min= -9.65496030416864E-02
DEBUG_STATS_RL:                  Gv (DYNAMICS)  max=  1.65130910152600E-01
DEBUG_STATS_RL:                  Gv (DYNAMICS) mean=  3.34914478880371E-03
DEBUG_STATS_RL:                  Gv (DYNAMICS) S.D.=  1.64644902366520E-02
DEBUG_STATS_RL:               GuNm1 (DYNAMICS)  min= -1.10808676502874E-05
DEBUG_STATS_RL:               GuNm1 (DYNAMICS)  max=  9.45084582390499E-06
DEBUG_STATS_RL:               GuNm1 (DYNAMICS) mean=  8.36746390278340E-09
DEBUG_STATS_RL:               GuNm1 (DYNAMICS) S.D.=  1.22428114254263E-06
DEBUG_STATS_RL:               GvNm1 (DYNAMICS)  min= -1.03998478708168E-05
DEBUG_STATS_RL:               GvNm1 (DYNAMICS)  max=  1.55454064220054E-05
DEBUG_STATS_RL:               GvNm1 (DYNAMICS) mean=  7.43491953156603E-07
DEBUG_STATS_RL:               GvNm1 (DYNAMICS) S.D.=  2.65040640667085E-06
DEBUG_STATS_RL:               GtNm1 (DYNAMICS)  min= -1.97597474377220E-06
DEBUG_STATS_RL:               GtNm1 (DYNAMICS)  max=  1.95707138104061E-06
DEBUG_STATS_RL:               GtNm1 (DYNAMICS) mean=  1.99325438366961E-09
DEBUG_STATS_RL:               GtNm1 (DYNAMICS) S.D.=  1.67866992668046E-07
DEBUG_STATS_RL:               GsNm1 (DYNAMICS)  min= -3.47050190444890E-07
DEBUG_STATS_RL:               GsNm1 (DYNAMICS)  max=  2.50705195966479E-07
DEBUG_STATS_RL:               GsNm1 (DYNAMICS) mean=  5.42804146384870E-11
DEBUG_STATS_RL:               GsNm1 (DYNAMICS) S.D.=  1.54969382846544E-08
DEBUG_STATS_RL:    cg2d_b (SOLVE_FOR_PRESSURE)  min= -1.90200013432617E+04
DEBUG_STATS_RL:    cg2d_b (SOLVE_FOR_PRESSURE)  max=  2.65699801551858E+04
DEBUG_STATS_RL:    cg2d_b (SOLVE_FOR_PRESSURE) mean=  4.92321176697864E+00
DEBUG_STATS_RL:    cg2d_b (SOLVE_FOR_PRESSURE) S.D.=  4.10036000417457E+03
 cg2d: Sum(rhs),rhsMax =   4.28951590252967E-01  1.74518743574063E+00
(PID.TID 0000.0001)  cg2d: iter=     1 ; resid.=  2.73866876506387E-01
(PID.TID 0000.0001)  cg2d: iter=     2 ; resid.=  2.72645278142484E-01
(PID.TID 0000.0001)  cg2d: iter=     3 ; resid.=  2.58471334440897E-01
(PID.TID 0000.0001)  cg2d: iter=     4 ; resid.=  2.39731865761159E-01
(PID.TID 0000.0001)  cg2d: iter=     5 ; resid.=  2.33536607199269E-01
(PID.TID 0000.0001)  cg2d: iter=     6 ; resid.=  1.96213738430816E-01
(PID.TID 0000.0001)  cg2d: iter=     7 ; resid.=  1.46802472469161E-01
(PID.TID 0000.0001)  cg2d: iter=     8 ; resid.=  1.04793741770916E-01
(PID.TID 0000.0001)  cg2d: iter=     9 ; resid.=  8.01446454230990E-02
(PID.TID 0000.0001)  cg2d: iter=    10 ; resid.=  6.35782271582738E-02
(PID.TID 0000.0001)  cg2d: iter=    11 ; resid.=  5.72760173476039E-02
(PID.TID 0000.0001)  cg2d: iter=    12 ; resid.=  4.80243878668906E-02
(PID.TID 0000.0001)  cg2d: iter=    13 ; resid.=  3.96549539683740E-02
(PID.TID 0000.0001)  cg2d: iter=    14 ; resid.=  3.39629424909480E-02
(PID.TID 0000.0001)  cg2d: iter=    15 ; resid.=  2.74953511321087E-02
(PID.TID 0000.0001)  cg2d: iter=    16 ; resid.=  2.52774608923144E-02
(PID.TID 0000.0001)  cg2d: iter=    17 ; resid.=  2.27146695944437E-02
(PID.TID 0000.0001)  cg2d: iter=    18 ; resid.=  1.87498677456676E-02
(PID.TID 0000.0001)  cg2d: iter=    19 ; resid.=  1.43674492702230E-02
(PID.TID 0000.0001)  cg2d: iter=    20 ; resid.=  1.11851382430707E-02
(PID.TID 0000.0001)  cg2d: iter=    21 ; resid.=  9.88858716354891E-03
(PID.TID 0000.0001)  cg2d: iter=    22 ; resid.=  8.72812349493251E-03
(PID.TID 0000.0001)  cg2d: iter=    23 ; resid.=  7.16061875546575E-03
(PID.TID 0000.0001)  cg2d: iter=    24 ; resid.=  6.22244450147423E-03
(PID.TID 0000.0001)  cg2d: iter=    25 ; resid.=  4.77112825317238E-03
(PID.TID 0000.0001)  cg2d: iter=    26 ; resid.=  3.77393194707820E-03
(PID.TID 0000.0001)  cg2d: iter=    27 ; resid.=  2.87263797062263E-03
(PID.TID 0000.0001)  cg2d: iter=    28 ; resid.=  2.31049143106032E-03
(PID.TID 0000.0001)  cg2d: iter=    29 ; resid.=  1.86263279207689E-03
(PID.TID 0000.0001)  cg2d: iter=    30 ; resid.=  1.61499673172388E-03
(PID.TID 0000.0001)  cg2d: iter=    31 ; resid.=  1.32768477385508E-03
(PID.TID 0000.0001)  cg2d: iter=    32 ; resid.=  9.97924437608503E-04
(PID.TID 0000.0001)  cg2d: iter=    33 ; resid.=  8.70098447312009E-04
(PID.TID 0000.0001)  cg2d: iter=    34 ; resid.=  7.66588406197068E-04
(PID.TID 0000.0001)  cg2d: iter=    35 ; resid.=  6.49530987233378E-04
(PID.TID 0000.0001)  cg2d: iter=    36 ; resid.=  5.65372517033805E-04
(PID.TID 0000.0001)  cg2d: iter=    37 ; resid.=  4.77129846402680E-04
(PID.TID 0000.0001)  cg2d: iter=    38 ; resid.=  4.16819550107472E-04
(PID.TID 0000.0001)  cg2d: iter=    39 ; resid.=  3.46522946664809E-04
(PID.TID 0000.0001)  cg2d: iter=    40 ; resid.=  3.05158827197297E-04
(PID.TID 0000.0001)  cg2d: iter=    41 ; resid.=  2.50466965971614E-04
(PID.TID 0000.0001)  cg2d: iter=    42 ; resid.=  2.15417899741118E-04
(PID.TID 0000.0001)  cg2d: iter=    43 ; resid.=  1.68898724249337E-04
(PID.TID 0000.0001)  cg2d: iter=    44 ; resid.=  1.34234486375026E-04
(PID.TID 0000.0001)  cg2d: iter=    45 ; resid.=  1.12228028271515E-04
(PID.TID 0000.0001)  cg2d: iter=    46 ; resid.=  8.91943524277279E-05
(PID.TID 0000.0001)  cg2d: iter=    47 ; resid.=  7.97018508250062E-05
(PID.TID 0000.0001)  cg2d: iter=    48 ; resid.=  6.78671631679289E-05
(PID.TID 0000.0001)  cg2d: iter=    49 ; resid.=  5.93934352483098E-05
(PID.TID 0000.0001)  cg2d: iter=    50 ; resid.=  5.24611349724479E-05
(PID.TID 0000.0001)  cg2d: iter=    51 ; resid.=  4.58656809713390E-05
(PID.TID 0000.0001)  cg2d: iter=    52 ; resid.=  3.88872144597821E-05
(PID.TID 0000.0001)  cg2d: iter=    53 ; resid.=  3.17877424533389E-05
(PID.TID 0000.0001)  cg2d: iter=    54 ; resid.=  2.42022250093039E-05
(PID.TID 0000.0001)  cg2d: iter=    55 ; resid.=  2.04096291095349E-05
(PID.TID 0000.0001)  cg2d: iter=    56 ; resid.=  1.80724338250914E-05
(PID.TID 0000.0001)  cg2d: iter=    57 ; resid.=  1.54046682880948E-05
(PID.TID 0000.0001)  cg2d: iter=    58 ; resid.=  1.20246165067905E-05
(PID.TID 0000.0001)  cg2d: iter=    59 ; resid.=  9.34340405280612E-06
(PID.TID 0000.0001)  cg2d: iter=    60 ; resid.=  7.44702180072273E-06
(PID.TID 0000.0001)  cg2d: iter=    61 ; resid.=  6.17692526804427E-06
(PID.TID 0000.0001)  cg2d: iter=    62 ; resid.=  5.22731340216859E-06
(PID.TID 0000.0001)  cg2d: iter=    63 ; resid.=  4.71768087096285E-06
(PID.TID 0000.0001)  cg2d: iter=    64 ; resid.=  3.72461881901008E-06
(PID.TID 0000.0001)  cg2d: iter=    65 ; resid.=  2.95223584284336E-06
(PID.TID 0000.0001)  cg2d: iter=    66 ; resid.=  2.42320626378687E-06
(PID.TID 0000.0001)  cg2d: iter=    67 ; resid.=  2.04705643192018E-06
(PID.TID 0000.0001)  cg2d: iter=    68 ; resid.=  1.73851836982752E-06
(PID.TID 0000.0001)  cg2d: iter=    69 ; resid.=  1.53906903707358E-06
(PID.TID 0000.0001)  cg2d: iter=    70 ; resid.=  1.25268226502282E-06
(PID.TID 0000.0001)  cg2d: iter=    71 ; resid.=  1.02341641792022E-06
(PID.TID 0000.0001)  cg2d: iter=    72 ; resid.=  9.06310742256752E-07
(PID.TID 0000.0001)  cg2d: iter=    73 ; resid.=  8.15807792941950E-07
(PID.TID 0000.0001)  cg2d: iter=    74 ; resid.=  6.74501580175657E-07
(PID.TID 0000.0001)  cg2d: iter=    75 ; resid.=  5.33281685966432E-07
(PID.TID 0000.0001)  cg2d: iter=    76 ; resid.=  4.37518212978053E-07
(PID.TID 0000.0001)  cg2d: iter=    77 ; resid.=  3.35443657925432E-07
(PID.TID 0000.0001)  cg2d: iter=    78 ; resid.=  2.61504386166386E-07
(PID.TID 0000.0001)  cg2d: iter=    79 ; resid.=  2.18347345714088E-07
(PID.TID 0000.0001)  cg2d: iter=    80 ; resid.=  1.61835441702981E-07
(PID.TID 0000.0001)  cg2d: iter=    81 ; resid.=  1.20272910969462E-07
(PID.TID 0000.0001)  cg2d: iter=    82 ; resid.=  8.57618927637122E-08
(PID.TID 0000.0001)  cg2d: iter=    83 ; resid.=  6.34867978588517E-08
(PID.TID 0000.0001)  cg2d: iter=    84 ; resid.=  4.51114773070821E-08
(PID.TID 0000.0001)  cg2d: iter=    85 ; resid.=  3.29767485262460E-08
(PID.TID 0000.0001)  cg2d: iter=    86 ; resid.=  2.62644667200552E-08
(PID.TID 0000.0001)  cg2d: iter=    87 ; resid.=  2.15084187991871E-08
(PID.TID 0000.0001)  cg2d: iter=    88 ; resid.=  1.76890067251393E-08
(PID.TID 0000.0001)  cg2d: iter=    89 ; resid.=  1.63030075258618E-08
(PID.TID 0000.0001)  cg2d: iter=    90 ; resid.=  1.33773994424163E-08
(PID.TID 0000.0001)  cg2d: iter=    91 ; resid.=  9.86875045425180E-09
(PID.TID 0000.0001)  cg2d: iter=    92 ; resid.=  7.83183441791186E-09
(PID.TID 0000.0001)  cg2d: iter=    93 ; resid.=  6.19643970928016E-09
(PID.TID 0000.0001)  cg2d: iter=    94 ; resid.=  4.91460342423497E-09
(PID.TID 0000.0001)  cg2d: iter=    95 ; resid.=  3.98433791998442E-09
(PID.TID 0000.0001)  cg2d: iter=    96 ; resid.=  3.09093194959137E-09
(PID.TID 0000.0001)  cg2d: iter=    97 ; resid.=  2.38835301938950E-09
(PID.TID 0000.0001)  cg2d: iter=    98 ; resid.=  2.02471067663800E-09
(PID.TID 0000.0001)  cg2d: iter=    99 ; resid.=  1.77340457261804E-09
(PID.TID 0000.0001)  cg2d: iter=   100 ; resid.=  1.68356045756441E-09
(PID.TID 0000.0001)  cg2d: iter=   101 ; resid.=  1.27366586756519E-09
(PID.TID 0000.0001)  cg2d: iter=   102 ; resid.=  1.03774468646025E-09
(PID.TID 0000.0001)  cg2d: iter=   103 ; resid.=  8.02426316468029E-10
(PID.TID 0000.0001)  cg2d: iter=   104 ; resid.=  6.18536111709457E-10
(PID.TID 0000.0001)  cg2d: iter=   105 ; resid.=  4.90060053362437E-10
(PID.TID 0000.0001)  cg2d: iter=   106 ; resid.=  3.96825120188362E-10
(PID.TID 0000.0001)  cg2d: iter=   107 ; resid.=  2.85435929000970E-10
(PID.TID 0000.0001)  cg2d: iter=   108 ; resid.=  2.16925431161346E-10
(PID.TID 0000.0001)  cg2d: iter=   109 ; resid.=  1.61014157056982E-10
(PID.TID 0000.0001)  cg2d: iter=   110 ; resid.=  1.16431251216496E-10
(PID.TID 0000.0001)  cg2d: iter=   111 ; resid.=  9.52402347024754E-11
(PID.TID 0000.0001)  cg2d: iter=   112 ; resid.=  7.41218297066122E-11
(PID.TID 0000.0001)  cg2d: iter=   113 ; resid.=  5.61094192720657E-11
(PID.TID 0000.0001)  cg2d: iter=   114 ; resid.=  4.38256011604715E-11
(PID.TID 0000.0001)  cg2d: iter=   115 ; resid.=  3.55220467899107E-11
(PID.TID 0000.0001)  cg2d: iter=   116 ; resid.=  2.67828123429544E-11
(PID.TID 0000.0001)  cg2d: iter=   117 ; resid.=  2.07263955015152E-11
(PID.TID 0000.0001)  cg2d: iter=   118 ; resid.=  1.51584956956169E-11
(PID.TID 0000.0001)  cg2d: iter=   119 ; resid.=  1.02162021743069E-11
(PID.TID 0000.0001)  cg2d: iter=   120 ; resid.=  7.26993502492370E-12
(PID.TID 0000.0001)  cg2d: iter=   121 ; resid.=  5.58073862721348E-12
(PID.TID 0000.0001)  cg2d: iter=   122 ; resid.=  4.42074025906297E-12
(PID.TID 0000.0001)  cg2d: iter=   123 ; resid.=  3.27925201291958E-12
(PID.TID 0000.0001)  cg2d: iter=   124 ; resid.=  2.59142196136441E-12
(PID.TID 0000.0001)  cg2d: iter=   125 ; resid.=  1.88984849375819E-12
(PID.TID 0000.0001)  cg2d: iter=   126 ; resid.=  1.22867268622539E-12
(PID.TID 0000.0001)  cg2d: iter=   127 ; resid.=  7.81127536930893E-13
(PID.TID 0000.0001)  cg2d: iter=   128 ; resid.=  5.71449297427822E-13
(PID.TID 0000.0001)  cg2d: iter=   129 ; resid.=  4.09871057008127E-13
(PID.TID 0000.0001)  cg2d: iter=   130 ; resid.=  3.04265385908586E-13
(PID.TID 0000.0001)  cg2d: iter=   131 ; resid.=  2.21607572285742E-13
(PID.TID 0000.0001)  cg2d: iter=   132 ; resid.=  1.57265890537575E-13
(PID.TID 0000.0001)  cg2d: iter=   133 ; resid.=  1.18067978533140E-13
(PID.TID 0000.0001)  cg2d: iter=   134 ; resid.=  9.21874415643225E-14
DEBUG_STATS_RL:    cg2d_x (SOLVE_FOR_PRESSURE)  min= -2.16181657020652E+01
DEBUG_STATS_RL:    cg2d_x (SOLVE_FOR_PRESSURE)  max=  1.11356604555944E+01
DEBUG_STATS_RL:    cg2d_x (SOLVE_FOR_PRESSURE) mean= -2.01185849296867E+00
DEBUG_STATS_RL:    cg2d_x (SOLVE_FOR_PRESSURE) S.D.=  8.60101533670317E+00
(PID.TID 0000.0001)      cg2d_init_res =   3.85191105214902E-01
(PID.TID 0000.0001)      cg2d_iters(min,last) =      -1     134
(PID.TID 0000.0001)      cg2d_last_res =   9.21874415643225E-14
(PID.TID 0000.0001) // =======================================================
(PID.TID 0000.0001) // Begin MONITOR dynamic field statistics
(PID.TID 0000.0001) // =======================================================
(PID.TID 0000.0001) %MON time_tsnumber                =                    72
(PID.TID 0000.0001) %MON time_secondsf                =   6.2208000000000E+06
(PID.TID 0000.0001) %MON dynstat_eta_max              =   1.1351335836488E+00
(PID.TID 0000.0001) %MON dynstat_eta_min              =  -2.2036866159089E+00
(PID.TID 0000.0001) %MON dynstat_eta_mean             =  -5.1367610207376E-03
(PID.TID 0000.0001) %MON dynstat_eta_sd               =   7.8753338147537E-01
(PID.TID 0000.0001) %MON dynstat_eta_del2             =   2.4825984938487E-03
(PID.TID 0000.0001) %MON dynstat_uvel_max             =   1.5520599444147E-01
(PID.TID 0000.0001) %MON dynstat_uvel_min             =  -1.4182228920675E-01
(PID.TID 0000.0001) %MON dynstat_uvel_mean            =   2.5874706945581E-03
(PID.TID 0000.0001) %MON dynstat_uvel_sd              =   2.0640741386843E-02
(PID.TID 0000.0001) %MON dynstat_uvel_del2            =   1.4070370588055E-04
(PID.TID 0000.0001) %MON dynstat_vvel_max             =   1.6473778270915E-01
(PID.TID 0000.0001) %MON dynstat_vvel_min             =  -1.0193649387082E-01
(PID.TID 0000.0001) %MON dynstat_vvel_mean            =  -2.1961954772896E-04
(PID.TID 0000.0001) %MON dynstat_vvel_sd              =   1.0508795460752E-02
(PID.TID 0000.0001) %MON dynstat_vvel_del2            =   9.1784211173087E-05
(PID.TID 0000.0001) %MON dynstat_wvel_max             =   1.1468763153292E-04
(PID.TID 0000.0001) %MON dynstat_wvel_min             =  -1.1556854099865E-04
(PID.TID 0000.0001) %MON dynstat_wvel_mean            =   7.3627522455310E-23
(PID.TID 0000.0001) %MON dynstat_wvel_sd              =   1.5570477514217E-05
(PID.TID 0000.0001) %MON dynstat_wvel_del2            =   1.4785206451127E-07
(PID.TID 0000.0001) %MON dynstat_theta_max            =   3.0851878260841E+01
(PID.TID 0000.0001) %MON dynstat_theta_min            =  -1.9530073958584E+00
(PID.TID 0000.0001) %MON dynstat_theta_mean           =   3.6535259392257E+00
(PID.TID 0000.0001) %MON dynstat_theta_sd             =   4.4256876872525E+00
(PID.TID 0000.0001) %MON dynstat_theta_del2           =   4.9169573963345E-03
(PID.TID 0000.0001) %MON dynstat_salt_max             =   3.7497391222234E+01
(PID.TID 0000.0001) %MON dynstat_salt_min             =   2.9926851426035E+01
(PID.TID 0000.0001) %MON dynstat_salt_mean            =   3.4748016962434E+01
(PID.TID 0000.0001) %MON dynstat_salt_sd              =   2.9654944060439E-01
(PID.TID 0000.0001) %MON dynstat_salt_del2            =   9.9455583435084E-04
(PID.TID 0000.0001) %MON dynstat_sst_max              =   3.0851878260841E+01
(PID.TID 0000.0001) %MON dynstat_sst_min              =  -1.9530073958584E+00
(PID.TID 0000.0001) %MON dynstat_sst_mean             =   1.9076959874004E+01
(PID.TID 0000.0001) %MON dynstat_sst_sd               =   9.1221461251629E+00
(PID.TID 0000.0001) %MON dynstat_sst_del2             =   2.8582987794446E-02
(PID.TID 0000.0001) %MON dynstat_sss_max              =   3.7482607504468E+01
(PID.TID 0000.0001) %MON dynstat_sss_min              =   2.9926851426035E+01
(PID.TID 0000.0001) %MON dynstat_sss_mean             =   3.4868947613982E+01
(PID.TID 0000.0001) %MON dynstat_sss_sd               =   9.8465922987934E-01
(PID.TID 0000.0001) %MON dynstat_sss_del2             =   8.1409327661295E-03
(PID.TID 0000.0001) %MON forcing_qnet_max             =   2.8570029703776E+02
(PID.TID 0000.0001) %MON forcing_qnet_min             =  -1.6505270792643E+02
(PID.TID 0000.0001) %MON forcing_qnet_mean            =  -8.1584239886512E+00
(PID.TID 0000.0001) %MON forcing_qnet_sd              =   4.9087615346713E+01
(PID.TID 0000.0001) %MON forcing_qnet_del2            =   8.5584718826358E-01
(PID.TID 0000.0001) %MON forcing_qsw_max              =   0.0000000000000E+00
(PID.TID 0000.0001) %MON forcing_qsw_min              =   0.0000000000000E+00
(PID.TID 0000.0001) %MON forcing_qsw_mean             =   0.0000000000000E+00
(PID.TID 0000.0001) %MON forcing_qsw_sd               =   0.0000000000000E+00
(PID.TID 0000.0001) %MON forcing_qsw_del2             =   0.0000000000000E+00
(PID.TID 0000.0001) %MON forcing_empmr_max            =   6.9131847150553E-05
(PID.TID 0000.0001) %MON forcing_empmr_min            =  -8.1667699210660E-05
(PID.TID 0000.0001) %MON forcing_empmr_mean           =   6.0307077717612E-07
(PID.TID 0000.0001) %MON forcing_empmr_sd             =   2.6389948211674E-05
(PID.TID 0000.0001) %MON forcing_empmr_del2           =   3.6187086686805E-07
(PID.TID 0000.0001) %MON forcing_fu_max               =   3.4978573322296E-01
(PID.TID 0000.0001) %MON forcing_fu_min               =  -3.6306794484456E-01
(PID.TID 0000.0001) %MON forcing_fu_mean              =   2.0079930942554E-02
(PID.TID 0000.0001) %MON forcing_fu_sd                =   9.9921924992738E-02
(PID.TID 0000.0001) %MON forcing_fu_del2              =   7.9937861961633E-04
(PID.TID 0000.0001) %MON forcing_fv_max               =   1.6799971759319E-01
(PID.TID 0000.0001) %MON forcing_fv_min               =  -1.8734046618144E-01
(PID.TID 0000.0001) %MON forcing_fv_mean              =  -7.4878620401667E-03
(PID.TID 0000.0001) %MON forcing_fv_sd                =   4.2084455794319E-02
(PID.TID 0000.0001) %MON forcing_fv_del2              =   4.8631922143069E-04
(PID.TID 0000.0001) %MON trAdv_CFL_u_max              =   4.9666053522454E-02
(PID.TID 0000.0001) %MON trAdv_CFL_v_max              =   3.1823084619005E-02
(PID.TID 0000.0001) %MON trAdv_CFL_w_max              =   5.3712311830425E-02
(PID.TID 0000.0001) %MON advcfl_uvel_max              =   4.9033740857915E-02
(PID.TID 0000.0001) %MON advcfl_vvel_max              =   3.2005909103999E-02
(PID.TID 0000.0001) %MON advcfl_wvel_max              =   5.4658153229154E-02
(PID.TID 0000.0001) %MON advcfl_W_hf_max              =   6.4418537734360E-02
(PID.TID 0000.0001) %MON pe_b_mean                    =   7.9366571406170E-04
(PID.TID 0000.0001) %MON ke_max                       =   1.8689231759351E-02
(PID.TID 0000.0001) %MON ke_mean                      =   2.4619882266852E-04
(PID.TID 0000.0001) %MON ke_vol                       =   1.3226782436723E+18
(PID.TID 0000.0001) %MON vort_r_min                   =  -3.8202030467135E-07
(PID.TID 0000.0001) %MON vort_r_max                   =   6.2194620626786E-07
(PID.TID 0000.0001) %MON vort_a_mean                  =  -2.5274806241719E-05
(PID.TID 0000.0001) %MON vort_a_sd                    =   7.3604722785958E-05
(PID.TID 0000.0001) %MON vort_p_mean                  =  -3.1845654343277E-05
(PID.TID 0000.0001) %MON vort_p_sd                    =   1.3162508395649E-04
(PID.TID 0000.0001) %MON surfExpan_theta_mean         =   1.1982563659526E-06
(PID.TID 0000.0001) %MON surfExpan_salt_mean          =  -3.1063383620647E-07
(PID.TID 0000.0001) // =======================================================
(PID.TID 0000.0001) // End MONITOR dynamic field statistics
(PID.TID 0000.0001) // =======================================================
 EXTERNAL_FIELDS_LOAD,        72 : iP,iLd,i0,i1=    2    3    2    3 ; Wght=  0.1000000000  0.9000000000
 EXTERNAL_FIELDS_LOAD: (fu0,1),fu,fv= -1.4435E-02 -2.7199E-02 -2.5922E-02 -2.2838E-03
 EXTERNAL_FIELDS_LOAD: SST,SSS,Q,E-P= -2.1870E-01  3.4563E+01  2.1790E+02  9.0104E-06
DEBUG_STATS_RL:          Uvel (THERMODYNAMICS)  min= -1.41822289206746E-01
DEBUG_STATS_RL:          Uvel (THERMODYNAMICS)  max=  1.55205994441468E-01
DEBUG_STATS_RL:          Uvel (THERMODYNAMICS) mean=  6.37512272373633E-03
DEBUG_STATS_RL:          Uvel (THERMODYNAMICS) S.D.=  2.71600749869017E-02
DEBUG_STATS_RL:          Vvel (THERMODYNAMICS)  min= -1.01936493870822E-01
DEBUG_STATS_RL:          Vvel (THERMODYNAMICS)  max=  1.64737782709151E-01
DEBUG_STATS_RL:          Vvel (THERMODYNAMICS) mean=  3.47372999019278E-04
DEBUG_STATS_RL:          Vvel (THERMODYNAMICS) S.D.=  1.53414231212463E-02
DEBUG_STATS_RL:          Wvel (THERMODYNAMICS)  min= -1.15568540998649E-04
DEBUG_STATS_RL:          Wvel (THERMODYNAMICS)  max=  1.14687631532919E-04
DEBUG_STATS_RL:          Wvel (THERMODYNAMICS) mean= -1.08517154061868E-07
DEBUG_STATS_RL:          Wvel (THERMODYNAMICS) S.D.=  1.33146958701500E-05
DEBUG_STATS_RL:         Theta (THERMODYNAMICS)  min= -1.95326350199382E+00
DEBUG_STATS_RL:         Theta (THERMODYNAMICS)  max=  3.08695154427840E+01
DEBUG_STATS_RL:         Theta (THERMODYNAMICS) mean=  3.25101805990942E+00
DEBUG_STATS_RL:         Theta (THERMODYNAMICS) S.D.=  5.88312056678993E+00
DEBUG_STATS_RL:          Salt (THERMODYNAMICS)  min=  3.00000000000000E-02
DEBUG_STATS_RL:          Salt (THERMODYNAMICS)  max=  3.74973022950989E+01
DEBUG_STATS_RL:          Salt (THERMODYNAMICS) mean=  1.88747787345715E+01
DEBUG_STATS_RL:          Salt (THERMODYNAMICS) S.D.=  1.73003215095722E+01
DEBUG_STATS_RL:         GtNm1 (THERMODYNAMICS)  min= -1.94661022302808E-06
DEBUG_STATS_RL:         GtNm1 (THERMODYNAMICS)  max=  2.18390779237173E-06
DEBUG_STATS_RL:         GtNm1 (THERMODYNAMICS) mean=  1.66921513602403E-09
DEBUG_STATS_RL:         GtNm1 (THERMODYNAMICS) S.D.=  1.67361353779101E-07
DEBUG_STATS_RL:         GsNm1 (THERMODYNAMICS)  min= -3.41819586677030E-07
DEBUG_STATS_RL:         GsNm1 (THERMODYNAMICS)  max=  2.63111517018451E-07
DEBUG_STATS_RL:         GsNm1 (THERMODYNAMICS) mean=  7.71318320983716E-11
DEBUG_STATS_RL:         GsNm1 (THERMODYNAMICS) S.D.=  1.54037959592632E-08
DEBUG_STATS_RL:                EtaN (DYNAMICS)  min= -2.20368661590893E+00
DEBUG_STATS_RL:                EtaN (DYNAMICS)  max=  1.13513358364878E+00
DEBUG_STATS_RL:                EtaN (DYNAMICS) mean= -2.05082415185389E-01
DEBUG_STATS_RL:                EtaN (DYNAMICS) S.D.=  8.76759973160363E-01
DEBUG_STATS_RL:                Uvel (DYNAMICS)  min= -1.41822289206746E-01
DEBUG_STATS_RL:                Uvel (DYNAMICS)  max=  1.55205994441468E-01
DEBUG_STATS_RL:                Uvel (DYNAMICS) mean=  6.37512272373633E-03
DEBUG_STATS_RL:                Uvel (DYNAMICS) S.D.=  2.71600749869017E-02
DEBUG_STATS_RL:                Vvel (DYNAMICS)  min= -1.01936493870822E-01
DEBUG_STATS_RL:                Vvel (DYNAMICS)  max=  1.64737782709151E-01
DEBUG_STATS_RL:                Vvel (DYNAMICS) mean=  3.47372999019278E-04
DEBUG_STATS_RL:                Vvel (DYNAMICS) S.D.=  1.53414231212463E-02
DEBUG_STATS_RL:                Wvel (DYNAMICS)  min= -1.15568540998649E-04
DEBUG_STATS_RL:                Wvel (DYNAMICS)  max=  1.14687631532919E-04
DEBUG_STATS_RL:                Wvel (DYNAMICS) mean= -1.08517154061868E-07
DEBUG_STATS_RL:                Wvel (DYNAMICS) S.D.=  1.33146958701500E-05
DEBUG_STATS_RL:               Theta (DYNAMICS)  min= -1.95326350199382E+00
DEBUG_STATS_RL:               Theta (DYNAMICS)  max=  3.08695154427840E+01
DEBUG_STATS_RL:               Theta (DYNAMICS) mean=  3.25101805990942E+00
DEBUG_STATS_RL:               Theta (DYNAMICS) S.D.=  5.88312056678993E+00
DEBUG_STATS_RL:                Salt (DYNAMICS)  min=  3.00000000000000E-02
DEBUG_STATS_RL:                Salt (DYNAMICS)  max=  3.74973022950989E+01
DEBUG_STATS_RL:                Salt (DYNAMICS) mean=  1.88747787345715E+01
DEBUG_STATS_RL:                Salt (DYNAMICS) S.D.=  1.73003215095722E+01
DEBUG_STATS_RL:                  Gu (DYNAMICS)  min= -1.39644004287266E-01
DEBUG_STATS_RL:                  Gu (DYNAMICS)  max=  1.56365693635631E-01
DEBUG_STATS_RL:                  Gu (DYNAMICS) mean=  6.32239503060817E-03
DEBUG_STATS_RL:                  Gu (DYNAMICS) S.D.=  2.74528372736662E-02
DEBUG_STATS_RL:                  Gv (DYNAMICS)  min= -9.53357558927297E-02
DEBUG_STATS_RL:                  Gv (DYNAMICS)  max=  1.65329865302150E-01
DEBUG_STATS_RL:                  Gv (DYNAMICS) mean=  3.38961771035208E-03
DEBUG_STATS_RL:                  Gv (DYNAMICS) S.D.=  1.64973099215176E-02
DEBUG_STATS_RL:               GuNm1 (DYNAMICS)  min= -1.11856165924053E-05
DEBUG_STATS_RL:               GuNm1 (DYNAMICS)  max=  9.44562448143138E-06
DEBUG_STATS_RL:               GuNm1 (DYNAMICS) mean=  8.45044497324962E-09
DEBUG_STATS_RL:               GuNm1 (DYNAMICS) S.D.=  1.22693405327654E-06
DEBUG_STATS_RL:               GvNm1 (DYNAMICS)  min= -1.03426340233024E-05
DEBUG_STATS_RL:               GvNm1 (DYNAMICS)  max=  1.55418392256487E-05
DEBUG_STATS_RL:               GvNm1 (DYNAMICS) mean=  7.42845129355525E-07
DEBUG_STATS_RL:               GvNm1 (DYNAMICS) S.D.=  2.64789703163051E-06
DEBUG_STATS_RL:               GtNm1 (DYNAMICS)  min= -1.94661022302808E-06
DEBUG_STATS_RL:               GtNm1 (DYNAMICS)  max=  2.18390779237173E-06
DEBUG_STATS_RL:               GtNm1 (DYNAMICS) mean=  1.66921513602403E-09
DEBUG_STATS_RL:               GtNm1 (DYNAMICS) S.D.=  1.67361353779101E-07
DEBUG_STATS_RL:               GsNm1 (DYNAMICS)  min= -3.41819586677030E-07
DEBUG_STATS_RL:               GsNm1 (DYNAMICS)  max=  2.63111517018451E-07
DEBUG_STATS_RL:               GsNm1 (DYNAMICS) mean=  7.71318320983716E-11
DEBUG_STATS_RL:               GsNm1 (DYNAMICS) S.D.=  1.54037959592632E-08
DEBUG_STATS_RL:    cg2d_b (SOLVE_FOR_PRESSURE)  min= -1.90879162500261E+04
DEBUG_STATS_RL:    cg2d_b (SOLVE_FOR_PRESSURE)  max=  2.66379099154811E+04
DEBUG_STATS_RL:    cg2d_b (SOLVE_FOR_PRESSURE) mean=  4.97041486040101E+00
DEBUG_STATS_RL:    cg2d_b (SOLVE_FOR_PRESSURE) S.D.=  4.11302015382547E+03
 cg2d: Sum(rhs),rhsMax =   4.31959956255593E-01  1.74964924427371E+00
(PID.TID 0000.0001)  cg2d: iter=     1 ; resid.=  2.61008527566200E-01
(PID.TID 0000.0001)  cg2d: iter=     2 ; resid.=  2.48537932882889E-01
(PID.TID 0000.0001)  cg2d: iter=     3 ; resid.=  2.36826479313018E-01
(PID.TID 0000.0001)  cg2d: iter=     4 ; resid.=  2.19769629584161E-01
(PID.TID 0000.0001)  cg2d: iter=     5 ; resid.=  2.08788946898724E-01
(PID.TID 0000.0001)  cg2d: iter=     6 ; resid.=  1.79646599642061E-01
(PID.TID 0000.0001)  cg2d: iter=     7 ; resid.=  1.37816962239454E-01
(PID.TID 0000.0001)  cg2d: iter=     8 ; resid.=  9.99727990831541E-02
(PID.TID 0000.0001)  cg2d: iter=     9 ; resid.=  7.75668018942619E-02
(PID.TID 0000.0001)  cg2d: iter=    10 ; resid.=  6.22392692717937E-02
(PID.TID 0000.0001)  cg2d: iter=    11 ; resid.=  5.56388619155777E-02
(PID.TID 0000.0001)  cg2d: iter=    12 ; resid.=  4.54555839847721E-02
(PID.TID 0000.0001)  cg2d: iter=    13 ; resid.=  3.69204837146428E-02
(PID.TID 0000.0001)  cg2d: iter=    14 ; resid.=  3.12526396340337E-02
(PID.TID 0000.0001)  cg2d: iter=    15 ; resid.=  2.55413290271639E-02
(PID.TID 0000.0001)  cg2d: iter=    16 ; resid.=  2.35380887345269E-02
(PID.TID 0000.0001)  cg2d: iter=    17 ; resid.=  2.14798863057275E-02
(PID.TID 0000.0001)  cg2d: iter=    18 ; resid.=  1.82171408137559E-02
(PID.TID 0000.0001)  cg2d: iter=    19 ; resid.=  1.38466444105508E-02
(PID.TID 0000.0001)  cg2d: iter=    20 ; resid.=  1.07019724353455E-02
(PID.TID 0000.0001)  cg2d: iter=    21 ; resid.=  9.38402032498858E-03
(PID.TID 0000.0001)  cg2d: iter=    22 ; resid.=  8.23083212985699E-03
(PID.TID 0000.0001)  cg2d: iter=    23 ; resid.=  6.74123403410682E-03
(PID.TID 0000.0001)  cg2d: iter=    24 ; resid.=  5.80609924841332E-03
(PID.TID 0000.0001)  cg2d: iter=    25 ; resid.=  4.53326351382382E-03
(PID.TID 0000.0001)  cg2d: iter=    26 ; resid.=  3.63846461359512E-03
(PID.TID 0000.0001)  cg2d: iter=    27 ; resid.=  2.80424655022286E-03
(PID.TID 0000.0001)  cg2d: iter=    28 ; resid.=  2.30615774815848E-03
(PID.TID 0000.0001)  cg2d: iter=    29 ; resid.=  1.87688024808271E-03
(PID.TID 0000.0001)  cg2d: iter=    30 ; resid.=  1.62496391496781E-03
(PID.TID 0000.0001)  cg2d: iter=    31 ; resid.=  1.31557642904076E-03
(PID.TID 0000.0001)  cg2d: iter=    32 ; resid.=  9.85121199788485E-04
(PID.TID 0000.0001)  cg2d: iter=    33 ; resid.=  8.56062310629466E-04
(PID.TID 0000.0001)  cg2d: iter=    34 ; resid.=  7.46853922591560E-04
(PID.TID 0000.0001)  cg2d: iter=    35 ; resid.=  6.43013265922959E-04
(PID.TID 0000.0001)  cg2d: iter=    36 ; resid.=  5.65633507962681E-04
(PID.TID 0000.0001)  cg2d: iter=    37 ; resid.=  4.83807539508289E-04
(PID.TID 0000.0001)  cg2d: iter=    38 ; resid.=  4.25186218318370E-04
(PID.TID 0000.0001)  cg2d: iter=    39 ; resid.=  3.55237444395396E-04
(PID.TID 0000.0001)  cg2d: iter=    40 ; resid.=  3.13747647040744E-04
(PID.TID 0000.0001)  cg2d: iter=    41 ; resid.=  2.58339031803326E-04
(PID.TID 0000.0001)  cg2d: iter=    42 ; resid.=  2.22325155855074E-04
(PID.TID 0000.0001)  cg2d: iter=    43 ; resid.=  1.74571478779865E-04
(PID.TID 0000.0001)  cg2d: iter=    44 ; resid.=  1.38023384733538E-04
(PID.TID 0000.0001)  cg2d: iter=    45 ; resid.=  1.13717231841988E-04
(PID.TID 0000.0001)  cg2d: iter=    46 ; resid.=  9.07022714623619E-05
(PID.TID 0000.0001)  cg2d: iter=    47 ; resid.=  8.12418595068437E-05
(PID.TID 0000.0001)  cg2d: iter=    48 ; resid.=  6.88414871276706E-05
(PID.TID 0000.0001)  cg2d: iter=    49 ; resid.=  5.95330740601829E-05
(PID.TID 0000.0001)  cg2d: iter=    50 ; resid.=  5.15841853451890E-05
(PID.TID 0000.0001)  cg2d: iter=    51 ; resid.=  4.47591159130827E-05
(PID.TID 0000.0001)  cg2d: iter=    52 ; resid.=  3.78879952910234E-05
(PID.TID 0000.0001)  cg2d: iter=    53 ; resid.=  3.10879523290833E-05
(PID.TID 0000.0001)  cg2d: iter=    54 ; resid.=  2.38922709002965E-05
(PID.TID 0000.0001)  cg2d: iter=    55 ; resid.=  2.01939095984484E-05
(PID.TID 0000.0001)  cg2d: iter=    56 ; resid.=  1.78537429685988E-05
(PID.TID 0000.0001)  cg2d: iter=    57 ; resid.=  1.51871636379169E-05
(PID.TID 0000.0001)  cg2d: iter=    58 ; resid.=  1.15773026219555E-05
(PID.TID 0000.0001)  cg2d: iter=    59 ; resid.=  9.06017925740833E-06
(PID.TID 0000.0001)  cg2d: iter=    60 ; resid.=  7.28837443945520E-06
(PID.TID 0000.0001)  cg2d: iter=    61 ; resid.=  6.08717840532649E-06
(PID.TID 0000.0001)  cg2d: iter=    62 ; resid.=  5.19144547937154E-06
(PID.TID 0000.0001)  cg2d: iter=    63 ; resid.=  4.74752837185045E-06
(PID.TID 0000.0001)  cg2d: iter=    64 ; resid.=  3.67813569253188E-06
(PID.TID 0000.0001)  cg2d: iter=    65 ; resid.=  2.86440279467292E-06
(PID.TID 0000.0001)  cg2d: iter=    66 ; resid.=  2.31310865510677E-06
(PID.TID 0000.0001)  cg2d: iter=    67 ; resid.=  1.93613683223060E-06
(PID.TID 0000.0001)  cg2d: iter=    68 ; resid.=  1.60821797792519E-06
(PID.TID 0000.0001)  cg2d: iter=    69 ; resid.=  1.43145917094120E-06
(PID.TID 0000.0001)  cg2d: iter=    70 ; resid.=  1.17275282742026E-06
(PID.TID 0000.0001)  cg2d: iter=    71 ; resid.=  9.74398352570115E-07
(PID.TID 0000.0001)  cg2d: iter=    72 ; resid.=  8.63250864146986E-07
(PID.TID 0000.0001)  cg2d: iter=    73 ; resid.=  7.74306110027777E-07
(PID.TID 0000.0001)  cg2d: iter=    74 ; resid.=  6.35705947901513E-07
(PID.TID 0000.0001)  cg2d: iter=    75 ; resid.=  4.95860831551037E-07
(PID.TID 0000.0001)  cg2d: iter=    76 ; resid.=  4.13800868058585E-07
(PID.TID 0000.0001)  cg2d: iter=    77 ; resid.=  3.20617698316886E-07
(PID.TID 0000.0001)  cg2d: iter=    78 ; resid.=  2.54835221629428E-07
(PID.TID 0000.0001)  cg2d: iter=    79 ; resid.=  2.17219999878735E-07
(PID.TID 0000.0001)  cg2d: iter=    80 ; resid.=  1.61951617489417E-07
(PID.TID 0000.0001)  cg2d: iter=    81 ; resid.=  1.21047522824620E-07
(PID.TID 0000.0001)  cg2d: iter=    82 ; resid.=  8.63791038379206E-08
(PID.TID 0000.0001)  cg2d: iter=    83 ; resid.=  6.39722961549187E-08
(PID.TID 0000.0001)  cg2d: iter=    84 ; resid.=  4.53731862466022E-08
(PID.TID 0000.0001)  cg2d: iter=    85 ; resid.=  3.32240894278966E-08
(PID.TID 0000.0001)  cg2d: iter=    86 ; resid.=  2.67798707881099E-08
(PID.TID 0000.0001)  cg2d: iter=    87 ; resid.=  2.19218620525996E-08
(PID.TID 0000.0001)  cg2d: iter=    88 ; resid.=  1.76419522271980E-08
(PID.TID 0000.0001)  cg2d: iter=    89 ; resid.=  1.59439329975103E-08
(PID.TID 0000.0001)  cg2d: iter=    90 ; resid.=  1.30424696792755E-08
(PID.TID 0000.0001)  cg2d: iter=    91 ; resid.=  9.34887912382877E-09
(PID.TID 0000.0001)  cg2d: iter=    92 ; resid.=  7.31736600438229E-09
(PID.TID 0000.0001)  cg2d: iter=    93 ; resid.=  5.89662007126517E-09
(PID.TID 0000.0001)  cg2d: iter=    94 ; resid.=  4.77831985216795E-09
(PID.TID 0000.0001)  cg2d: iter=    95 ; resid.=  3.88350449282973E-09
(PID.TID 0000.0001)  cg2d: iter=    96 ; resid.=  3.03828924713457E-09
(PID.TID 0000.0001)  cg2d: iter=    97 ; resid.=  2.34558956720508E-09
(PID.TID 0000.0001)  cg2d: iter=    98 ; resid.=  1.92149848169481E-09
(PID.TID 0000.0001)  cg2d: iter=    99 ; resid.=  1.65578399560184E-09
(PID.TID 0000.0001)  cg2d: iter=   100 ; resid.=  1.57993188142628E-09
(PID.TID 0000.0001)  cg2d: iter=   101 ; resid.=  1.19693334914135E-09
(PID.TID 0000.0001)  cg2d: iter=   102 ; resid.=  9.96303309420165E-10
(PID.TID 0000.0001)  cg2d: iter=   103 ; resid.=  7.86073407724993E-10
(PID.TID 0000.0001)  cg2d: iter=   104 ; resid.=  6.13014639338989E-10
(PID.TID 0000.0001)  cg2d: iter=   105 ; resid.=  4.96645336362244E-10
(PID.TID 0000.0001)  cg2d: iter=   106 ; resid.=  4.07336120505686E-10
(PID.TID 0000.0001)  cg2d: iter=   107 ; resid.=  2.99585522733054E-10
(PID.TID 0000.0001)  cg2d: iter=   108 ; resid.=  2.33058739781682E-10
(PID.TID 0000.0001)  cg2d: iter=   109 ; resid.=  1.72761262313172E-10
(PID.TID 0000.0001)  cg2d: iter=   110 ; resid.=  1.23595851708570E-10
(PID.TID 0000.0001)  cg2d: iter=   111 ; resid.=  1.00159052815542E-10
(PID.TID 0000.0001)  cg2d: iter=   112 ; resid.=  7.69106091349100E-11
(PID.TID 0000.0001)  cg2d: iter=   113 ; resid.=  5.82592278430832E-11
(PID.TID 0000.0001)  cg2d: iter=   114 ; resid.=  4.55434676936930E-11
(PID.TID 0000.0001)  cg2d: iter=   115 ; resid.=  3.69204675613651E-11
(PID.TID 0000.0001)  cg2d: iter=   116 ; resid.=  2.72767307737641E-11
(PID.TID 0000.0001)  cg2d: iter=   117 ; resid.=  2.07736775512250E-11
(PID.TID 0000.0001)  cg2d: iter=   118 ; resid.=  1.53932137918700E-11
(PID.TID 0000.0001)  cg2d: iter=   119 ; resid.=  1.05954682108313E-11
(PID.TID 0000.0001)  cg2d: iter=   120 ; resid.=  7.74457863165270E-12
(PID.TID 0000.0001)  cg2d: iter=   121 ; resid.=  6.30523352565791E-12
(PID.TID 0000.0001)  cg2d: iter=   122 ; resid.=  5.12943790066884E-12
(PID.TID 0000.0001)  cg2d: iter=   123 ; resid.=  3.66273910509980E-12
(PID.TID 0000.0001)  cg2d: iter=   124 ; resid.=  2.78631219820289E-12
(PID.TID 0000.0001)  cg2d: iter=   125 ; resid.=  1.94839325408802E-12
(PID.TID 0000.0001)  cg2d: iter=   126 ; resid.=  1.24571613092744E-12
(PID.TID 0000.0001)  cg2d: iter=   127 ; resid.=  8.00586463782804E-13
(PID.TID 0000.0001)  cg2d: iter=   128 ; resid.=  5.91240340958681E-13
(PID.TID 0000.0001)  cg2d: iter=   129 ; resid.=  4.32477639737680E-13
(PID.TID 0000.0001)  cg2d: iter=   130 ; resid.=  3.21672481482821E-13
(PID.TID 0000.0001)  cg2d: iter=   131 ; resid.=  2.26798277482291E-13
(PID.TID 0000.0001)  cg2d: iter=   132 ; resid.=  1.54498786219187E-13
(PID.TID 0000.0001)  cg2d: iter=   133 ; resid.=  1.10781887732082E-13
(PID.TID 0000.0001)  cg2d: iter=   134 ; resid.=  8.23618460802629E-14
DEBUG_STATS_RL:    cg2d_x (SOLVE_FOR_PRESSURE)  min= -2.22034650223291E+01
DEBUG_STATS_RL:    cg2d_x (SOLVE_FOR_PRESSURE)  max=  1.14948266071679E+01
DEBUG_STATS_RL:    cg2d_x (SOLVE_FOR_PRESSURE) mean= -2.06070455786319E+00
DEBUG_STATS_RL:    cg2d_x (SOLVE_FOR_PRESSURE) S.D.=  8.90698030506561E+00
(PID.TID 0000.0001)      cg2d_init_res =   3.79471479285980E-01
(PID.TID 0000.0001)      cg2d_iters(min,last) =      -1     134
(PID.TID 0000.0001)      cg2d_last_res =   8.23618460802629E-14
(PID.TID 0000.0001) // =======================================================
(PID.TID 0000.0001) // Begin MONITOR dynamic field statistics
(PID.TID 0000.0001) // =======================================================
(PID.TID 0000.0001) %MON time_tsnumber                =                    73
(PID.TID 0000.0001) %MON time_secondsf                =   6.3072000000000E+06
(PID.TID 0000.0001) %MON dynstat_eta_max              =   1.1717458315156E+00
(PID.TID 0000.0001) %MON dynstat_eta_min              =  -2.2633501551814E+00
(PID.TID 0000.0001) %MON dynstat_eta_mean             =  -5.1860115957332E-03
(PID.TID 0000.0001) %MON dynstat_eta_sd               =   8.2268813597444E-01
(PID.TID 0000.0001) %MON dynstat_eta_del2             =   2.4963005632185E-03
(PID.TID 0000.0001) %MON dynstat_uvel_max             =   1.5617121653791E-01
(PID.TID 0000.0001) %MON dynstat_uvel_min             =  -1.3979771529454E-01
(PID.TID 0000.0001) %MON dynstat_uvel_mean            =   2.5786603353001E-03
(PID.TID 0000.0001) %MON dynstat_uvel_sd              =   2.0489556887521E-02
(PID.TID 0000.0001) %MON dynstat_uvel_del2            =   1.4112496188732E-04
(PID.TID 0000.0001) %MON dynstat_vvel_max             =   1.6458167945366E-01
(PID.TID 0000.0001) %MON dynstat_vvel_min             =  -9.5020593145362E-02
(PID.TID 0000.0001) %MON dynstat_vvel_mean            =  -2.3037973915597E-04
(PID.TID 0000.0001) %MON dynstat_vvel_sd              =   1.0436380286922E-02
(PID.TID 0000.0001) %MON dynstat_vvel_del2            =   9.1391294530629E-05
(PID.TID 0000.0001) %MON dynstat_wvel_max             =   1.0613561527858E-04
(PID.TID 0000.0001) %MON dynstat_wvel_min             =  -1.1033040527449E-04
(PID.TID 0000.0001) %MON dynstat_wvel_mean            =   8.1563697772923E-23
(PID.TID 0000.0001) %MON dynstat_wvel_sd              =   1.5464703853808E-05
(PID.TID 0000.0001) %MON dynstat_wvel_del2            =   1.4704453687379E-07
(PID.TID 0000.0001) %MON dynstat_theta_max            =   3.0869515442784E+01
(PID.TID 0000.0001) %MON dynstat_theta_min            =  -1.9532635019938E+00
(PID.TID 0000.0001) %MON dynstat_theta_mean           =   3.6535444338992E+00
(PID.TID 0000.0001) %MON dynstat_theta_sd             =   4.4258233829255E+00
(PID.TID 0000.0001) %MON dynstat_theta_del2           =   4.9134458247763E-03
(PID.TID 0000.0001) %MON dynstat_salt_max             =   3.7497302295099E+01
(PID.TID 0000.0001) %MON dynstat_salt_min             =   2.9926323212374E+01
(PID.TID 0000.0001) %MON dynstat_salt_mean            =   3.4748024339900E+01
(PID.TID 0000.0001) %MON dynstat_salt_sd              =   2.9657128141687E-01
(PID.TID 0000.0001) %MON dynstat_salt_del2            =   9.9492245348365E-04
(PID.TID 0000.0001) %MON dynstat_sst_max              =   3.0869515442784E+01
(PID.TID 0000.0001) %MON dynstat_sst_min              =  -1.9532635019938E+00
(PID.TID 0000.0001) %MON dynstat_sst_mean             =   1.9079888277577E+01
(PID.TID 0000.0001) %MON dynstat_sst_sd               =   9.1287747918570E+00
(PID.TID 0000.0001) %MON dynstat_sst_del2             =   2.8636352879137E-02
(PID.TID 0000.0001) %MON dynstat_sss_max              =   3.7483405289878E+01
(PID.TID 0000.0001) %MON dynstat_sss_min              =   2.9926323212374E+01
(PID.TID 0000.0001) %MON dynstat_sss_mean             =   3.4868936469138E+01
(PID.TID 0000.0001) %MON dynstat_sss_sd               =   9.8498009798819E-01
(PID.TID 0000.0001) %MON dynstat_sss_del2             =   8.1525344120370E-03
(PID.TID 0000.0001) %MON forcing_qnet_max             =   2.8290214538574E+02
(PID.TID 0000.0001) %MON forcing_qnet_min             =  -1.6475342864990E+02
(PID.TID 0000.0001) %MON forcing_qnet_mean            =  -7.9350844890245E+00
(PID.TID 0000.0001) %MON forcing_qnet_sd              =   4.8359280419463E+01
(PID.TID 0000.0001) %MON forcing_qnet_del2            =   8.5469072359426E-01
(PID.TID 0000.0001) %MON forcing_qsw_max              =   0.0000000000000E+00
(PID.TID 0000.0001) %MON forcing_qsw_min              =   0.0000000000000E+00
(PID.TID 0000.0001) %MON forcing_qsw_mean             =   0.0000000000000E+00
(PID.TID 0000.0001) %MON forcing_qsw_sd               =   0.0000000000000E+00
(PID.TID 0000.0001) %MON forcing_qsw_del2             =   0.0000000000000E+00
(PID.TID 0000.0001) %MON forcing_empmr_max            =   6.9126090807003E-05
(PID.TID 0000.0001) %MON forcing_empmr_min            =  -8.2066878803744E-05
(PID.TID 0000.0001) %MON forcing_empmr_mean           =   5.8998084630176E-07
(PID.TID 0000.0001) %MON forcing_empmr_sd             =   2.6360875711591E-05
(PID.TID 0000.0001) %MON forcing_empmr_del2           =   3.6293820427634E-07
(PID.TID 0000.0001) %MON forcing_fu_max               =   3.5172714889050E-01
(PID.TID 0000.0001) %MON forcing_fu_min               =  -3.6944006383419E-01
(PID.TID 0000.0001) %MON forcing_fu_mean              =   2.0174130532013E-02
(PID.TID 0000.0001) %MON forcing_fu_sd                =   1.0044956754346E-01
(PID.TID 0000.0001) %MON forcing_fu_del2              =   8.1088351437561E-04
(PID.TID 0000.0001) %MON forcing_fv_max               =   1.7182487472892E-01
(PID.TID 0000.0001) %MON forcing_fv_min               =  -1.8883825689554E-01
(PID.TID 0000.0001) %MON forcing_fv_mean              =  -7.4982903901361E-03
(PID.TID 0000.0001) %MON forcing_fv_sd                =   4.2208471990419E-02
(PID.TID 0000.0001) %MON forcing_fv_del2              =   4.9097367067402E-04
(PID.TID 0000.0001) %MON trAdv_CFL_u_max              =   4.9043699961379E-02
(PID.TID 0000.0001) %MON trAdv_CFL_v_max              =   3.1875484400845E-02
(PID.TID 0000.0001) %MON trAdv_CFL_w_max              =   5.1161035051599E-02
(PID.TID 0000.0001) %MON advcfl_uvel_max              =   4.8116827212075E-02
(PID.TID 0000.0001) %MON advcfl_vvel_max              =   3.1975580745054E-02
(PID.TID 0000.0001) %MON advcfl_wvel_max              =   4.9854984403822E-02
(PID.TID 0000.0001) %MON advcfl_W_hf_max              =   5.8757660190218E-02
(PID.TID 0000.0001) %MON pe_b_mean                    =   8.6610177008077E-04
(PID.TID 0000.0001) %MON ke_max                       =   1.8867150609867E-02
(PID.TID 0000.0001) %MON ke_mean                      =   2.4267433198338E-04
(PID.TID 0000.0001) %MON ke_vol                       =   1.3226782436723E+18
(PID.TID 0000.0001) %MON vort_r_min                   =  -3.9883482621901E-07
(PID.TID 0000.0001) %MON vort_r_max                   =   5.8027823924306E-07
(PID.TID 0000.0001) %MON vort_a_mean                  =  -2.5274806187264E-05
(PID.TID 0000.0001) %MON vort_a_sd                    =   7.3604719038846E-05
(PID.TID 0000.0001) %MON vort_p_mean                  =  -3.1845654274665E-05
(PID.TID 0000.0001) %MON vort_p_sd                    =   1.3162527551278E-04
(PID.TID 0000.0001) %MON surfExpan_theta_mean         =   1.0775454467614E-06
(PID.TID 0000.0001) %MON surfExpan_salt_mean          =  -2.7666990233135E-07
(PID.TID 0000.0001) // =======================================================
(PID.TID 0000.0001) // End MONITOR dynamic field statistics
(PID.TID 0000.0001) // =======================================================
 EXTERNAL_FIELDS_LOAD,        73 : iP,iLd,i0,i1=    2    3    2    3 ; Wght=  0.0666666667  0.9333333333
 EXTERNAL_FIELDS_LOAD: (fu0,1),fu,fv= -1.4435E-02 -2.7199E-02 -2.6348E-02 -1.7152E-03
 EXTERNAL_FIELDS_LOAD: SST,SSS,Q,E-P= -2.0710E-01  3.4569E+01  2.1707E+02  9.0339E-06
DEBUG_STATS_RL:          Uvel (THERMODYNAMICS)  min= -1.39797715294543E-01
DEBUG_STATS_RL:          Uvel (THERMODYNAMICS)  max=  1.56171216537907E-01
DEBUG_STATS_RL:          Uvel (THERMODYNAMICS) mean=  6.39344679982700E-03
DEBUG_STATS_RL:          Uvel (THERMODYNAMICS) S.D.=  2.69889966960199E-02
DEBUG_STATS_RL:          Vvel (THERMODYNAMICS)  min= -9.50205931453620E-02
DEBUG_STATS_RL:          Vvel (THERMODYNAMICS)  max=  1.64581679453665E-01
DEBUG_STATS_RL:          Vvel (THERMODYNAMICS) mean=  4.17845779607812E-04
DEBUG_STATS_RL:          Vvel (THERMODYNAMICS) S.D.=  1.53350286387692E-02
DEBUG_STATS_RL:          Wvel (THERMODYNAMICS)  min= -1.10330405274492E-04
DEBUG_STATS_RL:          Wvel (THERMODYNAMICS)  max=  1.06135615278585E-04
DEBUG_STATS_RL:          Wvel (THERMODYNAMICS) mean= -8.96093827425828E-08
DEBUG_STATS_RL:          Wvel (THERMODYNAMICS) S.D.=  1.32280870185994E-05
DEBUG_STATS_RL:         Theta (THERMODYNAMICS)  min= -1.95331013713458E+00
DEBUG_STATS_RL:         Theta (THERMODYNAMICS)  max=  3.08878582914000E+01
DEBUG_STATS_RL:         Theta (THERMODYNAMICS) mean=  3.25104515274499E+00
DEBUG_STATS_RL:         Theta (THERMODYNAMICS) S.D.=  5.88355191640912E+00
DEBUG_STATS_RL:          Salt (THERMODYNAMICS)  min=  3.00000000000000E-02
DEBUG_STATS_RL:          Salt (THERMODYNAMICS)  max=  3.74971604250689E+01
DEBUG_STATS_RL:          Salt (THERMODYNAMICS) mean=  1.88747868382053E+01
DEBUG_STATS_RL:          Salt (THERMODYNAMICS) S.D.=  1.73003299659720E+01
DEBUG_STATS_RL:         GtNm1 (THERMODYNAMICS)  min= -2.18582670879515E-06
DEBUG_STATS_RL:         GtNm1 (THERMODYNAMICS)  max=  1.98231737766012E-06
DEBUG_STATS_RL:         GtNm1 (THERMODYNAMICS) mean=  1.37354976535006E-09
DEBUG_STATS_RL:         GtNm1 (THERMODYNAMICS) S.D.=  1.66790445754021E-07
DEBUG_STATS_RL:         GsNm1 (THERMODYNAMICS)  min= -3.29518281189468E-07
DEBUG_STATS_RL:         GsNm1 (THERMODYNAMICS)  max=  2.51527559279511E-07
DEBUG_STATS_RL:         GsNm1 (THERMODYNAMICS) mean=  9.16796845176791E-11
DEBUG_STATS_RL:         GsNm1 (THERMODYNAMICS) S.D.=  1.53189211865775E-08
DEBUG_STATS_RL:                EtaN (DYNAMICS)  min= -2.26335015518144E+00
DEBUG_STATS_RL:                EtaN (DYNAMICS)  max=  1.17174583151562E+00
DEBUG_STATS_RL:                EtaN (DYNAMICS) mean= -2.10061626693496E-01
DEBUG_STATS_RL:                EtaN (DYNAMICS) S.D.=  9.07949062697821E-01
DEBUG_STATS_RL:                Uvel (DYNAMICS)  min= -1.39797715294543E-01
DEBUG_STATS_RL:                Uvel (DYNAMICS)  max=  1.56171216537907E-01
DEBUG_STATS_RL:                Uvel (DYNAMICS) mean=  6.39344679982700E-03
DEBUG_STATS_RL:                Uvel (DYNAMICS) S.D.=  2.69889966960199E-02
DEBUG_STATS_RL:                Vvel (DYNAMICS)  min= -9.50205931453620E-02
DEBUG_STATS_RL:                Vvel (DYNAMICS)  max=  1.64581679453665E-01
DEBUG_STATS_RL:                Vvel (DYNAMICS) mean=  4.17845779607812E-04
DEBUG_STATS_RL:                Vvel (DYNAMICS) S.D.=  1.53350286387692E-02
DEBUG_STATS_RL:                Wvel (DYNAMICS)  min= -1.10330405274492E-04
DEBUG_STATS_RL:                Wvel (DYNAMICS)  max=  1.06135615278585E-04
DEBUG_STATS_RL:                Wvel (DYNAMICS) mean= -8.96093827425828E-08
DEBUG_STATS_RL:                Wvel (DYNAMICS) S.D.=  1.32280870185994E-05
DEBUG_STATS_RL:               Theta (DYNAMICS)  min= -1.95331013713458E+00
DEBUG_STATS_RL:               Theta (DYNAMICS)  max=  3.08878582914000E+01
DEBUG_STATS_RL:               Theta (DYNAMICS) mean=  3.25104515274499E+00
DEBUG_STATS_RL:               Theta (DYNAMICS) S.D.=  5.88355191640912E+00
DEBUG_STATS_RL:                Salt (DYNAMICS)  min=  3.00000000000000E-02
DEBUG_STATS_RL:                Salt (DYNAMICS)  max=  3.74971604250689E+01
DEBUG_STATS_RL:                Salt (DYNAMICS) mean=  1.88747868382053E+01
DEBUG_STATS_RL:                Salt (DYNAMICS) S.D.=  1.73003299659720E+01
DEBUG_STATS_RL:                  Gu (DYNAMICS)  min= -1.37514386969705E-01
DEBUG_STATS_RL:                  Gu (DYNAMICS)  max=  1.58180430864852E-01
DEBUG_STATS_RL:                  Gu (DYNAMICS) mean=  6.36705331719761E-03
DEBUG_STATS_RL:                  Gu (DYNAMICS) S.D.=  2.72742741493284E-02
DEBUG_STATS_RL:                  Gv (DYNAMICS)  min= -9.35991411205505E-02
DEBUG_STATS_RL:                  Gv (DYNAMICS)  max=  1.65101338180703E-01
DEBUG_STATS_RL:                  Gv (DYNAMICS) mean=  3.43296961866826E-03
DEBUG_STATS_RL:                  Gv (DYNAMICS) S.D.=  1.65553005958888E-02
DEBUG_STATS_RL:               GuNm1 (DYNAMICS)  min= -1.12813744744568E-05
DEBUG_STATS_RL:               GuNm1 (DYNAMICS)  max=  9.43849843159601E-06
DEBUG_STATS_RL:               GuNm1 (DYNAMICS) mean=  8.64698481799826E-09
DEBUG_STATS_RL:               GuNm1 (DYNAMICS) S.D.=  1.22977827268113E-06
DEBUG_STATS_RL:               GvNm1 (DYNAMICS)  min= -1.02730750190900E-05
DEBUG_STATS_RL:               GvNm1 (DYNAMICS)  max=  1.55399613059340E-05
DEBUG_STATS_RL:               GvNm1 (DYNAMICS) mean=  7.42149228906351E-07
DEBUG_STATS_RL:               GvNm1 (DYNAMICS) S.D.=  2.64542184773603E-06
DEBUG_STATS_RL:               GtNm1 (DYNAMICS)  min= -2.18582670879515E-06
DEBUG_STATS_RL:               GtNm1 (DYNAMICS)  max=  1.98231737766012E-06
DEBUG_STATS_RL:               GtNm1 (DYNAMICS) mean=  1.37354976535006E-09
DEBUG_STATS_RL:               GtNm1 (DYNAMICS) S.D.=  1.66790445754021E-07
DEBUG_STATS_RL:               GsNm1 (DYNAMICS)  min= -3.29518281189468E-07
DEBUG_STATS_RL:               GsNm1 (DYNAMICS)  max=  2.51527559279511E-07
DEBUG_STATS_RL:               GsNm1 (DYNAMICS) mean=  9.16796845176791E-11
DEBUG_STATS_RL:               GsNm1 (DYNAMICS) S.D.=  1.53189211865775E-08
DEBUG_STATS_RL:    cg2d_b (SOLVE_FOR_PRESSURE)  min= -1.91674596433558E+04
DEBUG_STATS_RL:    cg2d_b (SOLVE_FOR_PRESSURE)  max=  2.67073805636956E+04
DEBUG_STATS_RL:    cg2d_b (SOLVE_FOR_PRESSURE) mean=  5.01657065672276E+00
DEBUG_STATS_RL:    cg2d_b (SOLVE_FOR_PRESSURE) S.D.=  4.12633220124380E+03
 cg2d: Sum(rhs),rhsMax =   4.34837143336293E-01  1.75421226245094E+00
(PID.TID 0000.0001)  cg2d: iter=     1 ; resid.=  2.46123633268446E-01
(PID.TID 0000.0001)  cg2d: iter=     2 ; resid.=  2.21525266920268E-01
(PID.TID 0000.0001)  cg2d: iter=     3 ; resid.=  2.11733520341795E-01
(PID.TID 0000.0001)  cg2d: iter=     4 ; resid.=  1.95530906374713E-01
(PID.TID 0000.0001)  cg2d: iter=     5 ; resid.=  1.79645243966310E-01
(PID.TID 0000.0001)  cg2d: iter=     6 ; resid.=  1.58170865312514E-01
(PID.TID 0000.0001)  cg2d: iter=     7 ; resid.=  1.25336847120804E-01
(PID.TID 0000.0001)  cg2d: iter=     8 ; resid.=  9.35711061163821E-02
(PID.TID 0000.0001)  cg2d: iter=     9 ; resid.=  7.39830861601164E-02
(PID.TID 0000.0001)  cg2d: iter=    10 ; resid.=  6.03411208451998E-02
(PID.TID 0000.0001)  cg2d: iter=    11 ; resid.=  5.33481018569746E-02
(PID.TID 0000.0001)  cg2d: iter=    12 ; resid.=  4.25329415951283E-02
(PID.TID 0000.0001)  cg2d: iter=    13 ; resid.=  3.38683379625436E-02
(PID.TID 0000.0001)  cg2d: iter=    14 ; resid.=  2.83042266780692E-02
(PID.TID 0000.0001)  cg2d: iter=    15 ; resid.=  2.33678990723869E-02
(PID.TID 0000.0001)  cg2d: iter=    16 ; resid.=  2.13845729650976E-02
(PID.TID 0000.0001)  cg2d: iter=    17 ; resid.=  1.97396360737397E-02
(PID.TID 0000.0001)  cg2d: iter=    18 ; resid.=  1.71386872234020E-02
(PID.TID 0000.0001)  cg2d: iter=    19 ; resid.=  1.30387451521545E-02
(PID.TID 0000.0001)  cg2d: iter=    20 ; resid.=  1.01171577655995E-02
(PID.TID 0000.0001)  cg2d: iter=    21 ; resid.=  8.80515381249604E-03
(PID.TID 0000.0001)  cg2d: iter=    22 ; resid.=  7.72932578554927E-03
(PID.TID 0000.0001)  cg2d: iter=    23 ; resid.=  6.29086330530066E-03
(PID.TID 0000.0001)  cg2d: iter=    24 ; resid.=  5.30686555851968E-03
(PID.TID 0000.0001)  cg2d: iter=    25 ; resid.=  4.20934753531377E-03
(PID.TID 0000.0001)  cg2d: iter=    26 ; resid.=  3.42930921407856E-03
(PID.TID 0000.0001)  cg2d: iter=    27 ; resid.=  2.68581320746092E-03
(PID.TID 0000.0001)  cg2d: iter=    28 ; resid.=  2.25556727353931E-03
(PID.TID 0000.0001)  cg2d: iter=    29 ; resid.=  1.86057075252138E-03
(PID.TID 0000.0001)  cg2d: iter=    30 ; resid.=  1.60525625917578E-03
(PID.TID 0000.0001)  cg2d: iter=    31 ; resid.=  1.28261483030291E-03
(PID.TID 0000.0001)  cg2d: iter=    32 ; resid.=  9.62673447724607E-04
(PID.TID 0000.0001)  cg2d: iter=    33 ; resid.=  8.34193767108837E-04
(PID.TID 0000.0001)  cg2d: iter=    34 ; resid.=  7.19778042123840E-04
(PID.TID 0000.0001)  cg2d: iter=    35 ; resid.=  6.26490317945226E-04
(PID.TID 0000.0001)  cg2d: iter=    36 ; resid.=  5.51021905000412E-04
(PID.TID 0000.0001)  cg2d: iter=    37 ; resid.=  4.75385259907100E-04
(PID.TID 0000.0001)  cg2d: iter=    38 ; resid.=  4.17925524923717E-04
(PID.TID 0000.0001)  cg2d: iter=    39 ; resid.=  3.53431436513223E-04
(PID.TID 0000.0001)  cg2d: iter=    40 ; resid.=  3.13484718442533E-04
(PID.TID 0000.0001)  cg2d: iter=    41 ; resid.=  2.60835783838961E-04
(PID.TID 0000.0001)  cg2d: iter=    42 ; resid.=  2.24291437193265E-04
(PID.TID 0000.0001)  cg2d: iter=    43 ; resid.=  1.76484916910731E-04
(PID.TID 0000.0001)  cg2d: iter=    44 ; resid.=  1.37951816649637E-04
(PID.TID 0000.0001)  cg2d: iter=    45 ; resid.=  1.11333384555893E-04
(PID.TID 0000.0001)  cg2d: iter=    46 ; resid.=  8.84744445342940E-05
(PID.TID 0000.0001)  cg2d: iter=    47 ; resid.=  7.86379752932518E-05
(PID.TID 0000.0001)  cg2d: iter=    48 ; resid.=  6.64350393899232E-05
(PID.TID 0000.0001)  cg2d: iter=    49 ; resid.=  5.65258679920595E-05
(PID.TID 0000.0001)  cg2d: iter=    50 ; resid.=  4.79292057607600E-05
(PID.TID 0000.0001)  cg2d: iter=    51 ; resid.=  4.15322986140243E-05
(PID.TID 0000.0001)  cg2d: iter=    52 ; resid.=  3.52063359655148E-05
(PID.TID 0000.0001)  cg2d: iter=    53 ; resid.=  2.91982663054370E-05
(PID.TID 0000.0001)  cg2d: iter=    54 ; resid.=  2.27927404375462E-05
(PID.TID 0000.0001)  cg2d: iter=    55 ; resid.=  1.92765589740480E-05
(PID.TID 0000.0001)  cg2d: iter=    56 ; resid.=  1.69223058593595E-05
(PID.TID 0000.0001)  cg2d: iter=    57 ; resid.=  1.42845621112391E-05
(PID.TID 0000.0001)  cg2d: iter=    58 ; resid.=  1.06587573141572E-05
(PID.TID 0000.0001)  cg2d: iter=    59 ; resid.=  8.42209230662747E-06
(PID.TID 0000.0001)  cg2d: iter=    60 ; resid.=  6.88574558014904E-06
(PID.TID 0000.0001)  cg2d: iter=    61 ; resid.=  5.81985543615347E-06
(PID.TID 0000.0001)  cg2d: iter=    62 ; resid.=  4.98070950371973E-06
(PID.TID 0000.0001)  cg2d: iter=    63 ; resid.=  4.60597739417261E-06
(PID.TID 0000.0001)  cg2d: iter=    64 ; resid.=  3.51611716108196E-06
(PID.TID 0000.0001)  cg2d: iter=    65 ; resid.=  2.71355322217696E-06
(PID.TID 0000.0001)  cg2d: iter=    66 ; resid.=  2.16406486213781E-06
(PID.TID 0000.0001)  cg2d: iter=    67 ; resid.=  1.80335983006102E-06
(PID.TID 0000.0001)  cg2d: iter=    68 ; resid.=  1.45878195983640E-06
(PID.TID 0000.0001)  cg2d: iter=    69 ; resid.=  1.27903153319498E-06
(PID.TID 0000.0001)  cg2d: iter=    70 ; resid.=  1.04856536497625E-06
(PID.TID 0000.0001)  cg2d: iter=    71 ; resid.=  8.86727196298607E-07
(PID.TID 0000.0001)  cg2d: iter=    72 ; resid.=  7.88582697481497E-07
(PID.TID 0000.0001)  cg2d: iter=    73 ; resid.=  7.04094016866554E-07
(PID.TID 0000.0001)  cg2d: iter=    74 ; resid.=  5.75832297909667E-07
(PID.TID 0000.0001)  cg2d: iter=    75 ; resid.=  4.44923122462193E-07
(PID.TID 0000.0001)  cg2d: iter=    76 ; resid.=  3.77722131840700E-07
(PID.TID 0000.0001)  cg2d: iter=    77 ; resid.=  2.97425443795706E-07
(PID.TID 0000.0001)  cg2d: iter=    78 ; resid.=  2.41277880882316E-07
(PID.TID 0000.0001)  cg2d: iter=    79 ; resid.=  2.07771372798813E-07
(PID.TID 0000.0001)  cg2d: iter=    80 ; resid.=  1.55737524038467E-07
(PID.TID 0000.0001)  cg2d: iter=    81 ; resid.=  1.17049027967511E-07
(PID.TID 0000.0001)  cg2d: iter=    82 ; resid.=  8.38632576144017E-08
(PID.TID 0000.0001)  cg2d: iter=    83 ; resid.=  6.23331994745281E-08
(PID.TID 0000.0001)  cg2d: iter=    84 ; resid.=  4.45437350487994E-08
(PID.TID 0000.0001)  cg2d: iter=    85 ; resid.=  3.26433749863096E-08
(PID.TID 0000.0001)  cg2d: iter=    86 ; resid.=  2.66208097931633E-08
(PID.TID 0000.0001)  cg2d: iter=    87 ; resid.=  2.19355371542776E-08
(PID.TID 0000.0001)  cg2d: iter=    88 ; resid.=  1.72539476400128E-08
(PID.TID 0000.0001)  cg2d: iter=    89 ; resid.=  1.53111112114653E-08
(PID.TID 0000.0001)  cg2d: iter=    90 ; resid.=  1.25287093759456E-08
(PID.TID 0000.0001)  cg2d: iter=    91 ; resid.=  8.73468849116657E-09
(PID.TID 0000.0001)  cg2d: iter=    92 ; resid.=  6.67708232006054E-09
(PID.TID 0000.0001)  cg2d: iter=    93 ; resid.=  5.38172921521616E-09
(PID.TID 0000.0001)  cg2d: iter=    94 ; resid.=  4.44765729231447E-09
(PID.TID 0000.0001)  cg2d: iter=    95 ; resid.=  3.59709214115154E-09
(PID.TID 0000.0001)  cg2d: iter=    96 ; resid.=  2.83923836068194E-09
(PID.TID 0000.0001)  cg2d: iter=    97 ; resid.=  2.20774481660838E-09
(PID.TID 0000.0001)  cg2d: iter=    98 ; resid.=  1.75459168478978E-09
(PID.TID 0000.0001)  cg2d: iter=    99 ; resid.=  1.48446757652062E-09
(PID.TID 0000.0001)  cg2d: iter=   100 ; resid.=  1.41771654353279E-09
(PID.TID 0000.0001)  cg2d: iter=   101 ; resid.=  1.08579112353759E-09
(PID.TID 0000.0001)  cg2d: iter=   102 ; resid.=  9.13581738130409E-10
(PID.TID 0000.0001)  cg2d: iter=   103 ; resid.=  7.34033728190027E-10
(PID.TID 0000.0001)  cg2d: iter=   104 ; resid.=  5.74587735344024E-10
(PID.TID 0000.0001)  cg2d: iter=   105 ; resid.=  4.69315407735350E-10
(PID.TID 0000.0001)  cg2d: iter=   106 ; resid.=  3.86782237268496E-10
(PID.TID 0000.0001)  cg2d: iter=   107 ; resid.=  2.90929989990323E-10
(PID.TID 0000.0001)  cg2d: iter=   108 ; resid.=  2.34122653011297E-10
(PID.TID 0000.0001)  cg2d: iter=   109 ; resid.=  1.74865490049800E-10
(PID.TID 0000.0001)  cg2d: iter=   110 ; resid.=  1.26149340438198E-10
(PID.TID 0000.0001)  cg2d: iter=   111 ; resid.=  1.02121196285970E-10
(PID.TID 0000.0001)  cg2d: iter=   112 ; resid.=  7.76297844820025E-11
(PID.TID 0000.0001)  cg2d: iter=   113 ; resid.=  5.93418702167211E-11
(PID.TID 0000.0001)  cg2d: iter=   114 ; resid.=  4.61670033930938E-11
(PID.TID 0000.0001)  cg2d: iter=   115 ; resid.=  3.73476254478090E-11
(PID.TID 0000.0001)  cg2d: iter=   116 ; resid.=  2.70881726338112E-11
(PID.TID 0000.0001)  cg2d: iter=   117 ; resid.=  2.04043202431282E-11
(PID.TID 0000.0001)  cg2d: iter=   118 ; resid.=  1.52983336914591E-11
(PID.TID 0000.0001)  cg2d: iter=   119 ; resid.=  1.06956602308760E-11
(PID.TID 0000.0001)  cg2d: iter=   120 ; resid.=  7.93765066813816E-12
(PID.TID 0000.0001)  cg2d: iter=   121 ; resid.=  6.59160115662112E-12
(PID.TID 0000.0001)  cg2d: iter=   122 ; resid.=  5.37335942346362E-12
(PID.TID 0000.0001)  cg2d: iter=   123 ; resid.=  3.73202371537719E-12
(PID.TID 0000.0001)  cg2d: iter=   124 ; resid.=  2.77467151231621E-12
(PID.TID 0000.0001)  cg2d: iter=   125 ; resid.=  1.92678234665793E-12
(PID.TID 0000.0001)  cg2d: iter=   126 ; resid.=  1.25780150034576E-12
(PID.TID 0000.0001)  cg2d: iter=   127 ; resid.=  8.34704084484920E-13
(PID.TID 0000.0001)  cg2d: iter=   128 ; resid.=  6.17261078518806E-13
(PID.TID 0000.0001)  cg2d: iter=   129 ; resid.=  4.55165255716722E-13
(PID.TID 0000.0001)  cg2d: iter=   130 ; resid.=  3.35309753629767E-13
(PID.TID 0000.0001)  cg2d: iter=   131 ; resid.=  2.28589472862218E-13
(PID.TID 0000.0001)  cg2d: iter=   132 ; resid.=  1.52085199142471E-13
(PID.TID 0000.0001)  cg2d: iter=   133 ; resid.=  1.07744798022439E-13
(PID.TID 0000.0001)  cg2d: iter=   134 ; resid.=  7.95516090816217E-14
DEBUG_STATS_RL:    cg2d_x (SOLVE_FOR_PRESSURE)  min= -2.27221534329092E+01
DEBUG_STATS_RL:    cg2d_x (SOLVE_FOR_PRESSURE)  max=  1.19955651141929E+01
DEBUG_STATS_RL:    cg2d_x (SOLVE_FOR_PRESSURE) mean= -2.10367859844673E+00
DEBUG_STATS_RL:    cg2d_x (SOLVE_FOR_PRESSURE) S.D.=  9.19176701263473E+00
(PID.TID 0000.0001)      cg2d_init_res =   3.73155925172154E-01
(PID.TID 0000.0001)      cg2d_iters(min,last) =      -1     134
(PID.TID 0000.0001)      cg2d_last_res =   7.95516090816217E-14
(PID.TID 0000.0001) // =======================================================
(PID.TID 0000.0001) // Begin MONITOR dynamic field statistics
(PID.TID 0000.0001) // =======================================================
(PID.TID 0000.0001) %MON time_tsnumber                =                    74
(PID.TID 0000.0001) %MON time_secondsf                =   6.3936000000000E+06
(PID.TID 0000.0001) %MON dynstat_eta_max              =   1.2227895121501E+00
(PID.TID 0000.0001) %MON dynstat_eta_min              =  -2.3162235915301E+00
(PID.TID 0000.0001) %MON dynstat_eta_mean             =  -5.2341694460649E-03
(PID.TID 0000.0001) %MON dynstat_eta_sd               =   8.5458572542109E-01
(PID.TID 0000.0001) %MON dynstat_eta_del2             =   2.5109919164075E-03
(PID.TID 0000.0001) %MON dynstat_uvel_max             =   1.5579630623552E-01
(PID.TID 0000.0001) %MON dynstat_uvel_min             =  -1.3751243156068E-01
(PID.TID 0000.0001) %MON dynstat_uvel_mean            =   2.5684440649522E-03
(PID.TID 0000.0001) %MON dynstat_uvel_sd              =   2.0327862079248E-02
(PID.TID 0000.0001) %MON dynstat_uvel_del2            =   1.4161237924099E-04
(PID.TID 0000.0001) %MON dynstat_vvel_max             =   1.6400241369698E-01
(PID.TID 0000.0001) %MON dynstat_vvel_min             =  -9.2816596665346E-02
(PID.TID 0000.0001) %MON dynstat_vvel_mean            =  -2.3117582601930E-04
(PID.TID 0000.0001) %MON dynstat_vvel_sd              =   1.0388190847770E-02
(PID.TID 0000.0001) %MON dynstat_vvel_del2            =   9.1128057519646E-05
(PID.TID 0000.0001) %MON dynstat_wvel_max             =   1.0325641234100E-04
(PID.TID 0000.0001) %MON dynstat_wvel_min             =  -1.0603469924857E-04
(PID.TID 0000.0001) %MON dynstat_wvel_mean            =  -2.5184741325835E-23
(PID.TID 0000.0001) %MON dynstat_wvel_sd              =   1.5374352046716E-05
(PID.TID 0000.0001) %MON dynstat_wvel_del2            =   1.4675400394509E-07
(PID.TID 0000.0001) %MON dynstat_theta_max            =   3.0887858291400E+01
(PID.TID 0000.0001) %MON dynstat_theta_min            =  -1.9533101371346E+00
(PID.TID 0000.0001) %MON dynstat_theta_mean           =   3.6535649809229E+00
(PID.TID 0000.0001) %MON dynstat_theta_sd             =   4.4259694642587E+00
(PID.TID 0000.0001) %MON dynstat_theta_del2           =   4.9098639130473E-03
(PID.TID 0000.0001) %MON dynstat_salt_max             =   3.7497160425069E+01
(PID.TID 0000.0001) %MON dynstat_salt_min             =   2.9925922332073E+01
(PID.TID 0000.0001) %MON dynstat_salt_mean            =   3.4748030821183E+01
(PID.TID 0000.0001) %MON dynstat_salt_sd              =   2.9659141271820E-01
(PID.TID 0000.0001) %MON dynstat_salt_del2            =   9.9525792641154E-04
(PID.TID 0000.0001) %MON dynstat_sst_max              =   3.0887858291400E+01
(PID.TID 0000.0001) %MON dynstat_sst_min              =  -1.9533101371346E+00
(PID.TID 0000.0001) %MON dynstat_sst_mean             =   1.9082544365998E+01
(PID.TID 0000.0001) %MON dynstat_sst_sd               =   9.1357136988381E+00
(PID.TID 0000.0001) %MON dynstat_sst_del2             =   2.8689798042540E-02
(PID.TID 0000.0001) %MON dynstat_sss_max              =   3.7484126320368E+01
(PID.TID 0000.0001) %MON dynstat_sss_min              =   2.9925922332073E+01
(PID.TID 0000.0001) %MON dynstat_sss_mean             =   3.4868937532364E+01
(PID.TID 0000.0001) %MON dynstat_sss_sd               =   9.8530026355771E-01
(PID.TID 0000.0001) %MON dynstat_sss_del2             =   8.1636176523854E-03
(PID.TID 0000.0001) %MON forcing_qnet_max             =   2.8010399373372E+02
(PID.TID 0000.0001) %MON forcing_qnet_min             =  -1.6445414937337E+02
(PID.TID 0000.0001) %MON forcing_qnet_mean            =  -7.7117449893978E+00
(PID.TID 0000.0001) %MON forcing_qnet_sd              =   4.7682028835488E+01
(PID.TID 0000.0001) %MON forcing_qnet_del2            =   8.5372818761303E-01
(PID.TID 0000.0001) %MON forcing_qsw_max              =   0.0000000000000E+00
(PID.TID 0000.0001) %MON forcing_qsw_min              =   0.0000000000000E+00
(PID.TID 0000.0001) %MON forcing_qsw_mean             =   0.0000000000000E+00
(PID.TID 0000.0001) %MON forcing_qsw_sd               =   0.0000000000000E+00
(PID.TID 0000.0001) %MON forcing_qsw_del2             =   0.0000000000000E+00
(PID.TID 0000.0001) %MON forcing_empmr_max            =   6.9120334463454E-05
(PID.TID 0000.0001) %MON forcing_empmr_min            =  -8.2466058396828E-05
(PID.TID 0000.0001) %MON forcing_empmr_mean           =   5.7689091542740E-07
(PID.TID 0000.0001) %MON forcing_empmr_sd             =   2.6334295639993E-05
(PID.TID 0000.0001) %MON forcing_empmr_del2           =   3.6406482698784E-07
(PID.TID 0000.0001) %MON forcing_fu_max               =   3.5366856455803E-01
(PID.TID 0000.0001) %MON forcing_fu_min               =  -3.7581218282382E-01
(PID.TID 0000.0001) %MON forcing_fu_mean              =   2.0268330121471E-02
(PID.TID 0000.0001) %MON forcing_fu_sd                =   1.0099442893771E-01
(PID.TID 0000.0001) %MON forcing_fu_del2              =   8.2292198802484E-04
(PID.TID 0000.0001) %MON forcing_fv_max               =   1.7565003186464E-01
(PID.TID 0000.0001) %MON forcing_fv_min               =  -1.9033604760965E-01
(PID.TID 0000.0001) %MON forcing_fv_mean              =  -7.5087187401056E-03
(PID.TID 0000.0001) %MON forcing_fv_sd                =   4.2349967885931E-02
(PID.TID 0000.0001) %MON forcing_fv_del2              =   4.9608724441070E-04
(PID.TID 0000.0001) %MON trAdv_CFL_u_max              =   4.8126600083819E-02
(PID.TID 0000.0001) %MON trAdv_CFL_v_max              =   3.1845279630552E-02
(PID.TID 0000.0001) %MON trAdv_CFL_w_max              =   4.7757418135897E-02
(PID.TID 0000.0001) %MON advcfl_uvel_max              =   4.6955940728080E-02
(PID.TID 0000.0001) %MON advcfl_vvel_max              =   3.1863038698835E-02
(PID.TID 0000.0001) %MON advcfl_wvel_max              =   4.4238274579368E-02
(PID.TID 0000.0001) %MON advcfl_W_hf_max              =   5.2137966468541E-02
(PID.TID 0000.0001) %MON pe_b_mean                    =   9.3456338140737E-04
(PID.TID 0000.0001) %MON ke_max                       =   1.8978365043790E-02
(PID.TID 0000.0001) %MON ke_mean                      =   2.3920161719475E-04
(PID.TID 0000.0001) %MON ke_vol                       =   1.3226782436723E+18
(PID.TID 0000.0001) %MON vort_r_min                   =  -4.0734406060522E-07
(PID.TID 0000.0001) %MON vort_r_max                   =   5.6669224824945E-07
(PID.TID 0000.0001) %MON vort_a_mean                  =  -2.5274806168443E-05
(PID.TID 0000.0001) %MON vort_a_sd                    =   7.3604712778999E-05
(PID.TID 0000.0001) %MON vort_p_mean                  =  -3.1845654250952E-05
(PID.TID 0000.0001) %MON vort_p_sd                    =   1.3162544950395E-04
(PID.TID 0000.0001) %MON surfExpan_theta_mean         =   9.2446718516911E-07
(PID.TID 0000.0001) %MON surfExpan_salt_mean          =  -2.3513198811561E-07
(PID.TID 0000.0001) // =======================================================
(PID.TID 0000.0001) // End MONITOR dynamic field statistics
(PID.TID 0000.0001) // =======================================================
 EXTERNAL_FIELDS_LOAD,        74 : iP,iLd,i0,i1=    2    3    2    3 ; Wght=  0.0333333333  0.9666666667
 EXTERNAL_FIELDS_LOAD: (fu0,1),fu,fv= -1.4435E-02 -2.7199E-02 -2.6773E-02 -1.1467E-03
 EXTERNAL_FIELDS_LOAD: SST,SSS,Q,E-P= -1.9550E-01  3.4574E+01  2.1623E+02  9.0573E-06
DEBUG_STATS_RL:          Uvel (THERMODYNAMICS)  min= -1.37512431560680E-01
DEBUG_STATS_RL:          Uvel (THERMODYNAMICS)  max=  1.55796306235521E-01
DEBUG_STATS_RL:          Uvel (THERMODYNAMICS) mean=  6.41679090423791E-03
DEBUG_STATS_RL:          Uvel (THERMODYNAMICS) S.D.=  2.67973311156606E-02
DEBUG_STATS_RL:          Vvel (THERMODYNAMICS)  min= -9.28165966653459E-02
DEBUG_STATS_RL:          Vvel (THERMODYNAMICS)  max=  1.64002413696977E-01
DEBUG_STATS_RL:          Vvel (THERMODYNAMICS) mean=  4.98798374098199E-04
DEBUG_STATS_RL:          Vvel (THERMODYNAMICS) S.D.=  1.53536496016368E-02
DEBUG_STATS_RL:          Wvel (THERMODYNAMICS)  min= -1.06034699248567E-04
DEBUG_STATS_RL:          Wvel (THERMODYNAMICS)  max=  1.03256412341004E-04
DEBUG_STATS_RL:          Wvel (THERMODYNAMICS) mean= -7.05949548458371E-08
DEBUG_STATS_RL:          Wvel (THERMODYNAMICS) S.D.=  1.31659516104559E-05
DEBUG_STATS_RL:         Theta (THERMODYNAMICS)  min= -1.95311337530530E+00
DEBUG_STATS_RL:         Theta (THERMODYNAMICS)  max=  3.09069525226703E+01
DEBUG_STATS_RL:         Theta (THERMODYNAMICS) mean=  3.25105908850343E+00
DEBUG_STATS_RL:         Theta (THERMODYNAMICS) S.D.=  5.88399212599003E+00
DEBUG_STATS_RL:          Salt (THERMODYNAMICS)  min=  3.00000000000000E-02
DEBUG_STATS_RL:          Salt (THERMODYNAMICS)  max=  3.74969652127036E+01
DEBUG_STATS_RL:          Salt (THERMODYNAMICS) mean=  1.88747949860649E+01
DEBUG_STATS_RL:          Salt (THERMODYNAMICS) S.D.=  1.73003384360630E+01
DEBUG_STATS_RL:         GtNm1 (THERMODYNAMICS)  min= -2.42928096826098E-06
DEBUG_STATS_RL:         GtNm1 (THERMODYNAMICS)  max=  2.04262335352587E-06
DEBUG_STATS_RL:         GtNm1 (THERMODYNAMICS) mean=  1.09621171136411E-09
DEBUG_STATS_RL:         GtNm1 (THERMODYNAMICS) S.D.=  1.67086044438190E-07
DEBUG_STATS_RL:         GsNm1 (THERMODYNAMICS)  min= -3.20227163590715E-07
DEBUG_STATS_RL:         GsNm1 (THERMODYNAMICS)  max=  2.55356800741708E-07
DEBUG_STATS_RL:         GsNm1 (THERMODYNAMICS) mean=  9.73661582933958E-11
DEBUG_STATS_RL:         GsNm1 (THERMODYNAMICS) S.D.=  1.52794233249544E-08
DEBUG_STATS_RL:                EtaN (DYNAMICS)  min= -2.31622359153012E+00
DEBUG_STATS_RL:                EtaN (DYNAMICS)  max=  1.22278951215006E+00
DEBUG_STATS_RL:                EtaN (DYNAMICS) mean= -2.14442262838607E-01
DEBUG_STATS_RL:                EtaN (DYNAMICS) S.D.=  9.36979308117711E-01
DEBUG_STATS_RL:                Uvel (DYNAMICS)  min= -1.37512431560680E-01
DEBUG_STATS_RL:                Uvel (DYNAMICS)  max=  1.55796306235521E-01
DEBUG_STATS_RL:                Uvel (DYNAMICS) mean=  6.41679090423791E-03
DEBUG_STATS_RL:                Uvel (DYNAMICS) S.D.=  2.67973311156606E-02
DEBUG_STATS_RL:                Vvel (DYNAMICS)  min= -9.28165966653459E-02
DEBUG_STATS_RL:                Vvel (DYNAMICS)  max=  1.64002413696977E-01
DEBUG_STATS_RL:                Vvel (DYNAMICS) mean=  4.98798374098199E-04
DEBUG_STATS_RL:                Vvel (DYNAMICS) S.D.=  1.53536496016368E-02
DEBUG_STATS_RL:                Wvel (DYNAMICS)  min= -1.06034699248567E-04
DEBUG_STATS_RL:                Wvel (DYNAMICS)  max=  1.03256412341004E-04
DEBUG_STATS_RL:                Wvel (DYNAMICS) mean= -7.05949548458371E-08
DEBUG_STATS_RL:                Wvel (DYNAMICS) S.D.=  1.31659516104559E-05
DEBUG_STATS_RL:               Theta (DYNAMICS)  min= -1.95311337530530E+00
DEBUG_STATS_RL:               Theta (DYNAMICS)  max=  3.09069525226703E+01
DEBUG_STATS_RL:               Theta (DYNAMICS) mean=  3.25105908850343E+00
DEBUG_STATS_RL:               Theta (DYNAMICS) S.D.=  5.88399212599003E+00
DEBUG_STATS_RL:                Salt (DYNAMICS)  min=  3.00000000000000E-02
DEBUG_STATS_RL:                Salt (DYNAMICS)  max=  3.74969652127036E+01
DEBUG_STATS_RL:                Salt (DYNAMICS) mean=  1.88747949860649E+01
DEBUG_STATS_RL:                Salt (DYNAMICS) S.D.=  1.73003384360630E+01
DEBUG_STATS_RL:                  Gu (DYNAMICS)  min= -1.35136325706482E-01
DEBUG_STATS_RL:                  Gu (DYNAMICS)  max=  1.59284120830176E-01
DEBUG_STATS_RL:                  Gu (DYNAMICS) mean=  6.41531711844329E-03
DEBUG_STATS_RL:                  Gu (DYNAMICS) S.D.=  2.70834545776647E-02
DEBUG_STATS_RL:                  Gv (DYNAMICS)  min= -9.13519011404719E-02
DEBUG_STATS_RL:                  Gv (DYNAMICS)  max=  1.64449264988830E-01
DEBUG_STATS_RL:                  Gv (DYNAMICS) mean=  3.47695182650420E-03
DEBUG_STATS_RL:                  Gv (DYNAMICS) S.D.=  1.66296916844852E-02
DEBUG_STATS_RL:               GuNm1 (DYNAMICS)  min= -1.13657797093269E-05
DEBUG_STATS_RL:               GuNm1 (DYNAMICS)  max=  9.42885741706928E-06
DEBUG_STATS_RL:               GuNm1 (DYNAMICS) mean=  8.96104896402590E-09
DEBUG_STATS_RL:               GuNm1 (DYNAMICS) S.D.=  1.23278032494529E-06
DEBUG_STATS_RL:               GvNm1 (DYNAMICS)  min= -1.01932291410450E-05
DEBUG_STATS_RL:               GvNm1 (DYNAMICS)  max=  1.55387601829231E-05
DEBUG_STATS_RL:               GvNm1 (DYNAMICS) mean=  7.41418163000834E-07
DEBUG_STATS_RL:               GvNm1 (DYNAMICS) S.D.=  2.64302252215193E-06
DEBUG_STATS_RL:               GtNm1 (DYNAMICS)  min= -2.42928096826098E-06
DEBUG_STATS_RL:               GtNm1 (DYNAMICS)  max=  2.04262335352587E-06
DEBUG_STATS_RL:               GtNm1 (DYNAMICS) mean=  1.09621171136411E-09
DEBUG_STATS_RL:               GtNm1 (DYNAMICS) S.D.=  1.67086044438190E-07
DEBUG_STATS_RL:               GsNm1 (DYNAMICS)  min= -3.20227163590715E-07
DEBUG_STATS_RL:               GsNm1 (DYNAMICS)  max=  2.55356800741708E-07
DEBUG_STATS_RL:               GsNm1 (DYNAMICS) mean=  9.73661582933958E-11
DEBUG_STATS_RL:               GsNm1 (DYNAMICS) S.D.=  1.52794233249544E-08
DEBUG_STATS_RL:    cg2d_b (SOLVE_FOR_PRESSURE)  min= -1.92542356757293E+04
DEBUG_STATS_RL:    cg2d_b (SOLVE_FOR_PRESSURE)  max=  2.67728144827713E+04
DEBUG_STATS_RL:    cg2d_b (SOLVE_FOR_PRESSURE) mean=  5.06167915594341E+00
DEBUG_STATS_RL:    cg2d_b (SOLVE_FOR_PRESSURE) S.D.=  4.13972095716204E+03
 cg2d: Sum(rhs),rhsMax =   4.37674838166456E-01  1.75851013745029E+00
(PID.TID 0000.0001)  cg2d: iter=     1 ; resid.=  2.30598928849850E-01
(PID.TID 0000.0001)  cg2d: iter=     2 ; resid.=  1.93875629471713E-01
(PID.TID 0000.0001)  cg2d: iter=     3 ; resid.=  1.84587341197815E-01
(PID.TID 0000.0001)  cg2d: iter=     4 ; resid.=  1.68621397276941E-01
(PID.TID 0000.0001)  cg2d: iter=     5 ; resid.=  1.48265498503919E-01
(PID.TID 0000.0001)  cg2d: iter=     6 ; resid.=  1.32281830199215E-01
(PID.TID 0000.0001)  cg2d: iter=     7 ; resid.=  1.08688191353195E-01
(PID.TID 0000.0001)  cg2d: iter=     8 ; resid.=  8.46361058320774E-02
(PID.TID 0000.0001)  cg2d: iter=     9 ; resid.=  6.85569131884488E-02
(PID.TID 0000.0001)  cg2d: iter=    10 ; resid.=  5.71363629389509E-02
(PID.TID 0000.0001)  cg2d: iter=    11 ; resid.=  4.99693623497104E-02
(PID.TID 0000.0001)  cg2d: iter=    12 ; resid.=  3.91741108631543E-02
(PID.TID 0000.0001)  cg2d: iter=    13 ; resid.=  3.06284734227726E-02
(PID.TID 0000.0001)  cg2d: iter=    14 ; resid.=  2.53285548958573E-02
(PID.TID 0000.0001)  cg2d: iter=    15 ; resid.=  2.11037759005730E-02
(PID.TID 0000.0001)  cg2d: iter=    16 ; resid.=  1.89611146256173E-02
(PID.TID 0000.0001)  cg2d: iter=    17 ; resid.=  1.75395993691761E-02
(PID.TID 0000.0001)  cg2d: iter=    18 ; resid.=  1.54856217139452E-02
(PID.TID 0000.0001)  cg2d: iter=    19 ; resid.=  1.19232424041197E-02
(PID.TID 0000.0001)  cg2d: iter=    20 ; resid.=  9.39820387360223E-03
(PID.TID 0000.0001)  cg2d: iter=    21 ; resid.=  8.12838823746201E-03
(PID.TID 0000.0001)  cg2d: iter=    22 ; resid.=  7.19093789491375E-03
(PID.TID 0000.0001)  cg2d: iter=    23 ; resid.=  5.79092636142602E-03
(PID.TID 0000.0001)  cg2d: iter=    24 ; resid.=  4.75190879231272E-03
(PID.TID 0000.0001)  cg2d: iter=    25 ; resid.=  3.81711899141070E-03
(PID.TID 0000.0001)  cg2d: iter=    26 ; resid.=  3.16129239166342E-03
(PID.TID 0000.0001)  cg2d: iter=    27 ; resid.=  2.52432275555331E-03
(PID.TID 0000.0001)  cg2d: iter=    28 ; resid.=  2.14940514582124E-03
(PID.TID 0000.0001)  cg2d: iter=    29 ; resid.=  1.79919835295477E-03
(PID.TID 0000.0001)  cg2d: iter=    30 ; resid.=  1.54299059051354E-03
(PID.TID 0000.0001)  cg2d: iter=    31 ; resid.=  1.22613945262677E-03
(PID.TID 0000.0001)  cg2d: iter=    32 ; resid.=  9.29008775814802E-04
(PID.TID 0000.0001)  cg2d: iter=    33 ; resid.=  8.05417534490642E-04
(PID.TID 0000.0001)  cg2d: iter=    34 ; resid.=  6.86132210714223E-04
(PID.TID 0000.0001)  cg2d: iter=    35 ; resid.=  5.99063336279477E-04
(PID.TID 0000.0001)  cg2d: iter=    36 ; resid.=  5.21291354857889E-04
(PID.TID 0000.0001)  cg2d: iter=    37 ; resid.=  4.50562842678755E-04
(PID.TID 0000.0001)  cg2d: iter=    38 ; resid.=  3.93810310872666E-04
(PID.TID 0000.0001)  cg2d: iter=    39 ; resid.=  3.38524250544167E-04
(PID.TID 0000.0001)  cg2d: iter=    40 ; resid.=  3.01624355708086E-04
(PID.TID 0000.0001)  cg2d: iter=    41 ; resid.=  2.55463395589052E-04
(PID.TID 0000.0001)  cg2d: iter=    42 ; resid.=  2.19405385811222E-04
(PID.TID 0000.0001)  cg2d: iter=    43 ; resid.=  1.74111170543059E-04
(PID.TID 0000.0001)  cg2d: iter=    44 ; resid.=  1.34468490906754E-04
(PID.TID 0000.0001)  cg2d: iter=    45 ; resid.=  1.06135330205910E-04
(PID.TID 0000.0001)  cg2d: iter=    46 ; resid.=  8.34584662951569E-05
(PID.TID 0000.0001)  cg2d: iter=    47 ; resid.=  7.27671736448084E-05
(PID.TID 0000.0001)  cg2d: iter=    48 ; resid.=  6.11024757019274E-05
(PID.TID 0000.0001)  cg2d: iter=    49 ; resid.=  5.07875493313743E-05
(PID.TID 0000.0001)  cg2d: iter=    50 ; resid.=  4.19820415023857E-05
(PID.TID 0000.0001)  cg2d: iter=    51 ; resid.=  3.63273440243038E-05
(PID.TID 0000.0001)  cg2d: iter=    52 ; resid.=  3.09420292810501E-05
(PID.TID 0000.0001)  cg2d: iter=    53 ; resid.=  2.60734063214021E-05
(PID.TID 0000.0001)  cg2d: iter=    54 ; resid.=  2.07749014046397E-05
(PID.TID 0000.0001)  cg2d: iter=    55 ; resid.=  1.75880930511339E-05
(PID.TID 0000.0001)  cg2d: iter=    56 ; resid.=  1.53154110320555E-05
(PID.TID 0000.0001)  cg2d: iter=    57 ; resid.=  1.28209493112896E-05
(PID.TID 0000.0001)  cg2d: iter=    58 ; resid.=  9.39260690250688E-06
(PID.TID 0000.0001)  cg2d: iter=    59 ; resid.=  7.48752823569785E-06
(PID.TID 0000.0001)  cg2d: iter=    60 ; resid.=  6.21324049361362E-06
(PID.TID 0000.0001)  cg2d: iter=    61 ; resid.=  5.30755018856594E-06
(PID.TID 0000.0001)  cg2d: iter=    62 ; resid.=  4.53580364493854E-06
(PID.TID 0000.0001)  cg2d: iter=    63 ; resid.=  4.24605115809823E-06
(PID.TID 0000.0001)  cg2d: iter=    64 ; resid.=  3.24259363780145E-06
(PID.TID 0000.0001)  cg2d: iter=    65 ; resid.=  2.51754682540126E-06
(PID.TID 0000.0001)  cg2d: iter=    66 ; resid.=  1.99935629748382E-06
(PID.TID 0000.0001)  cg2d: iter=    67 ; resid.=  1.66577668725880E-06
(PID.TID 0000.0001)  cg2d: iter=    68 ; resid.=  1.30489880737890E-06
(PID.TID 0000.0001)  cg2d: iter=    69 ; resid.=  1.10122457249258E-06
(PID.TID 0000.0001)  cg2d: iter=    70 ; resid.=  8.91893792458124E-07
(PID.TID 0000.0001)  cg2d: iter=    71 ; resid.=  7.61637994212523E-07
(PID.TID 0000.0001)  cg2d: iter=    72 ; resid.=  6.82969650988396E-07
(PID.TID 0000.0001)  cg2d: iter=    73 ; resid.=  6.10184685710837E-07
(PID.TID 0000.0001)  cg2d: iter=    74 ; resid.=  5.03397897625387E-07
(PID.TID 0000.0001)  cg2d: iter=    75 ; resid.=  3.89849874267359E-07
(PID.TID 0000.0001)  cg2d: iter=    76 ; resid.=  3.36666442871470E-07
(PID.TID 0000.0001)  cg2d: iter=    77 ; resid.=  2.69002520094802E-07
(PID.TID 0000.0001)  cg2d: iter=    78 ; resid.=  2.21556887447795E-07
(PID.TID 0000.0001)  cg2d: iter=    79 ; resid.=  1.88330983144010E-07
(PID.TID 0000.0001)  cg2d: iter=    80 ; resid.=  1.39960692082675E-07
(PID.TID 0000.0001)  cg2d: iter=    81 ; resid.=  1.04307123868200E-07
(PID.TID 0000.0001)  cg2d: iter=    82 ; resid.=  7.63584700470734E-08
(PID.TID 0000.0001)  cg2d: iter=    83 ; resid.=  5.66152202793630E-08
(PID.TID 0000.0001)  cg2d: iter=    84 ; resid.=  4.13407314908641E-08
(PID.TID 0000.0001)  cg2d: iter=    85 ; resid.=  3.00967008201839E-08
(PID.TID 0000.0001)  cg2d: iter=    86 ; resid.=  2.50224593979954E-08
(PID.TID 0000.0001)  cg2d: iter=    87 ; resid.=  2.07245967795577E-08
(PID.TID 0000.0001)  cg2d: iter=    88 ; resid.=  1.61605897995797E-08
(PID.TID 0000.0001)  cg2d: iter=    89 ; resid.=  1.41930022400003E-08
(PID.TID 0000.0001)  cg2d: iter=    90 ; resid.=  1.17447343819781E-08
(PID.TID 0000.0001)  cg2d: iter=    91 ; resid.=  8.05956915746911E-09
(PID.TID 0000.0001)  cg2d: iter=    92 ; resid.=  5.99292691297641E-09
(PID.TID 0000.0001)  cg2d: iter=    93 ; resid.=  4.73785314945163E-09
(PID.TID 0000.0001)  cg2d: iter=    94 ; resid.=  3.95658648425604E-09
(PID.TID 0000.0001)  cg2d: iter=    95 ; resid.=  3.15492499336223E-09
(PID.TID 0000.0001)  cg2d: iter=    96 ; resid.=  2.48608532896679E-09
(PID.TID 0000.0001)  cg2d: iter=    97 ; resid.=  1.95318020398326E-09
(PID.TID 0000.0001)  cg2d: iter=    98 ; resid.=  1.51785264047643E-09
(PID.TID 0000.0001)  cg2d: iter=    99 ; resid.=  1.25530093214036E-09
(PID.TID 0000.0001)  cg2d: iter=   100 ; resid.=  1.18904313445289E-09
(PID.TID 0000.0001)  cg2d: iter=   101 ; resid.=  9.33273622756019E-10
(PID.TID 0000.0001)  cg2d: iter=   102 ; resid.=  7.90550961807654E-10
(PID.TID 0000.0001)  cg2d: iter=   103 ; resid.=  6.47301348285817E-10
(PID.TID 0000.0001)  cg2d: iter=   104 ; resid.=  5.08543903036961E-10
(PID.TID 0000.0001)  cg2d: iter=   105 ; resid.=  4.16452875656652E-10
(PID.TID 0000.0001)  cg2d: iter=   106 ; resid.=  3.39608597393967E-10
(PID.TID 0000.0001)  cg2d: iter=   107 ; resid.=  2.58431173216856E-10
(PID.TID 0000.0001)  cg2d: iter=   108 ; resid.=  2.16044736585667E-10
(PID.TID 0000.0001)  cg2d: iter=   109 ; resid.=  1.64027327838303E-10
(PID.TID 0000.0001)  cg2d: iter=   110 ; resid.=  1.21667013561736E-10
(PID.TID 0000.0001)  cg2d: iter=   111 ; resid.=  9.98898225769383E-11
(PID.TID 0000.0001)  cg2d: iter=   112 ; resid.=  7.61145895134339E-11
(PID.TID 0000.0001)  cg2d: iter=   113 ; resid.=  5.89032206205092E-11
(PID.TID 0000.0001)  cg2d: iter=   114 ; resid.=  4.53773595663838E-11
(PID.TID 0000.0001)  cg2d: iter=   115 ; resid.=  3.63904977138180E-11
(PID.TID 0000.0001)  cg2d: iter=   116 ; resid.=  2.60464616143345E-11
(PID.TID 0000.0001)  cg2d: iter=   117 ; resid.=  1.95020691321861E-11
(PID.TID 0000.0001)  cg2d: iter=   118 ; resid.=  1.47571578613000E-11
(PID.TID 0000.0001)  cg2d: iter=   119 ; resid.=  1.03769833115859E-11
(PID.TID 0000.0001)  cg2d: iter=   120 ; resid.=  7.67373291310083E-12
(PID.TID 0000.0001)  cg2d: iter=   121 ; resid.=  6.29089079700521E-12
(PID.TID 0000.0001)  cg2d: iter=   122 ; resid.=  5.09310976442564E-12
(PID.TID 0000.0001)  cg2d: iter=   123 ; resid.=  3.53402826654017E-12
(PID.TID 0000.0001)  cg2d: iter=   124 ; resid.=  2.63147409791324E-12
(PID.TID 0000.0001)  cg2d: iter=   125 ; resid.=  1.86449476447277E-12
(PID.TID 0000.0001)  cg2d: iter=   126 ; resid.=  1.26970353565202E-12
(PID.TID 0000.0001)  cg2d: iter=   127 ; resid.=  8.70154129659469E-13
(PID.TID 0000.0001)  cg2d: iter=   128 ; resid.=  6.30258664127292E-13
(PID.TID 0000.0001)  cg2d: iter=   129 ; resid.=  4.61634257378564E-13
(PID.TID 0000.0001)  cg2d: iter=   130 ; resid.=  3.36952736595461E-13
(PID.TID 0000.0001)  cg2d: iter=   131 ; resid.=  2.27434401403654E-13
(PID.TID 0000.0001)  cg2d: iter=   132 ; resid.=  1.51893335617526E-13
(PID.TID 0000.0001)  cg2d: iter=   133 ; resid.=  1.10743064803759E-13
(PID.TID 0000.0001)  cg2d: iter=   134 ; resid.=  8.43296225615837E-14
DEBUG_STATS_RL:    cg2d_x (SOLVE_FOR_PRESSURE)  min= -2.31595368029532E+01
DEBUG_STATS_RL:    cg2d_x (SOLVE_FOR_PRESSURE)  max=  1.24269481971117E+01
DEBUG_STATS_RL:    cg2d_x (SOLVE_FOR_PRESSURE) mean= -2.13960542926754E+00
DEBUG_STATS_RL:    cg2d_x (SOLVE_FOR_PRESSURE) S.D.=  9.43601664110335E+00
(PID.TID 0000.0001)      cg2d_init_res =   3.66730330477169E-01
(PID.TID 0000.0001)      cg2d_iters(min,last) =      -1     134
(PID.TID 0000.0001)      cg2d_last_res =   8.43296225615837E-14
(PID.TID 0000.0001) // =======================================================
(PID.TID 0000.0001) // Begin MONITOR dynamic field statistics
(PID.TID 0000.0001) // =======================================================
(PID.TID 0000.0001) %MON time_tsnumber                =                    75
(PID.TID 0000.0001) %MON time_secondsf                =   6.4800000000000E+06
(PID.TID 0000.0001) %MON dynstat_eta_max              =   1.2667633228452E+00
(PID.TID 0000.0001) %MON dynstat_eta_min              =  -2.3608090522889E+00
(PID.TID 0000.0001) %MON dynstat_eta_mean             =  -5.2812345717317E-03
(PID.TID 0000.0001) %MON dynstat_eta_sd               =   8.8125135295364E-01
(PID.TID 0000.0001) %MON dynstat_eta_del2             =   2.5263348586834E-03
(PID.TID 0000.0001) %MON dynstat_uvel_max             =   1.5506457550154E-01
(PID.TID 0000.0001) %MON dynstat_uvel_min             =  -1.3497974033960E-01
(PID.TID 0000.0001) %MON dynstat_uvel_mean            =   2.5567493580282E-03
(PID.TID 0000.0001) %MON dynstat_uvel_sd              =   2.0165800875091E-02
(PID.TID 0000.0001) %MON dynstat_uvel_del2            =   1.4219069055011E-04
(PID.TID 0000.0001) %MON dynstat_vvel_max             =   1.6300611691424E-01
(PID.TID 0000.0001) %MON dynstat_vvel_min             =  -9.0103950830651E-02
(PID.TID 0000.0001) %MON dynstat_vvel_mean            =  -2.2265258927883E-04
(PID.TID 0000.0001) %MON dynstat_vvel_sd              =   1.0362345007691E-02
(PID.TID 0000.0001) %MON dynstat_vvel_del2            =   9.1019460549439E-05
(PID.TID 0000.0001) %MON dynstat_wvel_max             =   1.3302084641449E-04
(PID.TID 0000.0001) %MON dynstat_wvel_min             =  -1.0515617060569E-04
(PID.TID 0000.0001) %MON dynstat_wvel_mean            =   1.8647718304102E-22
(PID.TID 0000.0001) %MON dynstat_wvel_sd              =   1.5300741315555E-05
(PID.TID 0000.0001) %MON dynstat_wvel_del2            =   1.4691237252402E-07
(PID.TID 0000.0001) %MON dynstat_theta_max            =   3.0906952522670E+01
(PID.TID 0000.0001) %MON dynstat_theta_min            =  -1.9531133753053E+00
(PID.TID 0000.0001) %MON dynstat_theta_mean           =   3.6535881753269E+00
(PID.TID 0000.0001) %MON dynstat_theta_sd             =   4.4261277352120E+00
(PID.TID 0000.0001) %MON dynstat_theta_del2           =   4.9062697775904E-03
(PID.TID 0000.0001) %MON dynstat_salt_max             =   3.7496965212704E+01
(PID.TID 0000.0001) %MON dynstat_salt_min             =   2.9925744529353E+01
(PID.TID 0000.0001) %MON dynstat_salt_mean            =   3.4748036253687E+01
(PID.TID 0000.0001) %MON dynstat_salt_sd              =   2.9660943558267E-01
(PID.TID 0000.0001) %MON dynstat_salt_del2            =   9.9556810650584E-04
(PID.TID 0000.0001) %MON dynstat_sst_max              =   3.0906952522670E+01
(PID.TID 0000.0001) %MON dynstat_sst_min              =  -1.9531133753053E+00
(PID.TID 0000.0001) %MON dynstat_sst_mean             =   1.9084867207487E+01
(PID.TID 0000.0001) %MON dynstat_sst_sd               =   9.1429795927109E+00
(PID.TID 0000.0001) %MON dynstat_sst_del2             =   2.8742049779000E-02
(PID.TID 0000.0001) %MON dynstat_sss_max              =   3.7484763215178E+01
(PID.TID 0000.0001) %MON dynstat_sss_min              =   2.9925744529353E+01
(PID.TID 0000.0001) %MON dynstat_sss_mean             =   3.4868945267055E+01
(PID.TID 0000.0001) %MON dynstat_sss_sd               =   9.8562400626115E-01
(PID.TID 0000.0001) %MON dynstat_sss_del2             =   8.1740678598047E-03
(PID.TID 0000.0001) %MON forcing_qnet_max             =   2.7730584208171E+02
(PID.TID 0000.0001) %MON forcing_qnet_min             =  -1.6415487009684E+02
(PID.TID 0000.0001) %MON forcing_qnet_mean            =  -7.4884054897712E+00
(PID.TID 0000.0001) %MON forcing_qnet_sd              =   4.7058066194511E+01
(PID.TID 0000.0001) %MON forcing_qnet_del2            =   8.5296023684548E-01
(PID.TID 0000.0001) %MON forcing_qsw_max              =   0.0000000000000E+00
(PID.TID 0000.0001) %MON forcing_qsw_min              =   0.0000000000000E+00
(PID.TID 0000.0001) %MON forcing_qsw_mean             =   0.0000000000000E+00
(PID.TID 0000.0001) %MON forcing_qsw_sd               =   0.0000000000000E+00
(PID.TID 0000.0001) %MON forcing_qsw_del2             =   0.0000000000000E+00
(PID.TID 0000.0001) %MON forcing_empmr_max            =   6.9114578119904E-05
(PID.TID 0000.0001) %MON forcing_empmr_min            =  -8.2865237989912E-05
(PID.TID 0000.0001) %MON forcing_empmr_mean           =   5.6380098455305E-07
(PID.TID 0000.0001) %MON forcing_empmr_sd             =   2.6310215550859E-05
(PID.TID 0000.0001) %MON forcing_empmr_del2           =   3.6525018640228E-07
(PID.TID 0000.0001) %MON forcing_fu_max               =   3.5560998022556E-01
(PID.TID 0000.0001) %MON forcing_fu_min               =  -3.8218430181344E-01
(PID.TID 0000.0001) %MON forcing_fu_mean              =   2.0362529710929E-02
(PID.TID 0000.0001) %MON forcing_fu_sd                =   1.0155623203239E-01
(PID.TID 0000.0001) %MON forcing_fu_del2              =   8.3547097553751E-04
(PID.TID 0000.0001) %MON forcing_fv_max               =   1.7947518900037E-01
(PID.TID 0000.0001) %MON forcing_fv_min               =  -1.9183383832375E-01
(PID.TID 0000.0001) %MON forcing_fv_mean              =  -7.5191470900751E-03
(PID.TID 0000.0001) %MON forcing_fv_sd                =   4.2508768930942E-02
(PID.TID 0000.0001) %MON forcing_fv_del2              =   5.0164590245370E-04
(PID.TID 0000.0001) %MON trAdv_CFL_u_max              =   4.6965477815476E-02
(PID.TID 0000.0001) %MON trAdv_CFL_v_max              =   3.1733196195365E-02
(PID.TID 0000.0001) %MON trAdv_CFL_w_max              =   4.4560567247408E-02
(PID.TID 0000.0001) %MON advcfl_uvel_max              =   4.5609763399412E-02
(PID.TID 0000.0001) %MON advcfl_vvel_max              =   3.1669474212629E-02
(PID.TID 0000.0001) %MON advcfl_wvel_max              =   4.3512148678928E-02
(PID.TID 0000.0001) %MON advcfl_W_hf_max              =   5.2836180538698E-02
(PID.TID 0000.0001) %MON pe_b_mean                    =   9.9379404702188E-04
(PID.TID 0000.0001) %MON ke_max                       =   1.9019971245054E-02
(PID.TID 0000.0001) %MON ke_mean                      =   2.3595045359456E-04
(PID.TID 0000.0001) %MON ke_vol                       =   1.3226782436723E+18
(PID.TID 0000.0001) %MON vort_r_min                   =  -4.0764915315777E-07
(PID.TID 0000.0001) %MON vort_r_max                   =   5.4622029549964E-07
(PID.TID 0000.0001) %MON vort_a_mean                  =  -2.5274806183649E-05
(PID.TID 0000.0001) %MON vort_a_sd                    =   7.3604704362236E-05
(PID.TID 0000.0001) %MON vort_p_mean                  =  -3.1845654270110E-05
(PID.TID 0000.0001) %MON vort_p_sd                    =   1.3162559974333E-04
(PID.TID 0000.0001) %MON surfExpan_theta_mean         =   7.4514463536190E-07
(PID.TID 0000.0001) %MON surfExpan_salt_mean          =  -1.8755894340979E-07
(PID.TID 0000.0001) // =======================================================
(PID.TID 0000.0001) // End MONITOR dynamic field statistics
(PID.TID 0000.0001) // =======================================================
 EXTERNAL_FIELDS_LOAD,        75 : iP,iLd,i0,i1=    2    3    3    4 ; Wght=  1.0000000000  0.0000000000
 EXTERNAL_FIELDS_LOAD, it=        75 : Reading new data, i0,i1=    3    4 (prev=    2    3 )
(PID.TID 0000.0001)  MDS_READ_FIELD: opening global file: trenberth_taux.bin
(PID.TID 0000.0001)  MDS_READ_FIELD: opening global file: trenberth_taux.bin
(PID.TID 0000.0001)  MDS_READ_FIELD: opening global file: trenberth_tauy.bin
(PID.TID 0000.0001)  MDS_READ_FIELD: opening global file: trenberth_tauy.bin
(PID.TID 0000.0001)  MDS_READ_FIELD: opening global file: ncep_qnet.bin
(PID.TID 0000.0001)  MDS_READ_FIELD: opening global file: ncep_qnet.bin
(PID.TID 0000.0001)  MDS_READ_FIELD: opening global file: ncep_emp.bin
(PID.TID 0000.0001)  MDS_READ_FIELD: opening global file: ncep_emp.bin
(PID.TID 0000.0001)  MDS_READ_FIELD: opening global file: lev_sst.bin
(PID.TID 0000.0001)  MDS_READ_FIELD: opening global file: lev_sst.bin
(PID.TID 0000.0001)  MDS_READ_FIELD: opening global file: lev_sss.bin
(PID.TID 0000.0001)  MDS_READ_FIELD: opening global file: lev_sss.bin
 EXTERNAL_FIELDS_LOAD: (fu0,1),fu,fv= -2.7199E-02 -3.7252E-02 -2.7199E-02 -5.7807E-04
 EXTERNAL_FIELDS_LOAD: SST,SSS,Q,E-P= -1.8390E-01  3.4579E+01  2.1540E+02  9.0808E-06
DEBUG_STATS_RL:          Uvel (THERMODYNAMICS)  min= -1.34979740339598E-01
DEBUG_STATS_RL:          Uvel (THERMODYNAMICS)  max=  1.55064575501538E-01
DEBUG_STATS_RL:          Uvel (THERMODYNAMICS) mean=  6.44263189981985E-03
DEBUG_STATS_RL:          Uvel (THERMODYNAMICS) S.D.=  2.65992822759013E-02
DEBUG_STATS_RL:          Vvel (THERMODYNAMICS)  min= -9.01039508306511E-02
DEBUG_STATS_RL:          Vvel (THERMODYNAMICS)  max=  1.63006116914241E-01
DEBUG_STATS_RL:          Vvel (THERMODYNAMICS) mean=  5.86553068631438E-04
DEBUG_STATS_RL:          Vvel (THERMODYNAMICS) S.D.=  1.53903275067997E-02
DEBUG_STATS_RL:          Wvel (THERMODYNAMICS)  min= -1.05156170605689E-04
DEBUG_STATS_RL:          Wvel (THERMODYNAMICS)  max=  1.33020846414488E-04
DEBUG_STATS_RL:          Wvel (THERMODYNAMICS) mean= -5.20855040542677E-08
DEBUG_STATS_RL:          Wvel (THERMODYNAMICS) S.D.=  1.31300174117338E-05
DEBUG_STATS_RL:         Theta (THERMODYNAMICS)  min= -1.95266405213893E+00
DEBUG_STATS_RL:         Theta (THERMODYNAMICS)  max=  3.09268074546558E+01
DEBUG_STATS_RL:         Theta (THERMODYNAMICS) mean=  3.25106083112753E+00
DEBUG_STATS_RL:         Theta (THERMODYNAMICS) S.D.=  5.88444242095158E+00
DEBUG_STATS_RL:          Salt (THERMODYNAMICS)  min=  3.00000000000000E-02
DEBUG_STATS_RL:          Salt (THERMODYNAMICS)  max=  3.74967185240052E+01
DEBUG_STATS_RL:          Salt (THERMODYNAMICS) mean=  1.88748028075271E+01
DEBUG_STATS_RL:          Salt (THERMODYNAMICS) S.D.=  1.73003465648260E+01
DEBUG_STATS_RL:         GtNm1 (THERMODYNAMICS)  min= -2.64848196449351E-06
DEBUG_STATS_RL:         GtNm1 (THERMODYNAMICS)  max=  1.92545599616511E-06
DEBUG_STATS_RL:         GtNm1 (THERMODYNAMICS) mean=  8.40220673412645E-10
DEBUG_STATS_RL:         GtNm1 (THERMODYNAMICS) S.D.=  1.66407300254189E-07
DEBUG_STATS_RL:         GsNm1 (THERMODYNAMICS)  min= -3.09342897046627E-07
DEBUG_STATS_RL:         GsNm1 (THERMODYNAMICS)  max=  2.57550318138729E-07
DEBUG_STATS_RL:         GsNm1 (THERMODYNAMICS) mean=  9.64618867574574E-11
DEBUG_STATS_RL:         GsNm1 (THERMODYNAMICS) S.D.=  1.51308091864620E-08
DEBUG_STATS_RL:                EtaN (DYNAMICS)  min= -2.36080905228895E+00
DEBUG_STATS_RL:                EtaN (DYNAMICS)  max=  1.26676332284515E+00
DEBUG_STATS_RL:                EtaN (DYNAMICS) mean= -2.18104528977322E-01
DEBUG_STATS_RL:                EtaN (DYNAMICS) S.D.=  9.61877333445808E-01
DEBUG_STATS_RL:                Uvel (DYNAMICS)  min= -1.34979740339598E-01
DEBUG_STATS_RL:                Uvel (DYNAMICS)  max=  1.55064575501538E-01
DEBUG_STATS_RL:                Uvel (DYNAMICS) mean=  6.44263189981985E-03
DEBUG_STATS_RL:                Uvel (DYNAMICS) S.D.=  2.65992822759013E-02
DEBUG_STATS_RL:                Vvel (DYNAMICS)  min= -9.01039508306511E-02
DEBUG_STATS_RL:                Vvel (DYNAMICS)  max=  1.63006116914241E-01
DEBUG_STATS_RL:                Vvel (DYNAMICS) mean=  5.86553068631438E-04
DEBUG_STATS_RL:                Vvel (DYNAMICS) S.D.=  1.53903275067997E-02
DEBUG_STATS_RL:                Wvel (DYNAMICS)  min= -1.05156170605689E-04
DEBUG_STATS_RL:                Wvel (DYNAMICS)  max=  1.33020846414488E-04
DEBUG_STATS_RL:                Wvel (DYNAMICS) mean= -5.20855040542677E-08
DEBUG_STATS_RL:                Wvel (DYNAMICS) S.D.=  1.31300174117338E-05
DEBUG_STATS_RL:               Theta (DYNAMICS)  min= -1.95266405213893E+00
DEBUG_STATS_RL:               Theta (DYNAMICS)  max=  3.09268074546558E+01
DEBUG_STATS_RL:               Theta (DYNAMICS) mean=  3.25106083112753E+00
DEBUG_STATS_RL:               Theta (DYNAMICS) S.D.=  5.88444242095158E+00
DEBUG_STATS_RL:                Salt (DYNAMICS)  min=  3.00000000000000E-02
DEBUG_STATS_RL:                Salt (DYNAMICS)  max=  3.74967185240052E+01
DEBUG_STATS_RL:                Salt (DYNAMICS) mean=  1.88748028075271E+01
DEBUG_STATS_RL:                Salt (DYNAMICS) S.D.=  1.73003465648260E+01
DEBUG_STATS_RL:                  Gu (DYNAMICS)  min= -1.32523559396437E-01
DEBUG_STATS_RL:                  Gu (DYNAMICS)  max=  1.59161039040260E-01
DEBUG_STATS_RL:                  Gu (DYNAMICS) mean=  6.46321771443879E-03
DEBUG_STATS_RL:                  Gu (DYNAMICS) S.D.=  2.68918360441734E-02
DEBUG_STATS_RL:                  Gv (DYNAMICS)  min= -8.96038399458848E-02
DEBUG_STATS_RL:                  Gv (DYNAMICS)  max=  1.63380030376136E-01
DEBUG_STATS_RL:                  Gv (DYNAMICS) mean=  3.51930702518009E-03
DEBUG_STATS_RL:                  Gv (DYNAMICS) S.D.=  1.67110802090839E-02
DEBUG_STATS_RL:               GuNm1 (DYNAMICS)  min= -1.14366921876023E-05
DEBUG_STATS_RL:               GuNm1 (DYNAMICS)  max=  9.41605936319145E-06
DEBUG_STATS_RL:               GuNm1 (DYNAMICS) mean=  9.39559586356321E-09
DEBUG_STATS_RL:               GuNm1 (DYNAMICS) S.D.=  1.23591093954434E-06
DEBUG_STATS_RL:               GvNm1 (DYNAMICS)  min= -1.01052885750794E-05
DEBUG_STATS_RL:               GvNm1 (DYNAMICS)  max=  1.55372453630294E-05
DEBUG_STATS_RL:               GvNm1 (DYNAMICS) mean=  7.40668304899201E-07
DEBUG_STATS_RL:               GvNm1 (DYNAMICS) S.D.=  2.64073286470817E-06
DEBUG_STATS_RL:               GtNm1 (DYNAMICS)  min= -2.64848196449351E-06
DEBUG_STATS_RL:               GtNm1 (DYNAMICS)  max=  1.92545599616511E-06
DEBUG_STATS_RL:               GtNm1 (DYNAMICS) mean=  8.40220673412645E-10
DEBUG_STATS_RL:               GtNm1 (DYNAMICS) S.D.=  1.66407300254189E-07
DEBUG_STATS_RL:               GsNm1 (DYNAMICS)  min= -3.09342897046627E-07
DEBUG_STATS_RL:               GsNm1 (DYNAMICS)  max=  2.57550318138729E-07
DEBUG_STATS_RL:               GsNm1 (DYNAMICS) mean=  9.64618867574574E-11
DEBUG_STATS_RL:               GsNm1 (DYNAMICS) S.D.=  1.51308091864620E-08
DEBUG_STATS_RL:    cg2d_b (SOLVE_FOR_PRESSURE)  min= -1.93426353044434E+04
DEBUG_STATS_RL:    cg2d_b (SOLVE_FOR_PRESSURE)  max=  2.68284287180846E+04
DEBUG_STATS_RL:    cg2d_b (SOLVE_FOR_PRESSURE) mean=  5.10574035806199E+00
DEBUG_STATS_RL:    cg2d_b (SOLVE_FOR_PRESSURE) S.D.=  4.15265673586340E+03
 cg2d: Sum(rhs),rhsMax =   4.40569556015327E-01  1.76216302932865E+00
(PID.TID 0000.0001)  cg2d: iter=     1 ; resid.=  2.16021522176758E-01
(PID.TID 0000.0001)  cg2d: iter=     2 ; resid.=  1.68353757867196E-01
(PID.TID 0000.0001)  cg2d: iter=     3 ; resid.=  1.57637783507655E-01
(PID.TID 0000.0001)  cg2d: iter=     4 ; resid.=  1.41457806484012E-01
(PID.TID 0000.0001)  cg2d: iter=     5 ; resid.=  1.17435231091602E-01
(PID.TID 0000.0001)  cg2d: iter=     6 ; resid.=  1.03764691876936E-01
(PID.TID 0000.0001)  cg2d: iter=     7 ; resid.=  8.78569840756030E-02
(PID.TID 0000.0001)  cg2d: iter=     8 ; resid.=  7.19728258593870E-02
(PID.TID 0000.0001)  cg2d: iter=     9 ; resid.=  6.00542836883779E-02
(PID.TID 0000.0001)  cg2d: iter=    10 ; resid.=  5.14382982160851E-02
(PID.TID 0000.0001)  cg2d: iter=    11 ; resid.=  4.48997629689469E-02
(PID.TID 0000.0001)  cg2d: iter=    12 ; resid.=  3.52121897506852E-02
(PID.TID 0000.0001)  cg2d: iter=    13 ; resid.=  2.72488141206727E-02
(PID.TID 0000.0001)  cg2d: iter=    14 ; resid.=  2.24503363240721E-02
(PID.TID 0000.0001)  cg2d: iter=    15 ; resid.=  1.88608685014025E-02
(PID.TID 0000.0001)  cg2d: iter=    16 ; resid.=  1.64807591353276E-02
(PID.TID 0000.0001)  cg2d: iter=    17 ; resid.=  1.50704591397637E-02
(PID.TID 0000.0001)  cg2d: iter=    18 ; resid.=  1.34035103059985E-02
(PID.TID 0000.0001)  cg2d: iter=    19 ; resid.=  1.05364096789100E-02
(PID.TID 0000.0001)  cg2d: iter=    20 ; resid.=  8.50933504275038E-03
(PID.TID 0000.0001)  cg2d: iter=    21 ; resid.=  7.31791103981876E-03
(PID.TID 0000.0001)  cg2d: iter=    22 ; resid.=  6.56104704187275E-03
(PID.TID 0000.0001)  cg2d: iter=    23 ; resid.=  5.21638068152778E-03
(PID.TID 0000.0001)  cg2d: iter=    24 ; resid.=  4.16505875326912E-03
(PID.TID 0000.0001)  cg2d: iter=    25 ; resid.=  3.36772537690652E-03
(PID.TID 0000.0001)  cg2d: iter=    26 ; resid.=  2.84195723596842E-03
(PID.TID 0000.0001)  cg2d: iter=    27 ; resid.=  2.32275920661947E-03
(PID.TID 0000.0001)  cg2d: iter=    28 ; resid.=  1.98519947617020E-03
(PID.TID 0000.0001)  cg2d: iter=    29 ; resid.=  1.68619093614425E-03
(PID.TID 0000.0001)  cg2d: iter=    30 ; resid.=  1.43374683960196E-03
(PID.TID 0000.0001)  cg2d: iter=    31 ; resid.=  1.14608119559597E-03
(PID.TID 0000.0001)  cg2d: iter=    32 ; resid.=  8.80674646203169E-04
(PID.TID 0000.0001)  cg2d: iter=    33 ; resid.=  7.64962483843051E-04
(PID.TID 0000.0001)  cg2d: iter=    34 ; resid.=  6.42191713651017E-04
(PID.TID 0000.0001)  cg2d: iter=    35 ; resid.=  5.58447880444132E-04
(PID.TID 0000.0001)  cg2d: iter=    36 ; resid.=  4.77249613540014E-04
(PID.TID 0000.0001)  cg2d: iter=    37 ; resid.=  4.08936788504504E-04
(PID.TID 0000.0001)  cg2d: iter=    38 ; resid.=  3.51935773649176E-04
(PID.TID 0000.0001)  cg2d: iter=    39 ; resid.=  3.05591402350999E-04
(PID.TID 0000.0001)  cg2d: iter=    40 ; resid.=  2.73742059774761E-04
(PID.TID 0000.0001)  cg2d: iter=    41 ; resid.=  2.38170783030624E-04
(PID.TID 0000.0001)  cg2d: iter=    42 ; resid.=  2.04190265369466E-04
(PID.TID 0000.0001)  cg2d: iter=    43 ; resid.=  1.65710499895375E-04
(PID.TID 0000.0001)  cg2d: iter=    44 ; resid.=  1.26933668730472E-04
(PID.TID 0000.0001)  cg2d: iter=    45 ; resid.=  9.84553664712423E-05
(PID.TID 0000.0001)  cg2d: iter=    46 ; resid.=  7.64379839270909E-05
(PID.TID 0000.0001)  cg2d: iter=    47 ; resid.=  6.47670397610437E-05
(PID.TID 0000.0001)  cg2d: iter=    48 ; resid.=  5.36847077454082E-05
(PID.TID 0000.0001)  cg2d: iter=    49 ; resid.=  4.31740316184412E-05
(PID.TID 0000.0001)  cg2d: iter=    50 ; resid.=  3.44476878545069E-05
(PID.TID 0000.0001)  cg2d: iter=    51 ; resid.=  2.93959878180908E-05
(PID.TID 0000.0001)  cg2d: iter=    52 ; resid.=  2.50626577476793E-05
(PID.TID 0000.0001)  cg2d: iter=    53 ; resid.=  2.14933371553517E-05
(PID.TID 0000.0001)  cg2d: iter=    54 ; resid.=  1.75513881479093E-05
(PID.TID 0000.0001)  cg2d: iter=    55 ; resid.=  1.49138535375274E-05
(PID.TID 0000.0001)  cg2d: iter=    56 ; resid.=  1.28919803108629E-05
(PID.TID 0000.0001)  cg2d: iter=    57 ; resid.=  1.07361387050184E-05
(PID.TID 0000.0001)  cg2d: iter=    58 ; resid.=  7.77770898838265E-06
(PID.TID 0000.0001)  cg2d: iter=    59 ; resid.=  6.24707926092270E-06
(PID.TID 0000.0001)  cg2d: iter=    60 ; resid.=  5.23189847842352E-06
(PID.TID 0000.0001)  cg2d: iter=    61 ; resid.=  4.49918863394075E-06
(PID.TID 0000.0001)  cg2d: iter=    62 ; resid.=  3.81179427164366E-06
(PID.TID 0000.0001)  cg2d: iter=    63 ; resid.=  3.59366428157278E-06
(PID.TID 0000.0001)  cg2d: iter=    64 ; resid.=  2.80699440539357E-06
(PID.TID 0000.0001)  cg2d: iter=    65 ; resid.=  2.24068167144543E-06
(PID.TID 0000.0001)  cg2d: iter=    66 ; resid.=  1.79976563492295E-06
(PID.TID 0000.0001)  cg2d: iter=    67 ; resid.=  1.51338219605298E-06
(PID.TID 0000.0001)  cg2d: iter=    68 ; resid.=  1.15393585863835E-06
(PID.TID 0000.0001)  cg2d: iter=    69 ; resid.=  9.26633593740402E-07
(PID.TID 0000.0001)  cg2d: iter=    70 ; resid.=  7.29724484303717E-07
(PID.TID 0000.0001)  cg2d: iter=    71 ; resid.=  6.15379837325904E-07
(PID.TID 0000.0001)  cg2d: iter=    72 ; resid.=  5.44185646806598E-07
(PID.TID 0000.0001)  cg2d: iter=    73 ; resid.=  4.77941082094019E-07
(PID.TID 0000.0001)  cg2d: iter=    74 ; resid.=  3.98766033870986E-07
(PID.TID 0000.0001)  cg2d: iter=    75 ; resid.=  3.10466412249854E-07
(PID.TID 0000.0001)  cg2d: iter=    76 ; resid.=  2.74787313752742E-07
(PID.TID 0000.0001)  cg2d: iter=    77 ; resid.=  2.33229661676418E-07
(PID.TID 0000.0001)  cg2d: iter=    78 ; resid.=  1.97211168119529E-07
(PID.TID 0000.0001)  cg2d: iter=    79 ; resid.=  1.72487227402893E-07
(PID.TID 0000.0001)  cg2d: iter=    80 ; resid.=  1.31655292215633E-07
(PID.TID 0000.0001)  cg2d: iter=    81 ; resid.=  9.98968071497532E-08
(PID.TID 0000.0001)  cg2d: iter=    82 ; resid.=  7.24998643763674E-08
(PID.TID 0000.0001)  cg2d: iter=    83 ; resid.=  5.40605645019530E-08
(PID.TID 0000.0001)  cg2d: iter=    84 ; resid.=  3.91624248873068E-08
(PID.TID 0000.0001)  cg2d: iter=    85 ; resid.=  2.80092366628646E-08
(PID.TID 0000.0001)  cg2d: iter=    86 ; resid.=  2.27650640140229E-08
(PID.TID 0000.0001)  cg2d: iter=    87 ; resid.=  1.92801321751197E-08
(PID.TID 0000.0001)  cg2d: iter=    88 ; resid.=  1.47662604266341E-08
(PID.TID 0000.0001)  cg2d: iter=    89 ; resid.=  1.27455861543150E-08
(PID.TID 0000.0001)  cg2d: iter=    90 ; resid.=  1.08556857003783E-08
(PID.TID 0000.0001)  cg2d: iter=    91 ; resid.=  7.51681154589533E-09
(PID.TID 0000.0001)  cg2d: iter=    92 ; resid.=  5.46636394463735E-09
(PID.TID 0000.0001)  cg2d: iter=    93 ; resid.=  4.13579370296677E-09
(PID.TID 0000.0001)  cg2d: iter=    94 ; resid.=  3.43627574849783E-09
(PID.TID 0000.0001)  cg2d: iter=    95 ; resid.=  2.66039236152464E-09
(PID.TID 0000.0001)  cg2d: iter=    96 ; resid.=  2.04571314144415E-09
(PID.TID 0000.0001)  cg2d: iter=    97 ; resid.=  1.60127036845124E-09
(PID.TID 0000.0001)  cg2d: iter=    98 ; resid.=  1.21718361444949E-09
(PID.TID 0000.0001)  cg2d: iter=    99 ; resid.=  9.68117785004585E-10
(PID.TID 0000.0001)  cg2d: iter=   100 ; resid.=  8.88043145160622E-10
(PID.TID 0000.0001)  cg2d: iter=   101 ; resid.=  7.19940321733722E-10
(PID.TID 0000.0001)  cg2d: iter=   102 ; resid.=  6.18846658575099E-10
(PID.TID 0000.0001)  cg2d: iter=   103 ; resid.=  5.20205530740146E-10
(PID.TID 0000.0001)  cg2d: iter=   104 ; resid.=  4.14870550620998E-10
(PID.TID 0000.0001)  cg2d: iter=   105 ; resid.=  3.43930484251593E-10
(PID.TID 0000.0001)  cg2d: iter=   106 ; resid.=  2.74670558561443E-10
(PID.TID 0000.0001)  cg2d: iter=   107 ; resid.=  2.06792261562965E-10
(PID.TID 0000.0001)  cg2d: iter=   108 ; resid.=  1.77434261183032E-10
(PID.TID 0000.0001)  cg2d: iter=   109 ; resid.=  1.36879633648577E-10
(PID.TID 0000.0001)  cg2d: iter=   110 ; resid.=  1.05239612633770E-10
(PID.TID 0000.0001)  cg2d: iter=   111 ; resid.=  8.89653158323139E-11
(PID.TID 0000.0001)  cg2d: iter=   112 ; resid.=  6.98924535251342E-11
(PID.TID 0000.0001)  cg2d: iter=   113 ; resid.=  5.55480582601816E-11
(PID.TID 0000.0001)  cg2d: iter=   114 ; resid.=  4.28167091650664E-11
(PID.TID 0000.0001)  cg2d: iter=   115 ; resid.=  3.40069489786142E-11
(PID.TID 0000.0001)  cg2d: iter=   116 ; resid.=  2.42286076554775E-11
(PID.TID 0000.0001)  cg2d: iter=   117 ; resid.=  1.79912708811655E-11
(PID.TID 0000.0001)  cg2d: iter=   118 ; resid.=  1.35711592135119E-11
(PID.TID 0000.0001)  cg2d: iter=   119 ; resid.=  9.43046092105673E-12
(PID.TID 0000.0001)  cg2d: iter=   120 ; resid.=  6.74014706787319E-12
(PID.TID 0000.0001)  cg2d: iter=   121 ; resid.=  5.28709435245260E-12
(PID.TID 0000.0001)  cg2d: iter=   122 ; resid.=  4.19914815237667E-12
(PID.TID 0000.0001)  cg2d: iter=   123 ; resid.=  2.96002061515365E-12
(PID.TID 0000.0001)  cg2d: iter=   124 ; resid.=  2.23898111220650E-12
(PID.TID 0000.0001)  cg2d: iter=   125 ; resid.=  1.64540137843482E-12
(PID.TID 0000.0001)  cg2d: iter=   126 ; resid.=  1.18064054693265E-12
(PID.TID 0000.0001)  cg2d: iter=   127 ; resid.=  8.32647334270632E-13
(PID.TID 0000.0001)  cg2d: iter=   128 ; resid.=  5.87593723035329E-13
(PID.TID 0000.0001)  cg2d: iter=   129 ; resid.=  4.32411015808960E-13
(PID.TID 0000.0001)  cg2d: iter=   130 ; resid.=  3.20732587069417E-13
(PID.TID 0000.0001)  cg2d: iter=   131 ; resid.=  2.23071743915651E-13
(PID.TID 0000.0001)  cg2d: iter=   132 ; resid.=  1.52690933918072E-13
(PID.TID 0000.0001)  cg2d: iter=   133 ; resid.=  1.16514215196022E-13
(PID.TID 0000.0001)  cg2d: iter=   134 ; resid.=  9.17828138327889E-14
DEBUG_STATS_RL:    cg2d_x (SOLVE_FOR_PRESSURE)  min= -2.35022154268846E+01
DEBUG_STATS_RL:    cg2d_x (SOLVE_FOR_PRESSURE)  max=  1.27450471139415E+01
DEBUG_STATS_RL:    cg2d_x (SOLVE_FOR_PRESSURE) mean= -2.16760174271710E+00
DEBUG_STATS_RL:    cg2d_x (SOLVE_FOR_PRESSURE) S.D.=  9.62391597336915E+00
(PID.TID 0000.0001)      cg2d_init_res =   3.60706835658838E-01
(PID.TID 0000.0001)      cg2d_iters(min,last) =      -1     134
(PID.TID 0000.0001)      cg2d_last_res =   9.17828138327889E-14
(PID.TID 0000.0001) // =======================================================
(PID.TID 0000.0001) // Begin MONITOR dynamic field statistics
(PID.TID 0000.0001) // =======================================================
(PID.TID 0000.0001) %MON time_tsnumber                =                    76
(PID.TID 0000.0001) %MON time_secondsf                =   6.5664000000000E+06
(PID.TID 0000.0001) %MON dynstat_eta_max              =   1.2991893082508E+00
(PID.TID 0000.0001) %MON dynstat_eta_min              =  -2.3957406143614E+00
(PID.TID 0000.0001) %MON dynstat_eta_mean             =  -5.3272069727343E-03
(PID.TID 0000.0001) %MON dynstat_eta_sd               =   9.0116128375904E-01
(PID.TID 0000.0001) %MON dynstat_eta_del2             =   2.5420230616684E-03
(PID.TID 0000.0001) %MON dynstat_uvel_max             =   1.5356015313070E-01
(PID.TID 0000.0001) %MON dynstat_uvel_min             =  -1.3221914657116E-01
(PID.TID 0000.0001) %MON dynstat_uvel_mean            =   2.5430336338683E-03
(PID.TID 0000.0001) %MON dynstat_uvel_sd              =   2.0011723108301E-02
(PID.TID 0000.0001) %MON dynstat_uvel_del2            =   1.4286455607170E-04
(PID.TID 0000.0001) %MON dynstat_vvel_max             =   1.6160114686856E-01
(PID.TID 0000.0001) %MON dynstat_vvel_min             =  -8.9917443378473E-02
(PID.TID 0000.0001) %MON dynstat_vvel_mean            =  -2.0585594332732E-04
(PID.TID 0000.0001) %MON dynstat_vvel_sd              =   1.0354902716198E-02
(PID.TID 0000.0001) %MON dynstat_vvel_del2            =   9.1069814622405E-05
(PID.TID 0000.0001) %MON dynstat_wvel_max             =   1.6463978027324E-04
(PID.TID 0000.0001) %MON dynstat_wvel_min             =  -1.0360364961288E-04
(PID.TID 0000.0001) %MON dynstat_wvel_mean            =   3.4400796940335E-22
(PID.TID 0000.0001) %MON dynstat_wvel_sd              =   1.5242871559915E-05
(PID.TID 0000.0001) %MON dynstat_wvel_del2            =   1.4738366287560E-07
(PID.TID 0000.0001) %MON dynstat_theta_max            =   3.0926807454656E+01
(PID.TID 0000.0001) %MON dynstat_theta_min            =  -1.9526640521389E+00
(PID.TID 0000.0001) %MON dynstat_theta_mean           =   3.6536144831531E+00
(PID.TID 0000.0001) %MON dynstat_theta_sd             =   4.4262995132318E+00
(PID.TID 0000.0001) %MON dynstat_theta_del2           =   4.9027138836481E-03
(PID.TID 0000.0001) %MON dynstat_salt_max             =   3.7496718524005E+01
(PID.TID 0000.0001) %MON dynstat_salt_min             =   2.9925867421759E+01
(PID.TID 0000.0001) %MON dynstat_salt_mean            =   3.4748040522197E+01
(PID.TID 0000.0001) %MON dynstat_salt_sd              =   2.9662502588481E-01
(PID.TID 0000.0001) %MON dynstat_salt_del2            =   9.9584514855519E-04
(PID.TID 0000.0001) %MON dynstat_sst_max              =   3.0926807454656E+01
(PID.TID 0000.0001) %MON dynstat_sst_min              =  -1.9526640521389E+00
(PID.TID 0000.0001) %MON dynstat_sst_mean             =   1.9086907911662E+01
(PID.TID 0000.0001) %MON dynstat_sst_sd               =   9.1505510208180E+00
(PID.TID 0000.0001) %MON dynstat_sst_del2             =   2.8794535430866E-02
(PID.TID 0000.0001) %MON dynstat_sss_max              =   3.7485883911057E+01
(PID.TID 0000.0001) %MON dynstat_sss_min              =   2.9925867421759E+01
(PID.TID 0000.0001) %MON dynstat_sss_mean             =   3.4868958885756E+01
(PID.TID 0000.0001) %MON dynstat_sss_sd               =   9.8594627621935E-01
(PID.TID 0000.0001) %MON dynstat_sss_del2             =   8.1839821281691E-03
(PID.TID 0000.0001) %MON forcing_qnet_max             =   2.7450769042969E+02
(PID.TID 0000.0001) %MON forcing_qnet_min             =  -1.6385559082031E+02
(PID.TID 0000.0001) %MON forcing_qnet_mean            =  -7.2650659901446E+00
(PID.TID 0000.0001) %MON forcing_qnet_sd              =   4.6489538210055E+01
(PID.TID 0000.0001) %MON forcing_qnet_del2            =   8.5238739722118E-01
(PID.TID 0000.0001) %MON forcing_qsw_max              =   0.0000000000000E+00
(PID.TID 0000.0001) %MON forcing_qsw_min              =   0.0000000000000E+00
(PID.TID 0000.0001) %MON forcing_qsw_mean             =   0.0000000000000E+00
(PID.TID 0000.0001) %MON forcing_qsw_sd               =   0.0000000000000E+00
(PID.TID 0000.0001) %MON forcing_qsw_del2             =   0.0000000000000E+00
(PID.TID 0000.0001) %MON forcing_empmr_max            =   6.9108821776354E-05
(PID.TID 0000.0001) %MON forcing_empmr_min            =  -8.3264417582996E-05
(PID.TID 0000.0001) %MON forcing_empmr_mean           =   5.5071105367869E-07
(PID.TID 0000.0001) %MON forcing_empmr_sd             =   2.6288642314053E-05
(PID.TID 0000.0001) %MON forcing_empmr_del2           =   3.6649371259951E-07
(PID.TID 0000.0001) %MON forcing_fu_max               =   3.5755139589310E-01
(PID.TID 0000.0001) %MON forcing_fu_min               =  -3.8855642080307E-01
(PID.TID 0000.0001) %MON forcing_fu_mean              =   2.0456729300388E-02
(PID.TID 0000.0001) %MON forcing_fu_sd                =   1.0213469725884E-01
(PID.TID 0000.0001) %MON forcing_fu_del2              =   8.4850782651584E-04
(PID.TID 0000.0001) %MON forcing_fv_max               =   1.8330034613609E-01
(PID.TID 0000.0001) %MON forcing_fv_min               =  -1.9333162903786E-01
(PID.TID 0000.0001) %MON forcing_fv_mean              =  -7.5295754400446E-03
(PID.TID 0000.0001) %MON forcing_fv_sd                =   4.2684681983358E-02
(PID.TID 0000.0001) %MON forcing_fv_del2              =   5.0763502385068E-04
(PID.TID 0000.0001) %MON trAdv_CFL_u_max              =   4.5619027068565E-02
(PID.TID 0000.0001) %MON trAdv_CFL_v_max              =   3.1540420488211E-02
(PID.TID 0000.0001) %MON trAdv_CFL_w_max              =   4.7783062595939E-02
(PID.TID 0000.0001) %MON advcfl_uvel_max              =   4.4142264258099E-02
(PID.TID 0000.0001) %MON advcfl_vvel_max              =   3.1396511065764E-02
(PID.TID 0000.0001) %MON advcfl_wvel_max              =   4.5878917258017E-02
(PID.TID 0000.0001) %MON advcfl_W_hf_max              =   5.5710113813306E-02
(PID.TID 0000.0001) %MON pe_b_mean                    =   1.0392054763628E-03
(PID.TID 0000.0001) %MON ke_max                       =   1.8990063853583E-02
(PID.TID 0000.0001) %MON ke_mean                      =   2.3303380328598E-04
(PID.TID 0000.0001) %MON ke_vol                       =   1.3226782436723E+18
(PID.TID 0000.0001) %MON vort_r_min                   =  -4.0017667849962E-07
(PID.TID 0000.0001) %MON vort_r_max                   =   5.1992157695567E-07
(PID.TID 0000.0001) %MON vort_a_mean                  =  -2.5274806229659E-05
(PID.TID 0000.0001) %MON vort_a_sd                    =   7.3604694136533E-05
(PID.TID 0000.0001) %MON vort_p_mean                  =  -3.1845654328083E-05
(PID.TID 0000.0001) %MON vort_p_sd                    =   1.3162572100508E-04
(PID.TID 0000.0001) %MON surfExpan_theta_mean         =   5.4678350061066E-07
(PID.TID 0000.0001) %MON surfExpan_salt_mean          =  -1.3561465030880E-07
(PID.TID 0000.0001) // =======================================================
(PID.TID 0000.0001) // End MONITOR dynamic field statistics
(PID.TID 0000.0001) // =======================================================
 EXTERNAL_FIELDS_LOAD,        76 : iP,iLd,i0,i1=    3    4    3    4 ; Wght=  0.9666666667  0.0333333333
 EXTERNAL_FIELDS_LOAD: (fu0,1),fu,fv= -2.7199E-02 -3.7252E-02 -2.7534E-02 -1.7327E-03
 EXTERNAL_FIELDS_LOAD: SST,SSS,Q,E-P= -1.7660E-01  3.4579E+01  2.1169E+02  9.0370E-06
DEBUG_STATS_RL:          Uvel (THERMODYNAMICS)  min= -1.32219146571158E-01
DEBUG_STATS_RL:          Uvel (THERMODYNAMICS)  max=  1.53560153130698E-01
DEBUG_STATS_RL:          Uvel (THERMODYNAMICS) mean=  6.46772118613686E-03
DEBUG_STATS_RL:          Uvel (THERMODYNAMICS) S.D.=  2.64069102084072E-02
DEBUG_STATS_RL:          Vvel (THERMODYNAMICS)  min= -8.99174433784734E-02
DEBUG_STATS_RL:          Vvel (THERMODYNAMICS)  max=  1.61601146868563E-01
DEBUG_STATS_RL:          Vvel (THERMODYNAMICS) mean=  6.77350675766733E-04
DEBUG_STATS_RL:          Vvel (THERMODYNAMICS) S.D.=  1.54369400112873E-02
DEBUG_STATS_RL:          Wvel (THERMODYNAMICS)  min= -1.03603649612879E-04
DEBUG_STATS_RL:          Wvel (THERMODYNAMICS)  max=  1.64639780273244E-04
DEBUG_STATS_RL:          Wvel (THERMODYNAMICS) mean= -3.46247970305501E-08
DEBUG_STATS_RL:          Wvel (THERMODYNAMICS) S.D.=  1.31179697136788E-05
DEBUG_STATS_RL:         Theta (THERMODYNAMICS)  min= -1.95153377564201E+00
DEBUG_STATS_RL:         Theta (THERMODYNAMICS)  max=  3.09471142544724E+01
DEBUG_STATS_RL:         Theta (THERMODYNAMICS) mean=  3.25105146483925E+00
DEBUG_STATS_RL:         Theta (THERMODYNAMICS) S.D.=  5.88487552935756E+00
DEBUG_STATS_RL:          Salt (THERMODYNAMICS)  min=  3.00000000000000E-02
DEBUG_STATS_RL:          Salt (THERMODYNAMICS)  max=  3.74964251769287E+01
DEBUG_STATS_RL:          Salt (THERMODYNAMICS) mean=  1.88748099063055E+01
DEBUG_STATS_RL:          Salt (THERMODYNAMICS) S.D.=  1.73003539944585E+01
DEBUG_STATS_RL:         GtNm1 (THERMODYNAMICS)  min= -2.83977551706112E-06
DEBUG_STATS_RL:         GtNm1 (THERMODYNAMICS)  max=  1.95535681868501E-06
DEBUG_STATS_RL:         GtNm1 (THERMODYNAMICS) mean=  6.32018265510745E-10
DEBUG_STATS_RL:         GtNm1 (THERMODYNAMICS) S.D.=  1.66966527282640E-07
DEBUG_STATS_RL:         GsNm1 (THERMODYNAMICS)  min= -2.99151272890480E-07
DEBUG_STATS_RL:         GsNm1 (THERMODYNAMICS)  max=  2.57454433901862E-07
DEBUG_STATS_RL:         GsNm1 (THERMODYNAMICS) mean=  8.91578007728583E-11
DEBUG_STATS_RL:         GsNm1 (THERMODYNAMICS) S.D.=  1.51629550467512E-08
DEBUG_STATS_RL:                EtaN (DYNAMICS)  min= -2.39574061436140E+00
DEBUG_STATS_RL:                EtaN (DYNAMICS)  max=  1.29918930825083E+00
DEBUG_STATS_RL:                EtaN (DYNAMICS) mean= -2.20958383559337E-01
DEBUG_STATS_RL:                EtaN (DYNAMICS) S.D.=  9.81031189945891E-01
DEBUG_STATS_RL:                Uvel (DYNAMICS)  min= -1.32219146571158E-01
DEBUG_STATS_RL:                Uvel (DYNAMICS)  max=  1.53560153130698E-01
DEBUG_STATS_RL:                Uvel (DYNAMICS) mean=  6.46772118613686E-03
DEBUG_STATS_RL:                Uvel (DYNAMICS) S.D.=  2.64069102084072E-02
DEBUG_STATS_RL:                Vvel (DYNAMICS)  min= -8.99174433784734E-02
DEBUG_STATS_RL:                Vvel (DYNAMICS)  max=  1.61601146868563E-01
DEBUG_STATS_RL:                Vvel (DYNAMICS) mean=  6.77350675766733E-04
DEBUG_STATS_RL:                Vvel (DYNAMICS) S.D.=  1.54369400112873E-02
DEBUG_STATS_RL:                Wvel (DYNAMICS)  min= -1.03603649612879E-04
DEBUG_STATS_RL:                Wvel (DYNAMICS)  max=  1.64639780273244E-04
DEBUG_STATS_RL:                Wvel (DYNAMICS) mean= -3.46247970305501E-08
DEBUG_STATS_RL:                Wvel (DYNAMICS) S.D.=  1.31179697136788E-05
DEBUG_STATS_RL:               Theta (DYNAMICS)  min= -1.95153377564201E+00
DEBUG_STATS_RL:               Theta (DYNAMICS)  max=  3.09471142544724E+01
DEBUG_STATS_RL:               Theta (DYNAMICS) mean=  3.25105146483925E+00
DEBUG_STATS_RL:               Theta (DYNAMICS) S.D.=  5.88487552935756E+00
DEBUG_STATS_RL:                Salt (DYNAMICS)  min=  3.00000000000000E-02
DEBUG_STATS_RL:                Salt (DYNAMICS)  max=  3.74964251769287E+01
DEBUG_STATS_RL:                Salt (DYNAMICS) mean=  1.88748099063055E+01
DEBUG_STATS_RL:                Salt (DYNAMICS) S.D.=  1.73003539944585E+01
DEBUG_STATS_RL:                  Gu (DYNAMICS)  min= -1.29648591990784E-01
DEBUG_STATS_RL:                  Gu (DYNAMICS)  max=  1.58433247367193E-01
DEBUG_STATS_RL:                  Gu (DYNAMICS) mean=  6.50510060112506E-03
DEBUG_STATS_RL:                  Gu (DYNAMICS) S.D.=  2.67051631686204E-02
DEBUG_STATS_RL:                  Gv (DYNAMICS)  min= -9.76136199983142E-02
DEBUG_STATS_RL:                  Gv (DYNAMICS)  max=  1.61931652528492E-01
DEBUG_STATS_RL:                  Gv (DYNAMICS) mean=  3.55824333500398E-03
DEBUG_STATS_RL:                  Gv (DYNAMICS) S.D.=  1.67900815892728E-02
DEBUG_STATS_RL:               GuNm1 (DYNAMICS)  min= -1.14922598930776E-05
DEBUG_STATS_RL:               GuNm1 (DYNAMICS)  max=  9.39984297076105E-06
DEBUG_STATS_RL:               GuNm1 (DYNAMICS) mean=  9.48925813336005E-09
DEBUG_STATS_RL:               GuNm1 (DYNAMICS) S.D.=  1.23625773287042E-06
DEBUG_STATS_RL:               GvNm1 (DYNAMICS)  min= -1.00115238876475E-05
DEBUG_STATS_RL:               GvNm1 (DYNAMICS)  max=  1.55344818306403E-05
DEBUG_STATS_RL:               GvNm1 (DYNAMICS) mean=  7.40028228259393E-07
DEBUG_STATS_RL:               GvNm1 (DYNAMICS) S.D.=  2.63817057888594E-06
DEBUG_STATS_RL:               GtNm1 (DYNAMICS)  min= -2.83977551706112E-06
DEBUG_STATS_RL:               GtNm1 (DYNAMICS)  max=  1.95535681868501E-06
DEBUG_STATS_RL:               GtNm1 (DYNAMICS) mean=  6.32018265510745E-10
DEBUG_STATS_RL:               GtNm1 (DYNAMICS) S.D.=  1.66966527282640E-07
DEBUG_STATS_RL:               GsNm1 (DYNAMICS)  min= -2.99151272890480E-07
DEBUG_STATS_RL:               GsNm1 (DYNAMICS)  max=  2.57454433901862E-07
DEBUG_STATS_RL:               GsNm1 (DYNAMICS) mean=  8.91578007728583E-11
DEBUG_STATS_RL:               GsNm1 (DYNAMICS) S.D.=  1.51629550467512E-08
DEBUG_STATS_RL:    cg2d_b (SOLVE_FOR_PRESSURE)  min= -2.04230818836188E+04
DEBUG_STATS_RL:    cg2d_b (SOLVE_FOR_PRESSURE)  max=  2.68683259511608E+04
DEBUG_STATS_RL:    cg2d_b (SOLVE_FOR_PRESSURE) mean=  5.14800575501339E+00
DEBUG_STATS_RL:    cg2d_b (SOLVE_FOR_PRESSURE) S.D.=  4.16462482951009E+03
 cg2d: Sum(rhs),rhsMax =   4.43556972791000E-01  1.76478358641897E+00
(PID.TID 0000.0001)  cg2d: iter=     1 ; resid.=  2.03823449145609E-01
(PID.TID 0000.0001)  cg2d: iter=     2 ; resid.=  1.47746078915616E-01
(PID.TID 0000.0001)  cg2d: iter=     3 ; resid.=  1.34301602306327E-01
(PID.TID 0000.0001)  cg2d: iter=     4 ; resid.=  1.17734050647788E-01
(PID.TID 0000.0001)  cg2d: iter=     5 ; resid.=  9.09561887468714E-02
(PID.TID 0000.0001)  cg2d: iter=     6 ; resid.=  7.66774374775514E-02
(PID.TID 0000.0001)  cg2d: iter=     7 ; resid.=  6.50470086141888E-02
(PID.TID 0000.0001)  cg2d: iter=     8 ; resid.=  5.54378079171460E-02
(PID.TID 0000.0001)  cg2d: iter=     9 ; resid.=  4.74996496831416E-02
(PID.TID 0000.0001)  cg2d: iter=    10 ; resid.=  4.19080760709916E-02
(PID.TID 0000.0001)  cg2d: iter=    11 ; resid.=  3.71939375558529E-02
(PID.TID 0000.0001)  cg2d: iter=    12 ; resid.=  3.00796556898785E-02
(PID.TID 0000.0001)  cg2d: iter=    13 ; resid.=  2.35335289276727E-02
(PID.TID 0000.0001)  cg2d: iter=    14 ; resid.=  1.96065274554248E-02
(PID.TID 0000.0001)  cg2d: iter=    15 ; resid.=  1.66870438506668E-02
(PID.TID 0000.0001)  cg2d: iter=    16 ; resid.=  1.41620910547991E-02
(PID.TID 0000.0001)  cg2d: iter=    17 ; resid.=  1.26711708145524E-02
(PID.TID 0000.0001)  cg2d: iter=    18 ; resid.=  1.12425855866583E-02
(PID.TID 0000.0001)  cg2d: iter=    19 ; resid.=  9.03189557837132E-03
(PID.TID 0000.0001)  cg2d: iter=    20 ; resid.=  7.45863925892855E-03
(PID.TID 0000.0001)  cg2d: iter=    21 ; resid.=  6.33062748228553E-03
(PID.TID 0000.0001)  cg2d: iter=    22 ; resid.=  5.74263688732894E-03
(PID.TID 0000.0001)  cg2d: iter=    23 ; resid.=  4.52964367990051E-03
(PID.TID 0000.0001)  cg2d: iter=    24 ; resid.=  3.54120446513760E-03
(PID.TID 0000.0001)  cg2d: iter=    25 ; resid.=  2.86776490651915E-03
(PID.TID 0000.0001)  cg2d: iter=    26 ; resid.=  2.44735213179978E-03
(PID.TID 0000.0001)  cg2d: iter=    27 ; resid.=  2.04622905054217E-03
(PID.TID 0000.0001)  cg2d: iter=    28 ; resid.=  1.73966016494353E-03
(PID.TID 0000.0001)  cg2d: iter=    29 ; resid.=  1.50318863905185E-03
(PID.TID 0000.0001)  cg2d: iter=    30 ; resid.=  1.27036747749232E-03
(PID.TID 0000.0001)  cg2d: iter=    31 ; resid.=  1.03419543226514E-03
(PID.TID 0000.0001)  cg2d: iter=    32 ; resid.=  8.07586573743996E-04
(PID.TID 0000.0001)  cg2d: iter=    33 ; resid.=  7.00255057508738E-04
(PID.TID 0000.0001)  cg2d: iter=    34 ; resid.=  5.77589589407900E-04
(PID.TID 0000.0001)  cg2d: iter=    35 ; resid.=  4.94902970468991E-04
(PID.TID 0000.0001)  cg2d: iter=    36 ; resid.=  4.15581692036645E-04
(PID.TID 0000.0001)  cg2d: iter=    37 ; resid.=  3.51562700379317E-04
(PID.TID 0000.0001)  cg2d: iter=    38 ; resid.=  2.93768642291795E-04
(PID.TID 0000.0001)  cg2d: iter=    39 ; resid.=  2.51535493201874E-04
(PID.TID 0000.0001)  cg2d: iter=    40 ; resid.=  2.25043091429497E-04
(PID.TID 0000.0001)  cg2d: iter=    41 ; resid.=  2.02126275103411E-04
(PID.TID 0000.0001)  cg2d: iter=    42 ; resid.=  1.76713534462314E-04
(PID.TID 0000.0001)  cg2d: iter=    43 ; resid.=  1.48898576429239E-04
(PID.TID 0000.0001)  cg2d: iter=    44 ; resid.=  1.14240995782072E-04
(PID.TID 0000.0001)  cg2d: iter=    45 ; resid.=  8.78318741294614E-05
(PID.TID 0000.0001)  cg2d: iter=    46 ; resid.=  6.73992285706621E-05
(PID.TID 0000.0001)  cg2d: iter=    47 ; resid.=  5.60499742662190E-05
(PID.TID 0000.0001)  cg2d: iter=    48 ; resid.=  4.60037658204457E-05
(PID.TID 0000.0001)  cg2d: iter=    49 ; resid.=  3.54501702892370E-05
(PID.TID 0000.0001)  cg2d: iter=    50 ; resid.=  2.66351502036659E-05
(PID.TID 0000.0001)  cg2d: iter=    51 ; resid.=  2.16108838684195E-05
(PID.TID 0000.0001)  cg2d: iter=    52 ; resid.=  1.79649783754431E-05
(PID.TID 0000.0001)  cg2d: iter=    53 ; resid.=  1.54446753160271E-05
(PID.TID 0000.0001)  cg2d: iter=    54 ; resid.=  1.27518286561661E-05
(PID.TID 0000.0001)  cg2d: iter=    55 ; resid.=  1.09987904791571E-05
(PID.TID 0000.0001)  cg2d: iter=    56 ; resid.=  9.59672296546624E-06
(PID.TID 0000.0001)  cg2d: iter=    57 ; resid.=  8.25106112369842E-06
(PID.TID 0000.0001)  cg2d: iter=    58 ; resid.=  5.99412078091130E-06
(PID.TID 0000.0001)  cg2d: iter=    59 ; resid.=  4.82898191969375E-06
(PID.TID 0000.0001)  cg2d: iter=    60 ; resid.=  4.01429980531083E-06
(PID.TID 0000.0001)  cg2d: iter=    61 ; resid.=  3.42381681667848E-06
(PID.TID 0000.0001)  cg2d: iter=    62 ; resid.=  2.84715849504095E-06
(PID.TID 0000.0001)  cg2d: iter=    63 ; resid.=  2.70971310638217E-06
(PID.TID 0000.0001)  cg2d: iter=    64 ; resid.=  2.22275263900859E-06
(PID.TID 0000.0001)  cg2d: iter=    65 ; resid.=  1.86835318234304E-06
(PID.TID 0000.0001)  cg2d: iter=    66 ; resid.=  1.53542008125546E-06
(PID.TID 0000.0001)  cg2d: iter=    67 ; resid.=  1.32583463105592E-06
(PID.TID 0000.0001)  cg2d: iter=    68 ; resid.=  1.00549172169603E-06
(PID.TID 0000.0001)  cg2d: iter=    69 ; resid.=  7.79827194568809E-07
(PID.TID 0000.0001)  cg2d: iter=    70 ; resid.=  5.91566132197613E-07
(PID.TID 0000.0001)  cg2d: iter=    71 ; resid.=  4.75286585526338E-07
(PID.TID 0000.0001)  cg2d: iter=    72 ; resid.=  4.02475031201967E-07
(PID.TID 0000.0001)  cg2d: iter=    73 ; resid.=  3.33491361300901E-07
(PID.TID 0000.0001)  cg2d: iter=    74 ; resid.=  2.66955894785490E-07
(PID.TID 0000.0001)  cg2d: iter=    75 ; resid.=  2.02904669595791E-07
(PID.TID 0000.0001)  cg2d: iter=    76 ; resid.=  1.76298063816654E-07
(PID.TID 0000.0001)  cg2d: iter=    77 ; resid.=  1.55428649420855E-07
(PID.TID 0000.0001)  cg2d: iter=    78 ; resid.=  1.37321812041666E-07
(PID.TID 0000.0001)  cg2d: iter=    79 ; resid.=  1.26420150935545E-07
(PID.TID 0000.0001)  cg2d: iter=    80 ; resid.=  1.03595235768789E-07
(PID.TID 0000.0001)  cg2d: iter=    81 ; resid.=  8.33131073057052E-08
(PID.TID 0000.0001)  cg2d: iter=    82 ; resid.=  6.26416627295522E-08
(PID.TID 0000.0001)  cg2d: iter=    83 ; resid.=  4.74241074065470E-08
(PID.TID 0000.0001)  cg2d: iter=    84 ; resid.=  3.44605898678464E-08
(PID.TID 0000.0001)  cg2d: iter=    85 ; resid.=  2.38998778530777E-08
(PID.TID 0000.0001)  cg2d: iter=    86 ; resid.=  1.88416602168661E-08
(PID.TID 0000.0001)  cg2d: iter=    87 ; resid.=  1.60641847615525E-08
(PID.TID 0000.0001)  cg2d: iter=    88 ; resid.=  1.22270520683596E-08
(PID.TID 0000.0001)  cg2d: iter=    89 ; resid.=  1.03671434668291E-08
(PID.TID 0000.0001)  cg2d: iter=    90 ; resid.=  9.21909372193018E-09
(PID.TID 0000.0001)  cg2d: iter=    91 ; resid.=  6.74679610663146E-09
(PID.TID 0000.0001)  cg2d: iter=    92 ; resid.=  4.97825418505677E-09
(PID.TID 0000.0001)  cg2d: iter=    93 ; resid.=  3.64252819924487E-09
(PID.TID 0000.0001)  cg2d: iter=    94 ; resid.=  2.99341618869358E-09
(PID.TID 0000.0001)  cg2d: iter=    95 ; resid.=  2.26315809481278E-09
(PID.TID 0000.0001)  cg2d: iter=    96 ; resid.=  1.67382915424698E-09
(PID.TID 0000.0001)  cg2d: iter=    97 ; resid.=  1.27718466706756E-09
(PID.TID 0000.0001)  cg2d: iter=    98 ; resid.=  9.30749978150309E-10
(PID.TID 0000.0001)  cg2d: iter=    99 ; resid.=  6.83921314948271E-10
(PID.TID 0000.0001)  cg2d: iter=   100 ; resid.=  5.64038289488824E-10
(PID.TID 0000.0001)  cg2d: iter=   101 ; resid.=  4.43805975765424E-10
(PID.TID 0000.0001)  cg2d: iter=   102 ; resid.=  3.76156301526546E-10
(PID.TID 0000.0001)  cg2d: iter=   103 ; resid.=  3.22674829679222E-10
(PID.TID 0000.0001)  cg2d: iter=   104 ; resid.=  2.65375674487964E-10
(PID.TID 0000.0001)  cg2d: iter=   105 ; resid.=  2.30900458099557E-10
(PID.TID 0000.0001)  cg2d: iter=   106 ; resid.=  1.87620232177213E-10
(PID.TID 0000.0001)  cg2d: iter=   107 ; resid.=  1.39813766410531E-10
(PID.TID 0000.0001)  cg2d: iter=   108 ; resid.=  1.21035147188433E-10
(PID.TID 0000.0001)  cg2d: iter=   109 ; resid.=  9.31867273783785E-11
(PID.TID 0000.0001)  cg2d: iter=   110 ; resid.=  7.22936453999699E-11
(PID.TID 0000.0001)  cg2d: iter=   111 ; resid.=  6.21622260924314E-11
(PID.TID 0000.0001)  cg2d: iter=   112 ; resid.=  5.13264719677852E-11
(PID.TID 0000.0001)  cg2d: iter=   113 ; resid.=  4.33139331889239E-11
(PID.TID 0000.0001)  cg2d: iter=   114 ; resid.=  3.50150982635166E-11
(PID.TID 0000.0001)  cg2d: iter=   115 ; resid.=  2.86611055511965E-11
(PID.TID 0000.0001)  cg2d: iter=   116 ; resid.=  2.11054629181877E-11
(PID.TID 0000.0001)  cg2d: iter=   117 ; resid.=  1.59320196603515E-11
(PID.TID 0000.0001)  cg2d: iter=   118 ; resid.=  1.20931136921070E-11
(PID.TID 0000.0001)  cg2d: iter=   119 ; resid.=  8.32787335895576E-12
(PID.TID 0000.0001)  cg2d: iter=   120 ; resid.=  5.64786103948433E-12
(PID.TID 0000.0001)  cg2d: iter=   121 ; resid.=  4.12044100154384E-12
(PID.TID 0000.0001)  cg2d: iter=   122 ; resid.=  3.09417230495829E-12
(PID.TID 0000.0001)  cg2d: iter=   123 ; resid.=  2.13804400048071E-12
(PID.TID 0000.0001)  cg2d: iter=   124 ; resid.=  1.57421866642854E-12
(PID.TID 0000.0001)  cg2d: iter=   125 ; resid.=  1.16282639540046E-12
(PID.TID 0000.0001)  cg2d: iter=   126 ; resid.=  8.69589653818112E-13
(PID.TID 0000.0001)  cg2d: iter=   127 ; resid.=  6.29935398167320E-13
(PID.TID 0000.0001)  cg2d: iter=   128 ; resid.=  4.37480345455050E-13
(PID.TID 0000.0001)  cg2d: iter=   129 ; resid.=  3.29101535897008E-13
(PID.TID 0000.0001)  cg2d: iter=   130 ; resid.=  2.60289581384274E-13
(PID.TID 0000.0001)  cg2d: iter=   131 ; resid.=  1.99526733998428E-13
(PID.TID 0000.0001)  cg2d: iter=   132 ; resid.=  1.46505917202547E-13
(PID.TID 0000.0001)  cg2d: iter=   133 ; resid.=  1.20050643852771E-13
(PID.TID 0000.0001)  cg2d: iter=   134 ; resid.=  9.95096938972368E-14
DEBUG_STATS_RL:    cg2d_x (SOLVE_FOR_PRESSURE)  min= -2.37387340013594E+01
DEBUG_STATS_RL:    cg2d_x (SOLVE_FOR_PRESSURE)  max=  1.29475901436174E+01
DEBUG_STATS_RL:    cg2d_x (SOLVE_FOR_PRESSURE) mean= -2.18703361812504E+00
DEBUG_STATS_RL:    cg2d_x (SOLVE_FOR_PRESSURE) S.D.=  9.74395447368803E+00
(PID.TID 0000.0001)      cg2d_init_res =   3.55515567669832E-01
(PID.TID 0000.0001)      cg2d_iters(min,last) =      -1     134
(PID.TID 0000.0001)      cg2d_last_res =   9.95096938972368E-14
(PID.TID 0000.0001) // =======================================================
(PID.TID 0000.0001) // Begin MONITOR dynamic field statistics
(PID.TID 0000.0001) // =======================================================
(PID.TID 0000.0001) %MON time_tsnumber                =                    77
(PID.TID 0000.0001) %MON time_secondsf                =   6.6528000000000E+06
(PID.TID 0000.0001) %MON dynstat_eta_max              =   1.3198358963932E+00
(PID.TID 0000.0001) %MON dynstat_eta_min              =  -2.4198505607911E+00
(PID.TID 0000.0001) %MON dynstat_eta_mean             =  -5.3713056737169E-03
(PID.TID 0000.0001) %MON dynstat_eta_sd               =   9.1327766089783E-01
(PID.TID 0000.0001) %MON dynstat_eta_del2             =   2.5574650997474E-03
(PID.TID 0000.0001) %MON dynstat_uvel_max             =   1.5371141451118E-01
(PID.TID 0000.0001) %MON dynstat_uvel_min             =  -1.3050337961341E-01
(PID.TID 0000.0001) %MON dynstat_uvel_mean            =   2.5263010499867E-03
(PID.TID 0000.0001) %MON dynstat_uvel_sd              =   1.9870653946980E-02
(PID.TID 0000.0001) %MON dynstat_uvel_del2            =   1.4362086687890E-04
(PID.TID 0000.0001) %MON dynstat_vvel_max             =   1.5982695215854E-01
(PID.TID 0000.0001) %MON dynstat_vvel_min             =  -9.7632384796215E-02
(PID.TID 0000.0001) %MON dynstat_vvel_mean            =  -1.8207213712980E-04
(PID.TID 0000.0001) %MON dynstat_vvel_sd              =   1.0360556344900E-02
(PID.TID 0000.0001) %MON dynstat_vvel_del2            =   9.1263171525602E-05
(PID.TID 0000.0001) %MON dynstat_wvel_max             =   1.9425057689786E-04
(PID.TID 0000.0001) %MON dynstat_wvel_min             =  -1.1105049901339E-04
(PID.TID 0000.0001) %MON dynstat_wvel_mean            =   1.6686611397582E-22
(PID.TID 0000.0001) %MON dynstat_wvel_sd              =   1.5197587810746E-05
(PID.TID 0000.0001) %MON dynstat_wvel_del2            =   1.4799066562547E-07
(PID.TID 0000.0001) %MON dynstat_theta_max            =   3.0947114254472E+01
(PID.TID 0000.0001) %MON dynstat_theta_min            =  -1.9515337756420E+00
(PID.TID 0000.0001) %MON dynstat_theta_mean           =   3.6536427151191E+00
(PID.TID 0000.0001) %MON dynstat_theta_sd             =   4.4264725345670E+00
(PID.TID 0000.0001) %MON dynstat_theta_del2           =   4.8991446930487E-03
(PID.TID 0000.0001) %MON dynstat_salt_max             =   3.7496425176929E+01
(PID.TID 0000.0001) %MON dynstat_salt_min             =   2.9926347970947E+01
(PID.TID 0000.0001) %MON dynstat_salt_mean            =   3.4748043540265E+01
(PID.TID 0000.0001) %MON dynstat_salt_sd              =   2.9663808209499E-01
(PID.TID 0000.0001) %MON dynstat_salt_del2            =   9.9608405082357E-04
(PID.TID 0000.0001) %MON dynstat_sst_max              =   3.0947114254472E+01
(PID.TID 0000.0001) %MON dynstat_sst_min              =  -1.9515337756420E+00
(PID.TID 0000.0001) %MON dynstat_sst_mean             =   1.9088524124362E+01
(PID.TID 0000.0001) %MON dynstat_sst_sd               =   9.1581598262117E+00
(PID.TID 0000.0001) %MON dynstat_sst_del2             =   2.8843474235474E-02
(PID.TID 0000.0001) %MON dynstat_sss_max              =   3.7487095381923E+01
(PID.TID 0000.0001) %MON dynstat_sss_min              =   2.9926347970947E+01
(PID.TID 0000.0001) %MON dynstat_sss_mean             =   3.4868971737043E+01
(PID.TID 0000.0001) %MON dynstat_sss_sd               =   9.8627665413537E-01
(PID.TID 0000.0001) %MON dynstat_sss_del2             =   8.1932252659226E-03
(PID.TID 0000.0001) %MON forcing_qnet_max             =   2.6980245564779E+02
(PID.TID 0000.0001) %MON forcing_qnet_min             =  -1.6342759450277E+02
(PID.TID 0000.0001) %MON forcing_qnet_mean            =  -6.8680295611749E+00
(PID.TID 0000.0001) %MON forcing_qnet_sd              =   4.5566183658410E+01
(PID.TID 0000.0001) %MON forcing_qnet_del2            =   8.4462547130505E-01
(PID.TID 0000.0001) %MON forcing_qsw_max              =   0.0000000000000E+00
(PID.TID 0000.0001) %MON forcing_qsw_min              =   0.0000000000000E+00
(PID.TID 0000.0001) %MON forcing_qsw_mean             =   0.0000000000000E+00
(PID.TID 0000.0001) %MON forcing_qsw_sd               =   0.0000000000000E+00
(PID.TID 0000.0001) %MON forcing_qsw_del2             =   0.0000000000000E+00
(PID.TID 0000.0001) %MON forcing_empmr_max            =   6.9012650764459E-05
(PID.TID 0000.0001) %MON forcing_empmr_min            =  -8.3279263662916E-05
(PID.TID 0000.0001) %MON forcing_empmr_mean           =   5.2826568885113E-07
(PID.TID 0000.0001) %MON forcing_empmr_sd             =   2.6215922588960E-05
(PID.TID 0000.0001) %MON forcing_empmr_del2           =   3.6580758715705E-07
(PID.TID 0000.0001) %MON forcing_fu_max               =   3.5669511159261E-01
(PID.TID 0000.0001) %MON forcing_fu_min               =  -3.8948949277401E-01
(PID.TID 0000.0001) %MON forcing_fu_mean              =   2.0329537203455E-02
(PID.TID 0000.0001) %MON forcing_fu_sd                =   1.0185090973368E-01
(PID.TID 0000.0001) %MON forcing_fu_del2              =   8.3925956330839E-04
(PID.TID 0000.0001) %MON forcing_fv_max               =   1.8320434490840E-01
(PID.TID 0000.0001) %MON forcing_fv_min               =  -1.8992391626040E-01
(PID.TID 0000.0001) %MON forcing_fv_mean              =  -7.4930987676715E-03
(PID.TID 0000.0001) %MON forcing_fv_sd                =   4.2258946543451E-02
(PID.TID 0000.0001) %MON forcing_fv_del2              =   4.9790745221961E-04
(PID.TID 0000.0001) %MON trAdv_CFL_u_max              =   4.4151229867681E-02
(PID.TID 0000.0001) %MON trAdv_CFL_v_max              =   3.1268569671488E-02
(PID.TID 0000.0001) %MON trAdv_CFL_w_max              =   5.0150136695064E-02
(PID.TID 0000.0001) %MON advcfl_uvel_max              =   4.2478989387446E-02
(PID.TID 0000.0001) %MON advcfl_vvel_max              =   3.1051813488268E-02
(PID.TID 0000.0001) %MON advcfl_wvel_max              =   4.7821885405553E-02
(PID.TID 0000.0001) %MON advcfl_W_hf_max              =   5.8069432278172E-02
(PID.TID 0000.0001) %MON pe_b_mean                    =   1.0673378036899E-03
(PID.TID 0000.0001) %MON ke_max                       =   1.8886419732936E-02
(PID.TID 0000.0001) %MON ke_mean                      =   2.3048764818716E-04
(PID.TID 0000.0001) %MON ke_vol                       =   1.3226782436723E+18
(PID.TID 0000.0001) %MON vort_r_min                   =  -3.8689013435830E-07
(PID.TID 0000.0001) %MON vort_r_max                   =   4.8935296396774E-07
(PID.TID 0000.0001) %MON vort_a_mean                  =  -2.5274806302406E-05
(PID.TID 0000.0001) %MON vort_a_sd                    =   7.3604682420319E-05
(PID.TID 0000.0001) %MON vort_p_mean                  =  -3.1845654419742E-05
(PID.TID 0000.0001) %MON vort_p_sd                    =   1.3162580932103E-04
(PID.TID 0000.0001) %MON surfExpan_theta_mean         =   3.3556124269356E-07
(PID.TID 0000.0001) %MON surfExpan_salt_mean          =  -8.1147014983405E-08
(PID.TID 0000.0001) // =======================================================
(PID.TID 0000.0001) // End MONITOR dynamic field statistics
(PID.TID 0000.0001) // =======================================================
 EXTERNAL_FIELDS_LOAD,        77 : iP,iLd,i0,i1=    3    4    3    4 ; Wght=  0.9333333333  0.0666666667
 EXTERNAL_FIELDS_LOAD: (fu0,1),fu,fv= -2.7199E-02 -3.7252E-02 -2.7869E-02 -2.8873E-03
 EXTERNAL_FIELDS_LOAD: SST,SSS,Q,E-P= -1.6929E-01  3.4578E+01  2.0798E+02  8.9933E-06
DEBUG_STATS_RL:          Uvel (THERMODYNAMICS)  min= -1.30503379613408E-01
DEBUG_STATS_RL:          Uvel (THERMODYNAMICS)  max=  1.53711414511175E-01
DEBUG_STATS_RL:          Uvel (THERMODYNAMICS) mean=  6.48722024541545E-03
DEBUG_STATS_RL:          Uvel (THERMODYNAMICS) S.D.=  2.62259074825501E-02
DEBUG_STATS_RL:          Vvel (THERMODYNAMICS)  min= -9.76323847962153E-02
DEBUG_STATS_RL:          Vvel (THERMODYNAMICS)  max=  1.59826952158535E-01
DEBUG_STATS_RL:          Vvel (THERMODYNAMICS) mean=  7.67882733166798E-04
DEBUG_STATS_RL:          Vvel (THERMODYNAMICS) S.D.=  1.54849787813011E-02
DEBUG_STATS_RL:          Wvel (THERMODYNAMICS)  min= -1.11050499013390E-04
DEBUG_STATS_RL:          Wvel (THERMODYNAMICS)  max=  1.94250576897860E-04
DEBUG_STATS_RL:          Wvel (THERMODYNAMICS) mean= -1.86790497604763E-08
DEBUG_STATS_RL:          Wvel (THERMODYNAMICS) S.D.=  1.31238839242327E-05
DEBUG_STATS_RL:         Theta (THERMODYNAMICS)  min= -1.95038578326975E+00
DEBUG_STATS_RL:         Theta (THERMODYNAMICS)  max=  3.09679112592506E+01
DEBUG_STATS_RL:         Theta (THERMODYNAMICS) mean=  3.25103172821103E+00
DEBUG_STATS_RL:         Theta (THERMODYNAMICS) S.D.=  5.88530072060702E+00
DEBUG_STATS_RL:          Salt (THERMODYNAMICS)  min=  3.00000000000000E-02
DEBUG_STATS_RL:          Salt (THERMODYNAMICS)  max=  3.74960926587580E+01
DEBUG_STATS_RL:          Salt (THERMODYNAMICS) mean=  1.88748159795478E+01
DEBUG_STATS_RL:          Salt (THERMODYNAMICS) S.D.=  1.73003604412178E+01
DEBUG_STATS_RL:         GtNm1 (THERMODYNAMICS)  min= -3.00010630684498E-06
DEBUG_STATS_RL:         GtNm1 (THERMODYNAMICS)  max=  1.92269657661060E-06
DEBUG_STATS_RL:         GtNm1 (THERMODYNAMICS) mean=  4.19824652462156E-10
DEBUG_STATS_RL:         GtNm1 (THERMODYNAMICS) S.D.=  1.65910315104260E-07
DEBUG_STATS_RL:         GsNm1 (THERMODYNAMICS)  min= -2.90730650457055E-07
DEBUG_STATS_RL:         GsNm1 (THERMODYNAMICS)  max=  2.55196172959519E-07
DEBUG_STATS_RL:         GsNm1 (THERMODYNAMICS) mean=  7.36099138883836E-11
DEBUG_STATS_RL:         GsNm1 (THERMODYNAMICS) S.D.=  1.51268842349704E-08
DEBUG_STATS_RL:                EtaN (DYNAMICS)  min= -2.41985056079106E+00
DEBUG_STATS_RL:                EtaN (DYNAMICS)  max=  1.31983589639323E+00
DEBUG_STATS_RL:                EtaN (DYNAMICS) mean= -2.22939206740576E-01
DEBUG_STATS_RL:                EtaN (DYNAMICS) S.D.=  9.93267530447310E-01
DEBUG_STATS_RL:                Uvel (DYNAMICS)  min= -1.30503379613408E-01
DEBUG_STATS_RL:                Uvel (DYNAMICS)  max=  1.53711414511175E-01
DEBUG_STATS_RL:                Uvel (DYNAMICS) mean=  6.48722024541545E-03
DEBUG_STATS_RL:                Uvel (DYNAMICS) S.D.=  2.62259074825501E-02
DEBUG_STATS_RL:                Vvel (DYNAMICS)  min= -9.76323847962153E-02
DEBUG_STATS_RL:                Vvel (DYNAMICS)  max=  1.59826952158535E-01
DEBUG_STATS_RL:                Vvel (DYNAMICS) mean=  7.67882733166798E-04
DEBUG_STATS_RL:                Vvel (DYNAMICS) S.D.=  1.54849787813011E-02
DEBUG_STATS_RL:                Wvel (DYNAMICS)  min= -1.11050499013390E-04
DEBUG_STATS_RL:                Wvel (DYNAMICS)  max=  1.94250576897860E-04
DEBUG_STATS_RL:                Wvel (DYNAMICS) mean= -1.86790497604763E-08
DEBUG_STATS_RL:                Wvel (DYNAMICS) S.D.=  1.31238839242327E-05
DEBUG_STATS_RL:               Theta (DYNAMICS)  min= -1.95038578326975E+00
DEBUG_STATS_RL:               Theta (DYNAMICS)  max=  3.09679112592506E+01
DEBUG_STATS_RL:               Theta (DYNAMICS) mean=  3.25103172821103E+00
DEBUG_STATS_RL:               Theta (DYNAMICS) S.D.=  5.88530072060702E+00
DEBUG_STATS_RL:                Salt (DYNAMICS)  min=  3.00000000000000E-02
DEBUG_STATS_RL:                Salt (DYNAMICS)  max=  3.74960926587580E+01
DEBUG_STATS_RL:                Salt (DYNAMICS) mean=  1.88748159795478E+01
DEBUG_STATS_RL:                Salt (DYNAMICS) S.D.=  1.73003604412178E+01
DEBUG_STATS_RL:                  Gu (DYNAMICS)  min= -1.26544204400795E-01
DEBUG_STATS_RL:                  Gu (DYNAMICS)  max=  1.63184096923464E-01
DEBUG_STATS_RL:                  Gu (DYNAMICS) mean=  6.53718092716243E-03
DEBUG_STATS_RL:                  Gu (DYNAMICS) S.D.=  2.65297740785594E-02
DEBUG_STATS_RL:                  Gv (DYNAMICS)  min= -1.04886589379334E-01
DEBUG_STATS_RL:                  Gv (DYNAMICS)  max=  1.60101080029658E-01
DEBUG_STATS_RL:                  Gv (DYNAMICS) mean=  3.59173329382121E-03
DEBUG_STATS_RL:                  Gv (DYNAMICS) S.D.=  1.68582613147623E-02
DEBUG_STATS_RL:               GuNm1 (DYNAMICS)  min= -1.15309743559393E-05
DEBUG_STATS_RL:               GuNm1 (DYNAMICS)  max=  9.38009677830129E-06
DEBUG_STATS_RL:               GuNm1 (DYNAMICS) mean=  9.70008012109093E-09
DEBUG_STATS_RL:               GuNm1 (DYNAMICS) S.D.=  1.23672549186768E-06
DEBUG_STATS_RL:               GvNm1 (DYNAMICS)  min= -9.91421490597761E-06
DEBUG_STATS_RL:               GvNm1 (DYNAMICS)  max=  1.55296410985651E-05
DEBUG_STATS_RL:               GvNm1 (DYNAMICS) mean=  7.39402496898300E-07
DEBUG_STATS_RL:               GvNm1 (DYNAMICS) S.D.=  2.63575976030265E-06
DEBUG_STATS_RL:               GtNm1 (DYNAMICS)  min= -3.00010630684498E-06
DEBUG_STATS_RL:               GtNm1 (DYNAMICS)  max=  1.92269657661060E-06
DEBUG_STATS_RL:               GtNm1 (DYNAMICS) mean=  4.19824652462156E-10
DEBUG_STATS_RL:               GtNm1 (DYNAMICS) S.D.=  1.65910315104260E-07
DEBUG_STATS_RL:               GsNm1 (DYNAMICS)  min= -2.90730650457055E-07
DEBUG_STATS_RL:               GsNm1 (DYNAMICS)  max=  2.55196172959519E-07
DEBUG_STATS_RL:               GsNm1 (DYNAMICS) mean=  7.36099138883836E-11
DEBUG_STATS_RL:               GsNm1 (DYNAMICS) S.D.=  1.51268842349704E-08
DEBUG_STATS_RL:    cg2d_b (SOLVE_FOR_PRESSURE)  min= -2.20948917807841E+04
DEBUG_STATS_RL:    cg2d_b (SOLVE_FOR_PRESSURE)  max=  2.73371917297602E+04
DEBUG_STATS_RL:    cg2d_b (SOLVE_FOR_PRESSURE) mean=  5.18847534679727E+00
DEBUG_STATS_RL:    cg2d_b (SOLVE_FOR_PRESSURE) S.D.=  4.17524343704984E+03
 cg2d: Sum(rhs),rhsMax =   4.39376529475758E-01  1.79557994611067E+00
(PID.TID 0000.0001)  cg2d: iter=     1 ; resid.=  1.92261916002552E-01
(PID.TID 0000.0001)  cg2d: iter=     2 ; resid.=  1.32465270906911E-01
(PID.TID 0000.0001)  cg2d: iter=     3 ; resid.=  1.17007276552796E-01
(PID.TID 0000.0001)  cg2d: iter=     4 ; resid.=  1.00440509331291E-01
(PID.TID 0000.0001)  cg2d: iter=     5 ; resid.=  7.21938912760999E-02
(PID.TID 0000.0001)  cg2d: iter=     6 ; resid.=  5.63544265868153E-02
(PID.TID 0000.0001)  cg2d: iter=     7 ; resid.=  4.58313748504939E-02
(PID.TID 0000.0001)  cg2d: iter=     8 ; resid.=  3.89033445434001E-02
(PID.TID 0000.0001)  cg2d: iter=     9 ; resid.=  3.31932407462438E-02
(PID.TID 0000.0001)  cg2d: iter=    10 ; resid.=  2.94762741379594E-02
(PID.TID 0000.0001)  cg2d: iter=    11 ; resid.=  2.66268112338399E-02
(PID.TID 0000.0001)  cg2d: iter=    12 ; resid.=  2.28451358344244E-02
(PID.TID 0000.0001)  cg2d: iter=    13 ; resid.=  1.86362997627220E-02
(PID.TID 0000.0001)  cg2d: iter=    14 ; resid.=  1.61640501148580E-02
(PID.TID 0000.0001)  cg2d: iter=    15 ; resid.=  1.42451832391184E-02
(PID.TID 0000.0001)  cg2d: iter=    16 ; resid.=  1.19759220525988E-02
(PID.TID 0000.0001)  cg2d: iter=    17 ; resid.=  1.05920456945027E-02
(PID.TID 0000.0001)  cg2d: iter=    18 ; resid.=  9.37596860233856E-03
(PID.TID 0000.0001)  cg2d: iter=    19 ; resid.=  7.65049805340943E-03
(PID.TID 0000.0001)  cg2d: iter=    20 ; resid.=  6.41395074825092E-03
(PID.TID 0000.0001)  cg2d: iter=    21 ; resid.=  5.27022982167552E-03
(PID.TID 0000.0001)  cg2d: iter=    22 ; resid.=  4.74312846775404E-03
(PID.TID 0000.0001)  cg2d: iter=    23 ; resid.=  3.69707337181954E-03
(PID.TID 0000.0001)  cg2d: iter=    24 ; resid.=  2.81865589540932E-03
(PID.TID 0000.0001)  cg2d: iter=    25 ; resid.=  2.24463716368989E-03
(PID.TID 0000.0001)  cg2d: iter=    26 ; resid.=  1.87347575036932E-03
(PID.TID 0000.0001)  cg2d: iter=    27 ; resid.=  1.57224244535651E-03
(PID.TID 0000.0001)  cg2d: iter=    28 ; resid.=  1.31930543728727E-03
(PID.TID 0000.0001)  cg2d: iter=    29 ; resid.=  1.15740013134102E-03
(PID.TID 0000.0001)  cg2d: iter=    30 ; resid.=  9.81191862840284E-04
(PID.TID 0000.0001)  cg2d: iter=    31 ; resid.=  8.23297829966782E-04
(PID.TID 0000.0001)  cg2d: iter=    32 ; resid.=  6.56484878333768E-04
(PID.TID 0000.0001)  cg2d: iter=    33 ; resid.=  5.68204576995666E-04
(PID.TID 0000.0001)  cg2d: iter=    34 ; resid.=  4.67440500937802E-04
(PID.TID 0000.0001)  cg2d: iter=    35 ; resid.=  3.95953481259261E-04
(PID.TID 0000.0001)  cg2d: iter=    36 ; resid.=  3.32298673117297E-04
(PID.TID 0000.0001)  cg2d: iter=    37 ; resid.=  2.77748733511374E-04
(PID.TID 0000.0001)  cg2d: iter=    38 ; resid.=  2.18868025416851E-04
(PID.TID 0000.0001)  cg2d: iter=    39 ; resid.=  1.79305453567356E-04
(PID.TID 0000.0001)  cg2d: iter=    40 ; resid.=  1.50778085601850E-04
(PID.TID 0000.0001)  cg2d: iter=    41 ; resid.=  1.33640059912896E-04
(PID.TID 0000.0001)  cg2d: iter=    42 ; resid.=  1.19136304250769E-04
(PID.TID 0000.0001)  cg2d: iter=    43 ; resid.=  1.06399195307124E-04
(PID.TID 0000.0001)  cg2d: iter=    44 ; resid.=  8.50619083329668E-05
(PID.TID 0000.0001)  cg2d: iter=    45 ; resid.=  6.66617707179047E-05
(PID.TID 0000.0001)  cg2d: iter=    46 ; resid.=  5.20799297549136E-05
(PID.TID 0000.0001)  cg2d: iter=    47 ; resid.=  4.37576659453449E-05
(PID.TID 0000.0001)  cg2d: iter=    48 ; resid.=  3.69656577691125E-05
(PID.TID 0000.0001)  cg2d: iter=    49 ; resid.=  2.81598225931051E-05
(PID.TID 0000.0001)  cg2d: iter=    50 ; resid.=  2.01921761947500E-05
(PID.TID 0000.0001)  cg2d: iter=    51 ; resid.=  1.54291207809857E-05
(PID.TID 0000.0001)  cg2d: iter=    52 ; resid.=  1.22272721241583E-05
(PID.TID 0000.0001)  cg2d: iter=    53 ; resid.=  1.01226119036137E-05
(PID.TID 0000.0001)  cg2d: iter=    54 ; resid.=  8.08041278423758E-06
(PID.TID 0000.0001)  cg2d: iter=    55 ; resid.=  6.88538946285913E-06
(PID.TID 0000.0001)  cg2d: iter=    56 ; resid.=  5.92481686827706E-06
(PID.TID 0000.0001)  cg2d: iter=    57 ; resid.=  5.28242292404725E-06
(PID.TID 0000.0001)  cg2d: iter=    58 ; resid.=  3.90438720633191E-06
(PID.TID 0000.0001)  cg2d: iter=    59 ; resid.=  3.10980236704102E-06
(PID.TID 0000.0001)  cg2d: iter=    60 ; resid.=  2.49038539133016E-06
(PID.TID 0000.0001)  cg2d: iter=    61 ; resid.=  2.02227635505700E-06
(PID.TID 0000.0001)  cg2d: iter=    62 ; resid.=  1.57866461778007E-06
(PID.TID 0000.0001)  cg2d: iter=    63 ; resid.=  1.44029103571370E-06
(PID.TID 0000.0001)  cg2d: iter=    64 ; resid.=  1.23118576843248E-06
(PID.TID 0000.0001)  cg2d: iter=    65 ; resid.=  1.09792968391267E-06
(PID.TID 0000.0001)  cg2d: iter=    66 ; resid.=  9.44195479231053E-07
(PID.TID 0000.0001)  cg2d: iter=    67 ; resid.=  8.81276553331460E-07
(PID.TID 0000.0001)  cg2d: iter=    68 ; resid.=  7.36657917352398E-07
(PID.TID 0000.0001)  cg2d: iter=    69 ; resid.=  6.07146501750266E-07
(PID.TID 0000.0001)  cg2d: iter=    70 ; resid.=  4.72281074467374E-07
(PID.TID 0000.0001)  cg2d: iter=    71 ; resid.=  3.78885341685196E-07
(PID.TID 0000.0001)  cg2d: iter=    72 ; resid.=  3.15447492800313E-07
(PID.TID 0000.0001)  cg2d: iter=    73 ; resid.=  2.49797917541091E-07
(PID.TID 0000.0001)  cg2d: iter=    74 ; resid.=  1.86853158990042E-07
(PID.TID 0000.0001)  cg2d: iter=    75 ; resid.=  1.28855092300650E-07
(PID.TID 0000.0001)  cg2d: iter=    76 ; resid.=  9.79544979251929E-08
(PID.TID 0000.0001)  cg2d: iter=    77 ; resid.=  7.70824821247312E-08
(PID.TID 0000.0001)  cg2d: iter=    78 ; resid.=  6.02618653597777E-08
(PID.TID 0000.0001)  cg2d: iter=    79 ; resid.=  5.25277786916593E-08
(PID.TID 0000.0001)  cg2d: iter=    80 ; resid.=  4.52990694493273E-08
(PID.TID 0000.0001)  cg2d: iter=    81 ; resid.=  3.99849644154486E-08
(PID.TID 0000.0001)  cg2d: iter=    82 ; resid.=  3.42430616611060E-08
(PID.TID 0000.0001)  cg2d: iter=    83 ; resid.=  2.87063440711368E-08
(PID.TID 0000.0001)  cg2d: iter=    84 ; resid.=  2.28045930285696E-08
(PID.TID 0000.0001)  cg2d: iter=    85 ; resid.=  1.60235214699009E-08
(PID.TID 0000.0001)  cg2d: iter=    86 ; resid.=  1.21988967569729E-08
(PID.TID 0000.0001)  cg2d: iter=    87 ; resid.=  1.03675428954807E-08
(PID.TID 0000.0001)  cg2d: iter=    88 ; resid.=  7.77254198277222E-09
(PID.TID 0000.0001)  cg2d: iter=    89 ; resid.=  6.29236654078437E-09
(PID.TID 0000.0001)  cg2d: iter=    90 ; resid.=  5.73694236275945E-09
(PID.TID 0000.0001)  cg2d: iter=    91 ; resid.=  4.63432466957332E-09
(PID.TID 0000.0001)  cg2d: iter=    92 ; resid.=  3.73335333817069E-09
(PID.TID 0000.0001)  cg2d: iter=    93 ; resid.=  2.79022508709584E-09
(PID.TID 0000.0001)  cg2d: iter=    94 ; resid.=  2.36598390460248E-09
(PID.TID 0000.0001)  cg2d: iter=    95 ; resid.=  1.85626023614934E-09
(PID.TID 0000.0001)  cg2d: iter=    96 ; resid.=  1.39287298523890E-09
(PID.TID 0000.0001)  cg2d: iter=    97 ; resid.=  1.08050423951521E-09
(PID.TID 0000.0001)  cg2d: iter=    98 ; resid.=  7.79705355073422E-10
(PID.TID 0000.0001)  cg2d: iter=    99 ; resid.=  5.56064259543160E-10
(PID.TID 0000.0001)  cg2d: iter=   100 ; resid.=  4.11239354143849E-10
(PID.TID 0000.0001)  cg2d: iter=   101 ; resid.=  2.91782240033188E-10
(PID.TID 0000.0001)  cg2d: iter=   102 ; resid.=  2.20328211114579E-10
(PID.TID 0000.0001)  cg2d: iter=   103 ; resid.=  1.70513535454688E-10
(PID.TID 0000.0001)  cg2d: iter=   104 ; resid.=  1.26157019970568E-10
(PID.TID 0000.0001)  cg2d: iter=   105 ; resid.=  1.03261252642475E-10
(PID.TID 0000.0001)  cg2d: iter=   106 ; resid.=  8.21002299994046E-11
(PID.TID 0000.0001)  cg2d: iter=   107 ; resid.=  5.91573231158742E-11
(PID.TID 0000.0001)  cg2d: iter=   108 ; resid.=  5.04278456876240E-11
(PID.TID 0000.0001)  cg2d: iter=   109 ; resid.=  3.85136893798840E-11
(PID.TID 0000.0001)  cg2d: iter=   110 ; resid.=  2.83401993522500E-11
(PID.TID 0000.0001)  cg2d: iter=   111 ; resid.=  2.28671916070396E-11
(PID.TID 0000.0001)  cg2d: iter=   112 ; resid.=  1.81249810965592E-11
(PID.TID 0000.0001)  cg2d: iter=   113 ; resid.=  1.49286535990949E-11
(PID.TID 0000.0001)  cg2d: iter=   114 ; resid.=  1.23636746326020E-11
(PID.TID 0000.0001)  cg2d: iter=   115 ; resid.=  1.08176954569355E-11
(PID.TID 0000.0001)  cg2d: iter=   116 ; resid.=  8.76570481293664E-12
(PID.TID 0000.0001)  cg2d: iter=   117 ; resid.=  7.42651620582509E-12
(PID.TID 0000.0001)  cg2d: iter=   118 ; resid.=  6.47493090334727E-12
(PID.TID 0000.0001)  cg2d: iter=   119 ; resid.=  5.19766829607476E-12
(PID.TID 0000.0001)  cg2d: iter=   120 ; resid.=  3.90468165465103E-12
(PID.TID 0000.0001)  cg2d: iter=   121 ; resid.=  3.11745141774284E-12
(PID.TID 0000.0001)  cg2d: iter=   122 ; resid.=  2.58755305419128E-12
(PID.TID 0000.0001)  cg2d: iter=   123 ; resid.=  2.00957164064466E-12
(PID.TID 0000.0001)  cg2d: iter=   124 ; resid.=  1.62647911031323E-12
(PID.TID 0000.0001)  cg2d: iter=   125 ; resid.=  1.30801385072224E-12
(PID.TID 0000.0001)  cg2d: iter=   126 ; resid.=  1.04236148820529E-12
(PID.TID 0000.0001)  cg2d: iter=   127 ; resid.=  7.64571722678916E-13
(PID.TID 0000.0001)  cg2d: iter=   128 ; resid.=  5.11732861465409E-13
(PID.TID 0000.0001)  cg2d: iter=   129 ; resid.=  3.80647528415902E-13
(PID.TID 0000.0001)  cg2d: iter=   130 ; resid.=  2.97195247420341E-13
(PID.TID 0000.0001)  cg2d: iter=   131 ; resid.=  2.25183064281827E-13
(PID.TID 0000.0001)  cg2d: iter=   132 ; resid.=  1.57262123087575E-13
(PID.TID 0000.0001)  cg2d: iter=   133 ; resid.=  1.20750185688210E-13
(PID.TID 0000.0001)  cg2d: iter=   134 ; resid.=  9.44499459966296E-14
DEBUG_STATS_RL:    cg2d_x (SOLVE_FOR_PRESSURE)  min= -2.38595114227771E+01
DEBUG_STATS_RL:    cg2d_x (SOLVE_FOR_PRESSURE)  max=  1.30350762075159E+01
DEBUG_STATS_RL:    cg2d_x (SOLVE_FOR_PRESSURE) mean= -2.19763256650289E+00
DEBUG_STATS_RL:    cg2d_x (SOLVE_FOR_PRESSURE) S.D.=  9.78934070614008E+00
(PID.TID 0000.0001)      cg2d_init_res =   3.45661356449834E-01
(PID.TID 0000.0001)      cg2d_iters(min,last) =      -1     134
(PID.TID 0000.0001)      cg2d_last_res =   9.44499459966296E-14
(PID.TID 0000.0001) // =======================================================
(PID.TID 0000.0001) // Begin MONITOR dynamic field statistics
(PID.TID 0000.0001) // =======================================================
(PID.TID 0000.0001) %MON time_tsnumber                =                    78
(PID.TID 0000.0001) %MON time_secondsf                =   6.7392000000000E+06
(PID.TID 0000.0001) %MON dynstat_eta_max              =   1.3287539457203E+00
(PID.TID 0000.0001) %MON dynstat_eta_min              =  -2.4321622245442E+00
(PID.TID 0000.0001) %MON dynstat_eta_mean             =  -5.4135306746787E-03
(PID.TID 0000.0001) %MON dynstat_eta_sd               =   9.1705694217960E-01
(PID.TID 0000.0001) %MON dynstat_eta_del2             =   2.5726686182763E-03
(PID.TID 0000.0001) %MON dynstat_uvel_max             =   1.5830162606378E-01
(PID.TID 0000.0001) %MON dynstat_uvel_min             =  -1.2707149144819E-01
(PID.TID 0000.0001) %MON dynstat_uvel_mean            =   2.5056206007074E-03
(PID.TID 0000.0001) %MON dynstat_uvel_sd              =   1.9745185492641E-02
(PID.TID 0000.0001) %MON dynstat_uvel_del2            =   1.4443848540705E-04
(PID.TID 0000.0001) %MON dynstat_vvel_max             =   1.5768292938472E-01
(PID.TID 0000.0001) %MON dynstat_vvel_min             =  -1.0450765752262E-01
(PID.TID 0000.0001) %MON dynstat_vvel_mean            =  -1.5288208928072E-04
(PID.TID 0000.0001) %MON dynstat_vvel_sd              =   1.0373077686765E-02
(PID.TID 0000.0001) %MON dynstat_vvel_del2            =   9.1570199480219E-05
(PID.TID 0000.0001) %MON dynstat_wvel_max             =   2.2079137781950E-04
(PID.TID 0000.0001) %MON dynstat_wvel_min             =  -1.2056346468569E-04
(PID.TID 0000.0001) %MON dynstat_wvel_mean            =   6.6585887130145E-23
(PID.TID 0000.0001) %MON dynstat_wvel_sd              =   1.5159622121926E-05
(PID.TID 0000.0001) %MON dynstat_wvel_del2            =   1.4854134236716E-07
(PID.TID 0000.0001) %MON dynstat_theta_max            =   3.0967911259251E+01
(PID.TID 0000.0001) %MON dynstat_theta_min            =  -1.9503857832697E+00
(PID.TID 0000.0001) %MON dynstat_theta_mean           =   3.6536736043835E+00
(PID.TID 0000.0001) %MON dynstat_theta_sd             =   4.4266519278363E+00
(PID.TID 0000.0001) %MON dynstat_theta_del2           =   4.8955952557664E-03
(PID.TID 0000.0001) %MON dynstat_salt_max             =   3.7496092658758E+01
(PID.TID 0000.0001) %MON dynstat_salt_min             =   2.9927247925078E+01
(PID.TID 0000.0001) %MON dynstat_salt_mean            =   3.4748045279916E+01
(PID.TID 0000.0001) %MON dynstat_salt_sd              =   2.9664842415710E-01
(PID.TID 0000.0001) %MON dynstat_salt_del2            =   9.9626833096400E-04
(PID.TID 0000.0001) %MON dynstat_sst_max              =   3.0967911259251E+01
(PID.TID 0000.0001) %MON dynstat_sst_min              =  -1.9503857832697E+00
(PID.TID 0000.0001) %MON dynstat_sst_mean             =   1.9089766451275E+01
(PID.TID 0000.0001) %MON dynstat_sst_sd               =   9.1659154265342E+00
(PID.TID 0000.0001) %MON dynstat_sst_del2             =   2.8887697028764E-02
(PID.TID 0000.0001) %MON dynstat_sss_max              =   3.7488249324186E+01
(PID.TID 0000.0001) %MON dynstat_sss_min              =   2.9927247925078E+01
(PID.TID 0000.0001) %MON dynstat_sss_mean             =   3.4868980562965E+01
(PID.TID 0000.0001) %MON dynstat_sss_sd               =   9.8661671619778E-01
(PID.TID 0000.0001) %MON dynstat_sss_del2             =   8.2014982945927E-03
(PID.TID 0000.0001) %MON forcing_qnet_max             =   2.6509722086589E+02
(PID.TID 0000.0001) %MON forcing_qnet_min             =  -1.6299959818522E+02
(PID.TID 0000.0001) %MON forcing_qnet_mean            =  -6.4709931322053E+00
(PID.TID 0000.0001) %MON forcing_qnet_sd              =   4.4694693234620E+01
(PID.TID 0000.0001) %MON forcing_qnet_del2            =   8.3727990364500E-01
(PID.TID 0000.0001) %MON forcing_qsw_max              =   0.0000000000000E+00
(PID.TID 0000.0001) %MON forcing_qsw_min              =   0.0000000000000E+00
(PID.TID 0000.0001) %MON forcing_qsw_mean             =   0.0000000000000E+00
(PID.TID 0000.0001) %MON forcing_qsw_sd               =   0.0000000000000E+00
(PID.TID 0000.0001) %MON forcing_qsw_del2             =   0.0000000000000E+00
(PID.TID 0000.0001) %MON forcing_empmr_max            =   6.8916479752564E-05
(PID.TID 0000.0001) %MON forcing_empmr_min            =  -8.3294109742837E-05
(PID.TID 0000.0001) %MON forcing_empmr_mean           =   5.0582032402356E-07
(PID.TID 0000.0001) %MON forcing_empmr_sd             =   2.6146601074219E-05
(PID.TID 0000.0001) %MON forcing_empmr_del2           =   3.6519434745887E-07
(PID.TID 0000.0001) %MON forcing_fu_max               =   3.5583882729212E-01
(PID.TID 0000.0001) %MON forcing_fu_min               =  -3.9042256474495E-01
(PID.TID 0000.0001) %MON forcing_fu_mean              =   2.0202345106522E-02
(PID.TID 0000.0001) %MON forcing_fu_sd                =   1.0159012040920E-01
(PID.TID 0000.0001) %MON forcing_fu_del2              =   8.3058122505654E-04
(PID.TID 0000.0001) %MON forcing_fv_max               =   1.8310834368070E-01
(PID.TID 0000.0001) %MON forcing_fv_min               =  -1.8651620348295E-01
(PID.TID 0000.0001) %MON forcing_fv_mean              =  -7.4566220952985E-03
(PID.TID 0000.0001) %MON forcing_fv_sd                =   4.1854188278217E-02
(PID.TID 0000.0001) %MON forcing_fv_del2              =   4.8859436838041E-04
(PID.TID 0000.0001) %MON trAdv_CFL_u_max              =   4.2487617174006E-02
(PID.TID 0000.0001) %MON trAdv_CFL_v_max              =   3.0925276743335E-02
(PID.TID 0000.0001) %MON trAdv_CFL_w_max              =   5.1600392215657E-02
(PID.TID 0000.0001) %MON advcfl_uvel_max              =   4.1487678689679E-02
(PID.TID 0000.0001) %MON advcfl_vvel_max              =   3.0635264249306E-02
(PID.TID 0000.0001) %MON advcfl_wvel_max              =   5.2264041215355E-02
(PID.TID 0000.0001) %MON advcfl_W_hf_max              =   5.9802474926787E-02
(PID.TID 0000.0001) %MON pe_b_mean                    =   1.0761899686192E-03
(PID.TID 0000.0001) %MON ke_max                       =   1.8709854766310E-02
(PID.TID 0000.0001) %MON ke_mean                      =   2.2829434252555E-04
(PID.TID 0000.0001) %MON ke_vol                       =   1.3226782436723E+18
(PID.TID 0000.0001) %MON vort_r_min                   =  -4.0164534120249E-07
(PID.TID 0000.0001) %MON vort_r_max                   =   4.5561464005261E-07
(PID.TID 0000.0001) %MON vort_a_mean                  =  -2.5274806396817E-05
(PID.TID 0000.0001) %MON vort_a_sd                    =   7.3604669556001E-05
(PID.TID 0000.0001) %MON vort_p_mean                  =  -3.1845654538697E-05
(PID.TID 0000.0001) %MON vort_p_sd                    =   1.3162586204421E-04
(PID.TID 0000.0001) %MON surfExpan_theta_mean         =   1.2049155192140E-07
(PID.TID 0000.0001) %MON surfExpan_salt_mean          =  -2.5819985847884E-08
(PID.TID 0000.0001) // =======================================================
(PID.TID 0000.0001) // End MONITOR dynamic field statistics
(PID.TID 0000.0001) // =======================================================
 EXTERNAL_FIELDS_LOAD,        78 : iP,iLd,i0,i1=    3    4    3    4 ; Wght=  0.9000000000  0.1000000000
 EXTERNAL_FIELDS_LOAD: (fu0,1),fu,fv= -2.7199E-02 -3.7252E-02 -2.8204E-02 -4.0419E-03
 EXTERNAL_FIELDS_LOAD: SST,SSS,Q,E-P= -1.6198E-01  3.4578E+01  2.0427E+02  8.9496E-06
DEBUG_STATS_RL:          Uvel (THERMODYNAMICS)  min= -1.27071491448189E-01
DEBUG_STATS_RL:          Uvel (THERMODYNAMICS)  max=  1.58301626063776E-01
DEBUG_STATS_RL:          Uvel (THERMODYNAMICS) mean=  6.49806053085969E-03
DEBUG_STATS_RL:          Uvel (THERMODYNAMICS) S.D.=  2.60620713672382E-02
DEBUG_STATS_RL:          Vvel (THERMODYNAMICS)  min= -1.04507657522618E-01
DEBUG_STATS_RL:          Vvel (THERMODYNAMICS)  max=  1.57682929384717E-01
DEBUG_STATS_RL:          Vvel (THERMODYNAMICS) mean=  8.54605677921836E-04
DEBUG_STATS_RL:          Vvel (THERMODYNAMICS) S.D.=  1.55262541681980E-02
DEBUG_STATS_RL:          Wvel (THERMODYNAMICS)  min= -1.20563464685690E-04
DEBUG_STATS_RL:          Wvel (THERMODYNAMICS)  max=  2.20791377819497E-04
DEBUG_STATS_RL:          Wvel (THERMODYNAMICS) mean= -4.64251485398475E-09
DEBUG_STATS_RL:          Wvel (THERMODYNAMICS) S.D.=  1.31386416944139E-05
DEBUG_STATS_RL:         Theta (THERMODYNAMICS)  min= -1.94907767987835E+00
DEBUG_STATS_RL:         Theta (THERMODYNAMICS)  max=  3.09891060827281E+01
DEBUG_STATS_RL:         Theta (THERMODYNAMICS) mean=  3.25100400670643E+00
DEBUG_STATS_RL:         Theta (THERMODYNAMICS) S.D.=  5.88571732015032E+00
DEBUG_STATS_RL:          Salt (THERMODYNAMICS)  min=  3.00000000000000E-02
DEBUG_STATS_RL:          Salt (THERMODYNAMICS)  max=  3.74957298642732E+01
DEBUG_STATS_RL:          Salt (THERMODYNAMICS) mean=  1.88748207980703E+01
DEBUG_STATS_RL:          Salt (THERMODYNAMICS) S.D.=  1.73003656921742E+01
DEBUG_STATS_RL:         GtNm1 (THERMODYNAMICS)  min= -3.12706517322563E-06
DEBUG_STATS_RL:         GtNm1 (THERMODYNAMICS)  max=  2.02512292506759E-06
DEBUG_STATS_RL:         GtNm1 (THERMODYNAMICS) mean=  2.76135372808116E-10
DEBUG_STATS_RL:         GtNm1 (THERMODYNAMICS) S.D.=  1.66680516962238E-07
DEBUG_STATS_RL:         GsNm1 (THERMODYNAMICS)  min= -2.90663379574208E-07
DEBUG_STATS_RL:         GsNm1 (THERMODYNAMICS)  max=  2.99623540663046E-07
DEBUG_STATS_RL:         GsNm1 (THERMODYNAMICS) mean=  5.33060399623458E-11
DEBUG_STATS_RL:         GsNm1 (THERMODYNAMICS) S.D.=  1.52123082779219E-08
DEBUG_STATS_RL:                EtaN (DYNAMICS)  min= -2.43216222454418E+00
DEBUG_STATS_RL:                EtaN (DYNAMICS)  max=  1.32875394572028E+00
DEBUG_STATS_RL:                EtaN (DYNAMICS) mean= -2.24019629612936E-01
DEBUG_STATS_RL:                EtaN (DYNAMICS) S.D.=  9.97894057710513E-01
DEBUG_STATS_RL:                Uvel (DYNAMICS)  min= -1.27071491448189E-01
DEBUG_STATS_RL:                Uvel (DYNAMICS)  max=  1.58301626063776E-01
DEBUG_STATS_RL:                Uvel (DYNAMICS) mean=  6.49806053085969E-03
DEBUG_STATS_RL:                Uvel (DYNAMICS) S.D.=  2.60620713672382E-02
DEBUG_STATS_RL:                Vvel (DYNAMICS)  min= -1.04507657522618E-01
DEBUG_STATS_RL:                Vvel (DYNAMICS)  max=  1.57682929384717E-01
DEBUG_STATS_RL:                Vvel (DYNAMICS) mean=  8.54605677921836E-04
DEBUG_STATS_RL:                Vvel (DYNAMICS) S.D.=  1.55262541681980E-02
DEBUG_STATS_RL:                Wvel (DYNAMICS)  min= -1.20563464685690E-04
DEBUG_STATS_RL:                Wvel (DYNAMICS)  max=  2.20791377819497E-04
DEBUG_STATS_RL:                Wvel (DYNAMICS) mean= -4.64251485398475E-09
DEBUG_STATS_RL:                Wvel (DYNAMICS) S.D.=  1.31386416944139E-05
DEBUG_STATS_RL:               Theta (DYNAMICS)  min= -1.94907767987835E+00
DEBUG_STATS_RL:               Theta (DYNAMICS)  max=  3.09891060827281E+01
DEBUG_STATS_RL:               Theta (DYNAMICS) mean=  3.25100400670643E+00
DEBUG_STATS_RL:               Theta (DYNAMICS) S.D.=  5.88571732015032E+00
DEBUG_STATS_RL:                Salt (DYNAMICS)  min=  3.00000000000000E-02
DEBUG_STATS_RL:                Salt (DYNAMICS)  max=  3.74957298642732E+01
DEBUG_STATS_RL:                Salt (DYNAMICS) mean=  1.88748207980703E+01
DEBUG_STATS_RL:                Salt (DYNAMICS) S.D.=  1.73003656921742E+01
DEBUG_STATS_RL:                  Gu (DYNAMICS)  min= -1.23228972900152E-01
DEBUG_STATS_RL:                  Gu (DYNAMICS)  max=  1.66818609398224E-01
DEBUG_STATS_RL:                  Gu (DYNAMICS) mean=  6.55541514468472E-03
DEBUG_STATS_RL:                  Gu (DYNAMICS) S.D.=  2.63678557871325E-02
DEBUG_STATS_RL:                  Gv (DYNAMICS)  min= -1.11233253535472E-01
DEBUG_STATS_RL:                  Gv (DYNAMICS)  max=  1.57900201108002E-01
DEBUG_STATS_RL:                  Gv (DYNAMICS) mean=  3.61826404047164E-03
DEBUG_STATS_RL:                  Gv (DYNAMICS) S.D.=  1.69096091166500E-02
DEBUG_STATS_RL:               GuNm1 (DYNAMICS)  min= -1.15517127357589E-05
DEBUG_STATS_RL:               GuNm1 (DYNAMICS)  max=  9.35695627257320E-06
DEBUG_STATS_RL:               GuNm1 (DYNAMICS) mean=  1.00222546554764E-08
DEBUG_STATS_RL:               GuNm1 (DYNAMICS) S.D.=  1.23728201488945E-06
DEBUG_STATS_RL:               GvNm1 (DYNAMICS)  min= -9.81550122169789E-06
DEBUG_STATS_RL:               GvNm1 (DYNAMICS)  max=  1.55219730081689E-05
DEBUG_STATS_RL:               GvNm1 (DYNAMICS) mean=  7.38815471446169E-07
DEBUG_STATS_RL:               GvNm1 (DYNAMICS) S.D.=  2.63350876507899E-06
DEBUG_STATS_RL:               GtNm1 (DYNAMICS)  min= -3.12706517322563E-06
DEBUG_STATS_RL:               GtNm1 (DYNAMICS)  max=  2.02512292506759E-06
DEBUG_STATS_RL:               GtNm1 (DYNAMICS) mean=  2.76135372808116E-10
DEBUG_STATS_RL:               GtNm1 (DYNAMICS) S.D.=  1.66680516962238E-07
DEBUG_STATS_RL:               GsNm1 (DYNAMICS)  min= -2.90663379574208E-07
DEBUG_STATS_RL:               GsNm1 (DYNAMICS)  max=  2.99623540663046E-07
DEBUG_STATS_RL:               GsNm1 (DYNAMICS) mean=  5.33060399623458E-11
DEBUG_STATS_RL:               GsNm1 (DYNAMICS) S.D.=  1.52123082779219E-08
DEBUG_STATS_RL:    cg2d_b (SOLVE_FOR_PRESSURE)  min= -2.37657257080384E+04
DEBUG_STATS_RL:    cg2d_b (SOLVE_FOR_PRESSURE)  max=  2.82956459905335E+04
DEBUG_STATS_RL:    cg2d_b (SOLVE_FOR_PRESSURE) mean=  5.22714913341243E+00
DEBUG_STATS_RL:    cg2d_b (SOLVE_FOR_PRESSURE) S.D.=  4.18423946004505E+03
 cg2d: Sum(rhs),rhsMax =   4.27657677364819E-01  1.85853378814834E+00
(PID.TID 0000.0001)  cg2d: iter=     1 ; resid.=  1.81964573753406E-01
(PID.TID 0000.0001)  cg2d: iter=     2 ; resid.=  1.23921260212088E-01
(PID.TID 0000.0001)  cg2d: iter=     3 ; resid.=  1.09172579509144E-01
(PID.TID 0000.0001)  cg2d: iter=     4 ; resid.=  9.38986887369637E-02
(PID.TID 0000.0001)  cg2d: iter=     5 ; resid.=  6.54035908486460E-02
(PID.TID 0000.0001)  cg2d: iter=     6 ; resid.=  4.89953821303240E-02
(PID.TID 0000.0001)  cg2d: iter=     7 ; resid.=  3.90254373088974E-02
(PID.TID 0000.0001)  cg2d: iter=     8 ; resid.=  3.31123492236373E-02
(PID.TID 0000.0001)  cg2d: iter=     9 ; resid.=  2.79332084318866E-02
(PID.TID 0000.0001)  cg2d: iter=    10 ; resid.=  2.44401599967116E-02
(PID.TID 0000.0001)  cg2d: iter=    11 ; resid.=  2.15184825136259E-02
(PID.TID 0000.0001)  cg2d: iter=    12 ; resid.=  1.89126364299969E-02
(PID.TID 0000.0001)  cg2d: iter=    13 ; resid.=  1.57750930681751E-02
(PID.TID 0000.0001)  cg2d: iter=    14 ; resid.=  1.40041888689107E-02
(PID.TID 0000.0001)  cg2d: iter=    15 ; resid.=  1.25577827739789E-02
(PID.TID 0000.0001)  cg2d: iter=    16 ; resid.=  1.04120147723046E-02
(PID.TID 0000.0001)  cg2d: iter=    17 ; resid.=  9.11373156154027E-03
(PID.TID 0000.0001)  cg2d: iter=    18 ; resid.=  8.02778868739494E-03
(PID.TID 0000.0001)  cg2d: iter=    19 ; resid.=  6.61960548683459E-03
(PID.TID 0000.0001)  cg2d: iter=    20 ; resid.=  5.68013570487032E-03
(PID.TID 0000.0001)  cg2d: iter=    21 ; resid.=  4.55230391348394E-03
(PID.TID 0000.0001)  cg2d: iter=    22 ; resid.=  4.12334658851731E-03
(PID.TID 0000.0001)  cg2d: iter=    23 ; resid.=  3.26326724145180E-03
(PID.TID 0000.0001)  cg2d: iter=    24 ; resid.=  2.49229661806334E-03
(PID.TID 0000.0001)  cg2d: iter=    25 ; resid.=  1.97518416126307E-03
(PID.TID 0000.0001)  cg2d: iter=    26 ; resid.=  1.64858459140392E-03
(PID.TID 0000.0001)  cg2d: iter=    27 ; resid.=  1.41756629686987E-03
(PID.TID 0000.0001)  cg2d: iter=    28 ; resid.=  1.21583425777797E-03
(PID.TID 0000.0001)  cg2d: iter=    29 ; resid.=  1.07708553307907E-03
(PID.TID 0000.0001)  cg2d: iter=    30 ; resid.=  9.14217947945051E-04
(PID.TID 0000.0001)  cg2d: iter=    31 ; resid.=  7.60395054418034E-04
(PID.TID 0000.0001)  cg2d: iter=    32 ; resid.=  6.09532763975418E-04
(PID.TID 0000.0001)  cg2d: iter=    33 ; resid.=  5.19259355338031E-04
(PID.TID 0000.0001)  cg2d: iter=    34 ; resid.=  4.15127474171641E-04
(PID.TID 0000.0001)  cg2d: iter=    35 ; resid.=  3.45263278510230E-04
(PID.TID 0000.0001)  cg2d: iter=    36 ; resid.=  2.79823128816967E-04
(PID.TID 0000.0001)  cg2d: iter=    37 ; resid.=  2.19483993426411E-04
(PID.TID 0000.0001)  cg2d: iter=    38 ; resid.=  1.59011658515720E-04
(PID.TID 0000.0001)  cg2d: iter=    39 ; resid.=  1.19150521052042E-04
(PID.TID 0000.0001)  cg2d: iter=    40 ; resid.=  8.95553670480179E-05
(PID.TID 0000.0001)  cg2d: iter=    41 ; resid.=  7.03998903430465E-05
(PID.TID 0000.0001)  cg2d: iter=    42 ; resid.=  5.73385007057047E-05
(PID.TID 0000.0001)  cg2d: iter=    43 ; resid.=  5.06412078873508E-05
(PID.TID 0000.0001)  cg2d: iter=    44 ; resid.=  4.17104858508650E-05
(PID.TID 0000.0001)  cg2d: iter=    45 ; resid.=  3.38331501874074E-05
(PID.TID 0000.0001)  cg2d: iter=    46 ; resid.=  2.73518665569925E-05
(PID.TID 0000.0001)  cg2d: iter=    47 ; resid.=  2.38311415355635E-05
(PID.TID 0000.0001)  cg2d: iter=    48 ; resid.=  2.21977629211868E-05
(PID.TID 0000.0001)  cg2d: iter=    49 ; resid.=  1.85361304673409E-05
(PID.TID 0000.0001)  cg2d: iter=    50 ; resid.=  1.43273409886368E-05
(PID.TID 0000.0001)  cg2d: iter=    51 ; resid.=  1.12969670588213E-05
(PID.TID 0000.0001)  cg2d: iter=    52 ; resid.=  9.38134442706341E-06
(PID.TID 0000.0001)  cg2d: iter=    53 ; resid.=  8.13434391592681E-06
(PID.TID 0000.0001)  cg2d: iter=    54 ; resid.=  6.76429823737313E-06
(PID.TID 0000.0001)  cg2d: iter=    55 ; resid.=  5.93521641375952E-06
(PID.TID 0000.0001)  cg2d: iter=    56 ; resid.=  5.16821216354579E-06
(PID.TID 0000.0001)  cg2d: iter=    57 ; resid.=  4.74182005635015E-06
(PID.TID 0000.0001)  cg2d: iter=    58 ; resid.=  3.62782403302239E-06
(PID.TID 0000.0001)  cg2d: iter=    59 ; resid.=  2.89232901266988E-06
(PID.TID 0000.0001)  cg2d: iter=    60 ; resid.=  2.23649654443249E-06
(PID.TID 0000.0001)  cg2d: iter=    61 ; resid.=  1.72654723662194E-06
(PID.TID 0000.0001)  cg2d: iter=    62 ; resid.=  1.23799052428456E-06
(PID.TID 0000.0001)  cg2d: iter=    63 ; resid.=  9.80688068413351E-07
(PID.TID 0000.0001)  cg2d: iter=    64 ; resid.=  7.50417937924977E-07
(PID.TID 0000.0001)  cg2d: iter=    65 ; resid.=  5.97098844305639E-07
(PID.TID 0000.0001)  cg2d: iter=    66 ; resid.=  4.48956663198962E-07
(PID.TID 0000.0001)  cg2d: iter=    67 ; resid.=  3.74724821318768E-07
(PID.TID 0000.0001)  cg2d: iter=    68 ; resid.=  3.07269065854506E-07
(PID.TID 0000.0001)  cg2d: iter=    69 ; resid.=  2.61990792637398E-07
(PID.TID 0000.0001)  cg2d: iter=    70 ; resid.=  2.17861097094045E-07
(PID.TID 0000.0001)  cg2d: iter=    71 ; resid.=  1.89476767253965E-07
(PID.TID 0000.0001)  cg2d: iter=    72 ; resid.=  1.78646464811596E-07
(PID.TID 0000.0001)  cg2d: iter=    73 ; resid.=  1.61761260620646E-07
(PID.TID 0000.0001)  cg2d: iter=    74 ; resid.=  1.35108228100551E-07
(PID.TID 0000.0001)  cg2d: iter=    75 ; resid.=  1.01684581165809E-07
(PID.TID 0000.0001)  cg2d: iter=    76 ; resid.=  8.11602665424052E-08
(PID.TID 0000.0001)  cg2d: iter=    77 ; resid.=  6.62461709811622E-08
(PID.TID 0000.0001)  cg2d: iter=    78 ; resid.=  5.09333647900240E-08
(PID.TID 0000.0001)  cg2d: iter=    79 ; resid.=  4.22965311736906E-08
(PID.TID 0000.0001)  cg2d: iter=    80 ; resid.=  3.60242506007868E-08
(PID.TID 0000.0001)  cg2d: iter=    81 ; resid.=  3.16633117273517E-08
(PID.TID 0000.0001)  cg2d: iter=    82 ; resid.=  2.74517254094864E-08
(PID.TID 0000.0001)  cg2d: iter=    83 ; resid.=  2.32685784381906E-08
(PID.TID 0000.0001)  cg2d: iter=    84 ; resid.=  1.93302084055306E-08
(PID.TID 0000.0001)  cg2d: iter=    85 ; resid.=  1.37724496078641E-08
(PID.TID 0000.0001)  cg2d: iter=    86 ; resid.=  1.03804524562450E-08
(PID.TID 0000.0001)  cg2d: iter=    87 ; resid.=  8.87963391273894E-09
(PID.TID 0000.0001)  cg2d: iter=    88 ; resid.=  6.67363946345634E-09
(PID.TID 0000.0001)  cg2d: iter=    89 ; resid.=  5.18799130652164E-09
(PID.TID 0000.0001)  cg2d: iter=    90 ; resid.=  4.57254539209808E-09
(PID.TID 0000.0001)  cg2d: iter=    91 ; resid.=  3.81275627763081E-09
(PID.TID 0000.0001)  cg2d: iter=    92 ; resid.=  3.24589020019521E-09
(PID.TID 0000.0001)  cg2d: iter=    93 ; resid.=  2.43344080123562E-09
(PID.TID 0000.0001)  cg2d: iter=    94 ; resid.=  2.07970542137498E-09
(PID.TID 0000.0001)  cg2d: iter=    95 ; resid.=  1.72018690081803E-09
(PID.TID 0000.0001)  cg2d: iter=    96 ; resid.=  1.37908434353260E-09
(PID.TID 0000.0001)  cg2d: iter=    97 ; resid.=  1.16432040594995E-09
(PID.TID 0000.0001)  cg2d: iter=    98 ; resid.=  8.85196775654071E-10
(PID.TID 0000.0001)  cg2d: iter=    99 ; resid.=  6.92917297639015E-10
(PID.TID 0000.0001)  cg2d: iter=   100 ; resid.=  5.27519203042131E-10
(PID.TID 0000.0001)  cg2d: iter=   101 ; resid.=  3.97266817902750E-10
(PID.TID 0000.0001)  cg2d: iter=   102 ; resid.=  3.25786392607360E-10
(PID.TID 0000.0001)  cg2d: iter=   103 ; resid.=  2.63328784306664E-10
(PID.TID 0000.0001)  cg2d: iter=   104 ; resid.=  2.02782153788900E-10
(PID.TID 0000.0001)  cg2d: iter=   105 ; resid.=  1.71875044176686E-10
(PID.TID 0000.0001)  cg2d: iter=   106 ; resid.=  1.36811644776690E-10
(PID.TID 0000.0001)  cg2d: iter=   107 ; resid.=  1.05859418867561E-10
(PID.TID 0000.0001)  cg2d: iter=   108 ; resid.=  9.76719847085176E-11
(PID.TID 0000.0001)  cg2d: iter=   109 ; resid.=  7.52202800156436E-11
(PID.TID 0000.0001)  cg2d: iter=   110 ; resid.=  6.08726997165147E-11
(PID.TID 0000.0001)  cg2d: iter=   111 ; resid.=  5.24649531284034E-11
(PID.TID 0000.0001)  cg2d: iter=   112 ; resid.=  4.27845238478417E-11
(PID.TID 0000.0001)  cg2d: iter=   113 ; resid.=  3.47308264891132E-11
(PID.TID 0000.0001)  cg2d: iter=   114 ; resid.=  2.69292213489396E-11
(PID.TID 0000.0001)  cg2d: iter=   115 ; resid.=  2.04155457748753E-11
(PID.TID 0000.0001)  cg2d: iter=   116 ; resid.=  1.43042364552178E-11
(PID.TID 0000.0001)  cg2d: iter=   117 ; resid.=  1.05614154888858E-11
(PID.TID 0000.0001)  cg2d: iter=   118 ; resid.=  8.11631656730264E-12
(PID.TID 0000.0001)  cg2d: iter=   119 ; resid.=  5.89937684262064E-12
(PID.TID 0000.0001)  cg2d: iter=   120 ; resid.=  4.06189390656653E-12
(PID.TID 0000.0001)  cg2d: iter=   121 ; resid.=  3.03390721250147E-12
(PID.TID 0000.0001)  cg2d: iter=   122 ; resid.=  2.45317552702248E-12
(PID.TID 0000.0001)  cg2d: iter=   123 ; resid.=  1.95098886532185E-12
(PID.TID 0000.0001)  cg2d: iter=   124 ; resid.=  1.61460458887003E-12
(PID.TID 0000.0001)  cg2d: iter=   125 ; resid.=  1.33695527048137E-12
(PID.TID 0000.0001)  cg2d: iter=   126 ; resid.=  1.09133621147580E-12
(PID.TID 0000.0001)  cg2d: iter=   127 ; resid.=  7.92142046362170E-13
(PID.TID 0000.0001)  cg2d: iter=   128 ; resid.=  5.10458095848729E-13
(PID.TID 0000.0001)  cg2d: iter=   129 ; resid.=  3.69053730880680E-13
(PID.TID 0000.0001)  cg2d: iter=   130 ; resid.=  2.88659975241291E-13
(PID.TID 0000.0001)  cg2d: iter=   131 ; resid.=  2.22281785549791E-13
(PID.TID 0000.0001)  cg2d: iter=   132 ; resid.=  1.52294232508827E-13
(PID.TID 0000.0001)  cg2d: iter=   133 ; resid.=  1.08852938480469E-13
(PID.TID 0000.0001)  cg2d: iter=   134 ; resid.=  8.03212848488137E-14
DEBUG_STATS_RL:    cg2d_x (SOLVE_FOR_PRESSURE)  min= -2.38573634856489E+01
DEBUG_STATS_RL:    cg2d_x (SOLVE_FOR_PRESSURE)  max=  1.30111417412289E+01
DEBUG_STATS_RL:    cg2d_x (SOLVE_FOR_PRESSURE) mean= -2.19945512050875E+00
DEBUG_STATS_RL:    cg2d_x (SOLVE_FOR_PRESSURE) S.D.=  9.75803440062206E+00
(PID.TID 0000.0001)      cg2d_init_res =   3.31305508428548E-01
(PID.TID 0000.0001)      cg2d_iters(min,last) =      -1     134
(PID.TID 0000.0001)      cg2d_last_res =   8.03212848488137E-14
(PID.TID 0000.0001) // =======================================================
(PID.TID 0000.0001) // Begin MONITOR dynamic field statistics
(PID.TID 0000.0001) // =======================================================
(PID.TID 0000.0001) %MON time_tsnumber                =                    79
(PID.TID 0000.0001) %MON time_secondsf                =   6.8256000000000E+06
(PID.TID 0000.0001) %MON dynstat_eta_max              =   1.3263141428368E+00
(PID.TID 0000.0001) %MON dynstat_eta_min              =  -2.4319432707084E+00
(PID.TID 0000.0001) %MON dynstat_eta_mean             =  -5.4538819756204E-03
(PID.TID 0000.0001) %MON dynstat_eta_sd               =   9.1243345415881E-01
(PID.TID 0000.0001) %MON dynstat_eta_del2             =   2.5874786800892E-03
(PID.TID 0000.0001) %MON dynstat_uvel_max             =   1.6179021624603E-01
(PID.TID 0000.0001) %MON dynstat_uvel_min             =  -1.2472664150560E-01
(PID.TID 0000.0001) %MON dynstat_uvel_mean            =   2.4799618875985E-03
(PID.TID 0000.0001) %MON dynstat_uvel_sd              =   1.9634657536489E-02
(PID.TID 0000.0001) %MON dynstat_uvel_del2            =   1.4529383163444E-04
(PID.TID 0000.0001) %MON dynstat_vvel_max             =   1.5518224512643E-01
(PID.TID 0000.0001) %MON dynstat_vvel_min             =  -1.1036268979986E-01
(PID.TID 0000.0001) %MON dynstat_vvel_mean            =  -1.1995499656560E-04
(PID.TID 0000.0001) %MON dynstat_vvel_sd              =   1.0386477879421E-02
(PID.TID 0000.0001) %MON dynstat_vvel_del2            =   9.1952590314740E-05
(PID.TID 0000.0001) %MON dynstat_wvel_max             =   2.4337278859721E-04
(PID.TID 0000.0001) %MON dynstat_wvel_min             =  -1.2458808173280E-04
(PID.TID 0000.0001) %MON dynstat_wvel_mean            =   1.8922961378701E-22
(PID.TID 0000.0001) %MON dynstat_wvel_sd              =   1.5122641830313E-05
(PID.TID 0000.0001) %MON dynstat_wvel_del2            =   1.4886044990509E-07
(PID.TID 0000.0001) %MON dynstat_theta_max            =   3.0989106082728E+01
(PID.TID 0000.0001) %MON dynstat_theta_min            =  -1.9490776798783E+00
(PID.TID 0000.0001) %MON dynstat_theta_mean           =   3.6537071222588E+00
(PID.TID 0000.0001) %MON dynstat_theta_sd             =   4.4268373621475E+00
(PID.TID 0000.0001) %MON dynstat_theta_del2           =   4.8922437423094E-03
(PID.TID 0000.0001) %MON dynstat_salt_max             =   3.7495729864273E+01
(PID.TID 0000.0001) %MON dynstat_salt_min             =   2.9928607718871E+01
(PID.TID 0000.0001) %MON dynstat_salt_mean            =   3.4748045744286E+01
(PID.TID 0000.0001) %MON dynstat_salt_sd              =   2.9665605140806E-01
(PID.TID 0000.0001) %MON dynstat_salt_del2            =   9.9643179654142E-04
(PID.TID 0000.0001) %MON dynstat_sst_max              =   3.0989106082728E+01
(PID.TID 0000.0001) %MON dynstat_sst_min              =  -1.9490776798783E+00
(PID.TID 0000.0001) %MON dynstat_sst_mean             =   1.9090693868847E+01
(PID.TID 0000.0001) %MON dynstat_sst_sd               =   9.1737208573933E+00
(PID.TID 0000.0001) %MON dynstat_sst_del2             =   2.8931080833999E-02
(PID.TID 0000.0001) %MON dynstat_sss_max              =   3.7489341102243E+01
(PID.TID 0000.0001) %MON dynstat_sss_min              =   2.9928607718871E+01
(PID.TID 0000.0001) %MON dynstat_sss_mean             =   3.4868985991252E+01
(PID.TID 0000.0001) %MON dynstat_sss_sd               =   9.8696184777359E-01
(PID.TID 0000.0001) %MON dynstat_sss_del2             =   8.2093315728557E-03
(PID.TID 0000.0001) %MON forcing_qnet_max             =   2.6039198608398E+02
(PID.TID 0000.0001) %MON forcing_qnet_min             =  -1.6257160186768E+02
(PID.TID 0000.0001) %MON forcing_qnet_mean            =  -6.0739567032357E+00
(PID.TID 0000.0001) %MON forcing_qnet_sd              =   4.3878157361251E+01
(PID.TID 0000.0001) %MON forcing_qnet_del2            =   8.3036174391227E-01
(PID.TID 0000.0001) %MON forcing_qsw_max              =   0.0000000000000E+00
(PID.TID 0000.0001) %MON forcing_qsw_min              =   0.0000000000000E+00
(PID.TID 0000.0001) %MON forcing_qsw_mean             =   0.0000000000000E+00
(PID.TID 0000.0001) %MON forcing_qsw_sd               =   0.0000000000000E+00
(PID.TID 0000.0001) %MON forcing_qsw_del2             =   0.0000000000000E+00
(PID.TID 0000.0001) %MON forcing_empmr_max            =   6.8820308740669E-05
(PID.TID 0000.0001) %MON forcing_empmr_min            =  -8.3308955822758E-05
(PID.TID 0000.0001) %MON forcing_empmr_mean           =   4.8337495919599E-07
(PID.TID 0000.0001) %MON forcing_empmr_sd             =   2.6080704866784E-05
(PID.TID 0000.0001) %MON forcing_empmr_del2           =   3.6465436122131E-07
(PID.TID 0000.0001) %MON forcing_fu_max               =   3.5498254299164E-01
(PID.TID 0000.0001) %MON forcing_fu_min               =  -3.9135563671589E-01
(PID.TID 0000.0001) %MON forcing_fu_mean              =   2.0075153009589E-02
(PID.TID 0000.0001) %MON forcing_fu_sd                =   1.0135250681503E-01
(PID.TID 0000.0001) %MON forcing_fu_del2              =   8.2249085228600E-04
(PID.TID 0000.0001) %MON forcing_fv_max               =   1.8301234245300E-01
(PID.TID 0000.0001) %MON forcing_fv_min               =  -1.8310849070549E-01
(PID.TID 0000.0001) %MON forcing_fv_mean              =  -7.4201454229255E-03
(PID.TID 0000.0001) %MON forcing_fv_sd                =   4.1471021405543E-02
(PID.TID 0000.0001) %MON forcing_fv_del2              =   4.7971991302382E-04
(PID.TID 0000.0001) %MON trAdv_CFL_u_max              =   4.1496105133946E-02
(PID.TID 0000.0001) %MON trAdv_CFL_v_max              =   3.0510424950638E-02
(PID.TID 0000.0001) %MON trAdv_CFL_w_max              =   5.2098805075702E-02
(PID.TID 0000.0001) %MON advcfl_uvel_max              =   4.2297602211391E-02
(PID.TID 0000.0001) %MON advcfl_vvel_max              =   3.0149421404075E-02
(PID.TID 0000.0001) %MON advcfl_wvel_max              =   5.7609339547395E-02
(PID.TID 0000.0001) %MON advcfl_W_hf_max              =   6.1845320396468E-02
(PID.TID 0000.0001) %MON pe_b_mean                    =   1.0653666970497E-03
(PID.TID 0000.0001) %MON ke_max                       =   1.8461932333501E-02
(PID.TID 0000.0001) %MON ke_mean                      =   2.2637963977927E-04
(PID.TID 0000.0001) %MON ke_vol                       =   1.3226782436723E+18
(PID.TID 0000.0001) %MON vort_r_min                   =  -4.0864200748041E-07
(PID.TID 0000.0001) %MON vort_r_max                   =   4.1994511313413E-07
(PID.TID 0000.0001) %MON vort_a_mean                  =  -2.5274806507246E-05
(PID.TID 0000.0001) %MON vort_a_sd                    =   7.3604655864991E-05
(PID.TID 0000.0001) %MON vort_p_mean                  =  -3.1845654677834E-05
(PID.TID 0000.0001) %MON vort_p_sd                    =   1.3162587808432E-04
(PID.TID 0000.0001) %MON surfExpan_theta_mean         =  -9.0337975192125E-08
(PID.TID 0000.0001) %MON surfExpan_salt_mean          =   2.8699834174140E-08
(PID.TID 0000.0001) // =======================================================
(PID.TID 0000.0001) // End MONITOR dynamic field statistics
(PID.TID 0000.0001) // =======================================================
 EXTERNAL_FIELDS_LOAD,        79 : iP,iLd,i0,i1=    3    4    3    4 ; Wght=  0.8666666667  0.1333333333
 EXTERNAL_FIELDS_LOAD: (fu0,1),fu,fv= -2.7199E-02 -3.7252E-02 -2.8539E-02 -5.1965E-03
 EXTERNAL_FIELDS_LOAD: SST,SSS,Q,E-P= -1.5467E-01  3.4578E+01  2.0056E+02  8.9059E-06
DEBUG_STATS_RL:          Uvel (THERMODYNAMICS)  min= -1.24726641505602E-01
DEBUG_STATS_RL:          Uvel (THERMODYNAMICS)  max=  1.61790216246026E-01
DEBUG_STATS_RL:          Uvel (THERMODYNAMICS) mean=  6.49689755611423E-03
DEBUG_STATS_RL:          Uvel (THERMODYNAMICS) S.D.=  2.59165133822814E-02
DEBUG_STATS_RL:          Vvel (THERMODYNAMICS)  min= -1.10362689799864E-01
DEBUG_STATS_RL:          Vvel (THERMODYNAMICS)  max=  1.55182245126431E-01
DEBUG_STATS_RL:          Vvel (THERMODYNAMICS) mean=  9.34523860901711E-04
DEBUG_STATS_RL:          Vvel (THERMODYNAMICS) S.D.=  1.55545482391559E-02
DEBUG_STATS_RL:          Wvel (THERMODYNAMICS)  min= -1.24588081732798E-04
DEBUG_STATS_RL:          Wvel (THERMODYNAMICS)  max=  2.43372788597211E-04
DEBUG_STATS_RL:          Wvel (THERMODYNAMICS) mean=  7.20468859962386E-09
DEBUG_STATS_RL:          Wvel (THERMODYNAMICS) S.D.=  1.31518098100053E-05
DEBUG_STATS_RL:         Theta (THERMODYNAMICS)  min= -1.94767415543371E+00
DEBUG_STATS_RL:         Theta (THERMODYNAMICS)  max=  3.10105873613249E+01
DEBUG_STATS_RL:         Theta (THERMODYNAMICS) mean=  3.25096729765326E+00
DEBUG_STATS_RL:         Theta (THERMODYNAMICS) S.D.=  5.88612181031149E+00
DEBUG_STATS_RL:          Salt (THERMODYNAMICS)  min=  3.00000000000000E-02
DEBUG_STATS_RL:          Salt (THERMODYNAMICS)  max=  3.74953480706132E+01
DEBUG_STATS_RL:          Salt (THERMODYNAMICS) mean=  1.88748239482719E+01
DEBUG_STATS_RL:          Salt (THERMODYNAMICS) S.D.=  1.73003693624689E+01
DEBUG_STATS_RL:         GtNm1 (THERMODYNAMICS)  min= -3.21896710752579E-06
DEBUG_STATS_RL:         GtNm1 (THERMODYNAMICS)  max=  2.10258323266311E-06
DEBUG_STATS_RL:         GtNm1 (THERMODYNAMICS) mean=  1.04100275992631E-10
DEBUG_STATS_RL:         GtNm1 (THERMODYNAMICS) S.D.=  1.65984386138905E-07
DEBUG_STATS_RL:         GsNm1 (THERMODYNAMICS)  min= -3.06891989517237E-07
DEBUG_STATS_RL:         GsNm1 (THERMODYNAMICS)  max=  4.28975052875166E-07
DEBUG_STATS_RL:         GsNm1 (THERMODYNAMICS) mean=  2.28571034519889E-11
DEBUG_STATS_RL:         GsNm1 (THERMODYNAMICS) S.D.=  1.52890746197918E-08
DEBUG_STATS_RL:                EtaN (DYNAMICS)  min= -2.43194327070836E+00
DEBUG_STATS_RL:                EtaN (DYNAMICS)  max=  1.32631414283676E+00
DEBUG_STATS_RL:                EtaN (DYNAMICS) mean= -2.24205414934633E-01
DEBUG_STATS_RL:                EtaN (DYNAMICS) S.D.=  9.94702793131709E-01
DEBUG_STATS_RL:                Uvel (DYNAMICS)  min= -1.24726641505602E-01
DEBUG_STATS_RL:                Uvel (DYNAMICS)  max=  1.61790216246026E-01
DEBUG_STATS_RL:                Uvel (DYNAMICS) mean=  6.49689755611423E-03
DEBUG_STATS_RL:                Uvel (DYNAMICS) S.D.=  2.59165133822814E-02
DEBUG_STATS_RL:                Vvel (DYNAMICS)  min= -1.10362689799864E-01
DEBUG_STATS_RL:                Vvel (DYNAMICS)  max=  1.55182245126431E-01
DEBUG_STATS_RL:                Vvel (DYNAMICS) mean=  9.34523860901711E-04
DEBUG_STATS_RL:                Vvel (DYNAMICS) S.D.=  1.55545482391559E-02
DEBUG_STATS_RL:                Wvel (DYNAMICS)  min= -1.24588081732798E-04
DEBUG_STATS_RL:                Wvel (DYNAMICS)  max=  2.43372788597211E-04
DEBUG_STATS_RL:                Wvel (DYNAMICS) mean=  7.20468859962386E-09
DEBUG_STATS_RL:                Wvel (DYNAMICS) S.D.=  1.31518098100053E-05
DEBUG_STATS_RL:               Theta (DYNAMICS)  min= -1.94767415543371E+00
DEBUG_STATS_RL:               Theta (DYNAMICS)  max=  3.10105873613249E+01
DEBUG_STATS_RL:               Theta (DYNAMICS) mean=  3.25096729765326E+00
DEBUG_STATS_RL:               Theta (DYNAMICS) S.D.=  5.88612181031149E+00
DEBUG_STATS_RL:                Salt (DYNAMICS)  min=  3.00000000000000E-02
DEBUG_STATS_RL:                Salt (DYNAMICS)  max=  3.74953480706132E+01
DEBUG_STATS_RL:                Salt (DYNAMICS) mean=  1.88748239482719E+01
DEBUG_STATS_RL:                Salt (DYNAMICS) S.D.=  1.73003693624689E+01
DEBUG_STATS_RL:                  Gu (DYNAMICS)  min= -1.24100876170128E-01
DEBUG_STATS_RL:                  Gu (DYNAMICS)  max=  1.69250888406636E-01
DEBUG_STATS_RL:                  Gu (DYNAMICS) mean=  6.55637143875275E-03
DEBUG_STATS_RL:                  Gu (DYNAMICS) S.D.=  2.62190970023775E-02
DEBUG_STATS_RL:                  Gv (DYNAMICS)  min= -1.16486295566001E-01
DEBUG_STATS_RL:                  Gv (DYNAMICS)  max=  1.55342629577685E-01
DEBUG_STATS_RL:                  Gv (DYNAMICS) mean=  3.63677401791609E-03
DEBUG_STATS_RL:                  Gv (DYNAMICS) S.D.=  1.69405448922621E-02
DEBUG_STATS_RL:               GuNm1 (DYNAMICS)  min= -1.15537749060822E-05
DEBUG_STATS_RL:               GuNm1 (DYNAMICS)  max=  9.33084523281996E-06
DEBUG_STATS_RL:               GuNm1 (DYNAMICS) mean=  1.04485760270749E-08
DEBUG_STATS_RL:               GuNm1 (DYNAMICS) S.D.=  1.23790793019096E-06
DEBUG_STATS_RL:               GvNm1 (DYNAMICS)  min= -9.71753086623983E-06
DEBUG_STATS_RL:               GvNm1 (DYNAMICS)  max=  1.55108568993684E-05
DEBUG_STATS_RL:               GvNm1 (DYNAMICS) mean=  7.38289836859727E-07
DEBUG_STATS_RL:               GvNm1 (DYNAMICS) S.D.=  2.63142237617306E-06
DEBUG_STATS_RL:               GtNm1 (DYNAMICS)  min= -3.21896710752579E-06
DEBUG_STATS_RL:               GtNm1 (DYNAMICS)  max=  2.10258323266311E-06
DEBUG_STATS_RL:               GtNm1 (DYNAMICS) mean=  1.04100275992631E-10
DEBUG_STATS_RL:               GtNm1 (DYNAMICS) S.D.=  1.65984386138905E-07
DEBUG_STATS_RL:               GsNm1 (DYNAMICS)  min= -3.06891989517237E-07
DEBUG_STATS_RL:               GsNm1 (DYNAMICS)  max=  4.28975052875166E-07
DEBUG_STATS_RL:               GsNm1 (DYNAMICS) mean=  2.28571034519889E-11
DEBUG_STATS_RL:               GsNm1 (DYNAMICS) S.D.=  1.52890746197918E-08
DEBUG_STATS_RL:    cg2d_b (SOLVE_FOR_PRESSURE)  min= -2.53959974958580E+04
DEBUG_STATS_RL:    cg2d_b (SOLVE_FOR_PRESSURE)  max=  2.91867547229964E+04
DEBUG_STATS_RL:    cg2d_b (SOLVE_FOR_PRESSURE) mean=  5.26402711485891E+00
DEBUG_STATS_RL:    cg2d_b (SOLVE_FOR_PRESSURE) S.D.=  4.19147701729838E+03
 cg2d: Sum(rhs),rhsMax =   4.17525788206151E-01  1.91706419557394E+00
(PID.TID 0000.0001)  cg2d: iter=     1 ; resid.=  1.76466599908193E-01
(PID.TID 0000.0001)  cg2d: iter=     2 ; resid.=  1.23902149915056E-01
(PID.TID 0000.0001)  cg2d: iter=     3 ; resid.=  1.12729041601290E-01
(PID.TID 0000.0001)  cg2d: iter=     4 ; resid.=  9.96893315563013E-02
(PID.TID 0000.0001)  cg2d: iter=     5 ; resid.=  7.12178720919808E-02
(PID.TID 0000.0001)  cg2d: iter=     6 ; resid.=  5.52500055695788E-02
(PID.TID 0000.0001)  cg2d: iter=     7 ; resid.=  4.67451016625523E-02
(PID.TID 0000.0001)  cg2d: iter=     8 ; resid.=  4.19676370312937E-02
(PID.TID 0000.0001)  cg2d: iter=     9 ; resid.=  3.58998382331586E-02
(PID.TID 0000.0001)  cg2d: iter=    10 ; resid.=  3.13290037111663E-02
(PID.TID 0000.0001)  cg2d: iter=    11 ; resid.=  2.64620076894336E-02
(PID.TID 0000.0001)  cg2d: iter=    12 ; resid.=  2.29122861207906E-02
(PID.TID 0000.0001)  cg2d: iter=    13 ; resid.=  1.85403115585812E-02
(PID.TID 0000.0001)  cg2d: iter=    14 ; resid.=  1.57238330718022E-02
(PID.TID 0000.0001)  cg2d: iter=    15 ; resid.=  1.32859728425041E-02
(PID.TID 0000.0001)  cg2d: iter=    16 ; resid.=  1.03750803592886E-02
(PID.TID 0000.0001)  cg2d: iter=    17 ; resid.=  8.79576740351798E-03
(PID.TID 0000.0001)  cg2d: iter=    18 ; resid.=  7.57581715531444E-03
(PID.TID 0000.0001)  cg2d: iter=    19 ; resid.=  6.18487097543503E-03
(PID.TID 0000.0001)  cg2d: iter=    20 ; resid.=  5.43890642319860E-03
(PID.TID 0000.0001)  cg2d: iter=    21 ; resid.=  4.39720559605869E-03
(PID.TID 0000.0001)  cg2d: iter=    22 ; resid.=  4.14830618137958E-03
(PID.TID 0000.0001)  cg2d: iter=    23 ; resid.=  3.47048558984918E-03
(PID.TID 0000.0001)  cg2d: iter=    24 ; resid.=  2.78105158983863E-03
(PID.TID 0000.0001)  cg2d: iter=    25 ; resid.=  2.30389230891396E-03
(PID.TID 0000.0001)  cg2d: iter=    26 ; resid.=  1.97816129079765E-03
(PID.TID 0000.0001)  cg2d: iter=    27 ; resid.=  1.76737317871700E-03
(PID.TID 0000.0001)  cg2d: iter=    28 ; resid.=  1.53808266617301E-03
(PID.TID 0000.0001)  cg2d: iter=    29 ; resid.=  1.33936055293193E-03
(PID.TID 0000.0001)  cg2d: iter=    30 ; resid.=  1.08802865215085E-03
(PID.TID 0000.0001)  cg2d: iter=    31 ; resid.=  8.65244311506968E-04
(PID.TID 0000.0001)  cg2d: iter=    32 ; resid.=  6.70674370881090E-04
(PID.TID 0000.0001)  cg2d: iter=    33 ; resid.=  5.51842832337250E-04
(PID.TID 0000.0001)  cg2d: iter=    34 ; resid.=  4.37240993545725E-04
(PID.TID 0000.0001)  cg2d: iter=    35 ; resid.=  3.62637539125204E-04
(PID.TID 0000.0001)  cg2d: iter=    36 ; resid.=  3.03434328796948E-04
(PID.TID 0000.0001)  cg2d: iter=    37 ; resid.=  2.47522805134666E-04
(PID.TID 0000.0001)  cg2d: iter=    38 ; resid.=  1.89878999133391E-04
(PID.TID 0000.0001)  cg2d: iter=    39 ; resid.=  1.55905055901904E-04
(PID.TID 0000.0001)  cg2d: iter=    40 ; resid.=  1.29964238155544E-04
(PID.TID 0000.0001)  cg2d: iter=    41 ; resid.=  1.13696541126567E-04
(PID.TID 0000.0001)  cg2d: iter=    42 ; resid.=  1.01473505985494E-04
(PID.TID 0000.0001)  cg2d: iter=    43 ; resid.=  9.48849372599922E-05
(PID.TID 0000.0001)  cg2d: iter=    44 ; resid.=  7.97012828689057E-05
(PID.TID 0000.0001)  cg2d: iter=    45 ; resid.=  6.45343187203787E-05
(PID.TID 0000.0001)  cg2d: iter=    46 ; resid.=  5.18666562243084E-05
(PID.TID 0000.0001)  cg2d: iter=    47 ; resid.=  4.34284291818866E-05
(PID.TID 0000.0001)  cg2d: iter=    48 ; resid.=  3.78851364236297E-05
(PID.TID 0000.0001)  cg2d: iter=    49 ; resid.=  2.93156434459013E-05
(PID.TID 0000.0001)  cg2d: iter=    50 ; resid.=  2.21543773967998E-05
(PID.TID 0000.0001)  cg2d: iter=    51 ; resid.=  1.78220223698954E-05
(PID.TID 0000.0001)  cg2d: iter=    52 ; resid.=  1.50486790915393E-05
(PID.TID 0000.0001)  cg2d: iter=    53 ; resid.=  1.35276799728473E-05
(PID.TID 0000.0001)  cg2d: iter=    54 ; resid.=  1.14184494935813E-05
(PID.TID 0000.0001)  cg2d: iter=    55 ; resid.=  1.03932011612792E-05
(PID.TID 0000.0001)  cg2d: iter=    56 ; resid.=  8.93041247174112E-06
(PID.TID 0000.0001)  cg2d: iter=    57 ; resid.=  7.90415786351513E-06
(PID.TID 0000.0001)  cg2d: iter=    58 ; resid.=  5.78941045002894E-06
(PID.TID 0000.0001)  cg2d: iter=    59 ; resid.=  4.50532196204039E-06
(PID.TID 0000.0001)  cg2d: iter=    60 ; resid.=  3.52810543867430E-06
(PID.TID 0000.0001)  cg2d: iter=    61 ; resid.=  2.75935632029702E-06
(PID.TID 0000.0001)  cg2d: iter=    62 ; resid.=  2.03634546588898E-06
(PID.TID 0000.0001)  cg2d: iter=    63 ; resid.=  1.60892513801209E-06
(PID.TID 0000.0001)  cg2d: iter=    64 ; resid.=  1.26506725037899E-06
(PID.TID 0000.0001)  cg2d: iter=    65 ; resid.=  1.03538549162871E-06
(PID.TID 0000.0001)  cg2d: iter=    66 ; resid.=  7.86282942816306E-07
(PID.TID 0000.0001)  cg2d: iter=    67 ; resid.=  6.42184175554421E-07
(PID.TID 0000.0001)  cg2d: iter=    68 ; resid.=  5.16737076286257E-07
(PID.TID 0000.0001)  cg2d: iter=    69 ; resid.=  4.27917107598468E-07
(PID.TID 0000.0001)  cg2d: iter=    70 ; resid.=  3.37105347300992E-07
(PID.TID 0000.0001)  cg2d: iter=    71 ; resid.=  2.71885712658966E-07
(PID.TID 0000.0001)  cg2d: iter=    72 ; resid.=  2.39626521625469E-07
(PID.TID 0000.0001)  cg2d: iter=    73 ; resid.=  1.99639749927102E-07
(PID.TID 0000.0001)  cg2d: iter=    74 ; resid.=  1.57746150101500E-07
(PID.TID 0000.0001)  cg2d: iter=    75 ; resid.=  1.20382951387924E-07
(PID.TID 0000.0001)  cg2d: iter=    76 ; resid.=  9.95937137031908E-08
(PID.TID 0000.0001)  cg2d: iter=    77 ; resid.=  8.60115831984429E-08
(PID.TID 0000.0001)  cg2d: iter=    78 ; resid.=  7.19250958913252E-08
(PID.TID 0000.0001)  cg2d: iter=    79 ; resid.=  6.40107670208891E-08
(PID.TID 0000.0001)  cg2d: iter=    80 ; resid.=  5.78563893528788E-08
(PID.TID 0000.0001)  cg2d: iter=    81 ; resid.=  5.07492346795385E-08
(PID.TID 0000.0001)  cg2d: iter=    82 ; resid.=  4.22182176339473E-08
(PID.TID 0000.0001)  cg2d: iter=    83 ; resid.=  3.38754303179665E-08
(PID.TID 0000.0001)  cg2d: iter=    84 ; resid.=  2.70758862198543E-08
(PID.TID 0000.0001)  cg2d: iter=    85 ; resid.=  1.88621191256893E-08
(PID.TID 0000.0001)  cg2d: iter=    86 ; resid.=  1.40619528131573E-08
(PID.TID 0000.0001)  cg2d: iter=    87 ; resid.=  1.19300643329397E-08
(PID.TID 0000.0001)  cg2d: iter=    88 ; resid.=  8.94758384008403E-09
(PID.TID 0000.0001)  cg2d: iter=    89 ; resid.=  7.05389933973825E-09
(PID.TID 0000.0001)  cg2d: iter=    90 ; resid.=  6.04555345983023E-09
(PID.TID 0000.0001)  cg2d: iter=    91 ; resid.=  4.90714057970452E-09
(PID.TID 0000.0001)  cg2d: iter=    92 ; resid.=  4.03204660712406E-09
(PID.TID 0000.0001)  cg2d: iter=    93 ; resid.=  2.86939844211932E-09
(PID.TID 0000.0001)  cg2d: iter=    94 ; resid.=  2.36526948729105E-09
(PID.TID 0000.0001)  cg2d: iter=    95 ; resid.=  1.94989398542717E-09
(PID.TID 0000.0001)  cg2d: iter=    96 ; resid.=  1.57614411197873E-09
(PID.TID 0000.0001)  cg2d: iter=    97 ; resid.=  1.36849377888398E-09
(PID.TID 0000.0001)  cg2d: iter=    98 ; resid.=  1.07866901624869E-09
(PID.TID 0000.0001)  cg2d: iter=    99 ; resid.=  9.13480841326643E-10
(PID.TID 0000.0001)  cg2d: iter=   100 ; resid.=  7.33685968131963E-10
(PID.TID 0000.0001)  cg2d: iter=   101 ; resid.=  5.90308510956525E-10
(PID.TID 0000.0001)  cg2d: iter=   102 ; resid.=  5.09255365930741E-10
(PID.TID 0000.0001)  cg2d: iter=   103 ; resid.=  4.11251065842208E-10
(PID.TID 0000.0001)  cg2d: iter=   104 ; resid.=  3.26726631334454E-10
(PID.TID 0000.0001)  cg2d: iter=   105 ; resid.=  2.76018924148501E-10
(PID.TID 0000.0001)  cg2d: iter=   106 ; resid.=  2.14354974450925E-10
(PID.TID 0000.0001)  cg2d: iter=   107 ; resid.=  1.65005937283704E-10
(PID.TID 0000.0001)  cg2d: iter=   108 ; resid.=  1.46056918672332E-10
(PID.TID 0000.0001)  cg2d: iter=   109 ; resid.=  1.04865706237433E-10
(PID.TID 0000.0001)  cg2d: iter=   110 ; resid.=  8.05804197053578E-11
(PID.TID 0000.0001)  cg2d: iter=   111 ; resid.=  6.65331544834794E-11
(PID.TID 0000.0001)  cg2d: iter=   112 ; resid.=  5.18490151549392E-11
(PID.TID 0000.0001)  cg2d: iter=   113 ; resid.=  3.99305515334321E-11
(PID.TID 0000.0001)  cg2d: iter=   114 ; resid.=  2.96674940614690E-11
(PID.TID 0000.0001)  cg2d: iter=   115 ; resid.=  2.19598250068458E-11
(PID.TID 0000.0001)  cg2d: iter=   116 ; resid.=  1.52139172350138E-11
(PID.TID 0000.0001)  cg2d: iter=   117 ; resid.=  1.14232089581211E-11
(PID.TID 0000.0001)  cg2d: iter=   118 ; resid.=  8.80043354654579E-12
(PID.TID 0000.0001)  cg2d: iter=   119 ; resid.=  6.54396278782548E-12
(PID.TID 0000.0001)  cg2d: iter=   120 ; resid.=  4.60037814727550E-12
(PID.TID 0000.0001)  cg2d: iter=   121 ; resid.=  3.52232367950639E-12
(PID.TID 0000.0001)  cg2d: iter=   122 ; resid.=  2.94762724553599E-12
(PID.TID 0000.0001)  cg2d: iter=   123 ; resid.=  2.39423631361664E-12
(PID.TID 0000.0001)  cg2d: iter=   124 ; resid.=  1.93016745629103E-12
(PID.TID 0000.0001)  cg2d: iter=   125 ; resid.=  1.48801559050578E-12
(PID.TID 0000.0001)  cg2d: iter=   126 ; resid.=  1.12739431652567E-12
(PID.TID 0000.0001)  cg2d: iter=   127 ; resid.=  7.61516016159099E-13
(PID.TID 0000.0001)  cg2d: iter=   128 ; resid.=  4.65541269449137E-13
(PID.TID 0000.0001)  cg2d: iter=   129 ; resid.=  3.19841998491433E-13
(PID.TID 0000.0001)  cg2d: iter=   130 ; resid.=  2.46453365175744E-13
(PID.TID 0000.0001)  cg2d: iter=   131 ; resid.=  1.93872769964922E-13
(PID.TID 0000.0001)  cg2d: iter=   132 ; resid.=  1.39689014216227E-13
(PID.TID 0000.0001)  cg2d: iter=   133 ; resid.=  1.02910373813920E-13
(PID.TID 0000.0001)  cg2d: iter=   134 ; resid.=  8.01530197314784E-14
DEBUG_STATS_RL:    cg2d_x (SOLVE_FOR_PRESSURE)  min= -2.37285192159217E+01
DEBUG_STATS_RL:    cg2d_x (SOLVE_FOR_PRESSURE)  max=  1.28821465700910E+01
DEBUG_STATS_RL:    cg2d_x (SOLVE_FOR_PRESSURE) mean= -2.19284273070547E+00
DEBUG_STATS_RL:    cg2d_x (SOLVE_FOR_PRESSURE) S.D.=  9.65250133360581E+00
(PID.TID 0000.0001)      cg2d_init_res =   3.19554305492802E-01
(PID.TID 0000.0001)      cg2d_iters(min,last) =      -1     134
(PID.TID 0000.0001)      cg2d_last_res =   8.01530197314784E-14
(PID.TID 0000.0001) // =======================================================
(PID.TID 0000.0001) // Begin MONITOR dynamic field statistics
(PID.TID 0000.0001) // =======================================================
(PID.TID 0000.0001) %MON time_tsnumber                =                    80
(PID.TID 0000.0001) %MON time_secondsf                =   6.9120000000000E+06
(PID.TID 0000.0001) %MON dynstat_eta_max              =   1.3131647879807E+00
(PID.TID 0000.0001) %MON dynstat_eta_min              =  -2.4188092982590E+00
(PID.TID 0000.0001) %MON dynstat_eta_mean             =  -5.4923595765412E-03
(PID.TID 0000.0001) %MON dynstat_eta_sd               =   8.9978634847363E-01
(PID.TID 0000.0001) %MON dynstat_eta_del2             =   2.6016965892787E-03
(PID.TID 0000.0001) %MON dynstat_uvel_max             =   1.6409812828897E-01
(PID.TID 0000.0001) %MON dynstat_uvel_min             =  -1.2714725647443E-01
(PID.TID 0000.0001) %MON dynstat_uvel_mean            =   2.4484408414924E-03
(PID.TID 0000.0001) %MON dynstat_uvel_sd              =   1.9535966739149E-02
(PID.TID 0000.0001) %MON dynstat_uvel_del2            =   1.4616695711459E-04
(PID.TID 0000.0001) %MON dynstat_vvel_max             =   1.5366417597471E-01
(PID.TID 0000.0001) %MON dynstat_vvel_min             =  -1.1504121830050E-01
(PID.TID 0000.0001) %MON dynstat_vvel_mean            =  -8.4949952720343E-05
(PID.TID 0000.0001) %MON dynstat_vvel_sd              =   1.0395574479427E-02
(PID.TID 0000.0001) %MON dynstat_vvel_del2            =   9.2368528024118E-05
(PID.TID 0000.0001) %MON dynstat_wvel_max             =   2.6129467893681E-04
(PID.TID 0000.0001) %MON dynstat_wvel_min             =  -1.2304787312059E-04
(PID.TID 0000.0001) %MON dynstat_wvel_mean            =   2.3743155722621E-22
(PID.TID 0000.0001) %MON dynstat_wvel_sd              =   1.5080062897124E-05
(PID.TID 0000.0001) %MON dynstat_wvel_del2            =   1.4880953173629E-07
(PID.TID 0000.0001) %MON dynstat_theta_max            =   3.1010587361325E+01
(PID.TID 0000.0001) %MON dynstat_theta_min            =  -1.9476741554337E+00
(PID.TID 0000.0001) %MON dynstat_theta_mean           =   3.6537430630467E+00
(PID.TID 0000.0001) %MON dynstat_theta_sd             =   4.4270279080469E+00
(PID.TID 0000.0001) %MON dynstat_theta_del2           =   4.8890111301163E-03
(PID.TID 0000.0001) %MON dynstat_salt_max             =   3.7495348070613E+01
(PID.TID 0000.0001) %MON dynstat_salt_min             =   2.9930438420384E+01
(PID.TID 0000.0001) %MON dynstat_salt_mean            =   3.4748044974109E+01
(PID.TID 0000.0001) %MON dynstat_salt_sd              =   2.9666102207649E-01
(PID.TID 0000.0001) %MON dynstat_salt_del2            =   9.9655750496082E-04
(PID.TID 0000.0001) %MON dynstat_sst_max              =   3.1010587361325E+01
(PID.TID 0000.0001) %MON dynstat_sst_min              =  -1.9476741554337E+00
(PID.TID 0000.0001) %MON dynstat_sst_mean             =   1.9091237356613E+01
(PID.TID 0000.0001) %MON dynstat_sst_sd               =   9.1816346001139E+00
(PID.TID 0000.0001) %MON dynstat_sst_del2             =   2.8970239346101E-02
(PID.TID 0000.0001) %MON dynstat_sss_max              =   3.7490364590670E+01
(PID.TID 0000.0001) %MON dynstat_sss_min              =   2.9930438420384E+01
(PID.TID 0000.0001) %MON dynstat_sss_mean             =   3.4868974644156E+01
(PID.TID 0000.0001) %MON dynstat_sss_sd               =   9.8730792834037E-01
(PID.TID 0000.0001) %MON dynstat_sss_del2             =   8.2165436416893E-03
(PID.TID 0000.0001) %MON forcing_qnet_max             =   2.5568675130208E+02
(PID.TID 0000.0001) %MON forcing_qnet_min             =  -1.6214360555013E+02
(PID.TID 0000.0001) %MON forcing_qnet_mean            =  -5.6769202742661E+00
(PID.TID 0000.0001) %MON forcing_qnet_sd              =   4.3119698090752E+01
(PID.TID 0000.0001) %MON forcing_qnet_del2            =   8.2388175904859E-01
(PID.TID 0000.0001) %MON forcing_qsw_max              =   0.0000000000000E+00
(PID.TID 0000.0001) %MON forcing_qsw_min              =   0.0000000000000E+00
(PID.TID 0000.0001) %MON forcing_qsw_mean             =   0.0000000000000E+00
(PID.TID 0000.0001) %MON forcing_qsw_sd               =   0.0000000000000E+00
(PID.TID 0000.0001) %MON forcing_qsw_del2             =   0.0000000000000E+00
(PID.TID 0000.0001) %MON forcing_empmr_max            =   6.8724137728774E-05
(PID.TID 0000.0001) %MON forcing_empmr_min            =  -8.3323801902679E-05
(PID.TID 0000.0001) %MON forcing_empmr_mean           =   4.6092959436842E-07
(PID.TID 0000.0001) %MON forcing_empmr_sd             =   2.6018259992401E-05
(PID.TID 0000.0001) %MON forcing_empmr_del2           =   3.6418795428609E-07
(PID.TID 0000.0001) %MON forcing_fu_max               =   3.5412625869115E-01
(PID.TID 0000.0001) %MON forcing_fu_min               =  -3.9228870868683E-01
(PID.TID 0000.0001) %MON forcing_fu_mean              =   1.9947960912656E-02
(PID.TID 0000.0001) %MON forcing_fu_sd                =   1.0113823229809E-01
(PID.TID 0000.0001) %MON forcing_fu_del2              =   8.1500595497074E-04
(PID.TID 0000.0001) %MON forcing_fv_max               =   1.8291634122531E-01
(PID.TID 0000.0001) %MON forcing_fv_min               =  -1.7970077792803E-01
(PID.TID 0000.0001) %MON forcing_fv_mean              =  -7.3836687505524E-03
(PID.TID 0000.0001) %MON forcing_fv_sd                =   4.1110049658616E-02
(PID.TID 0000.0001) %MON forcing_fv_del2              =   4.7130886411290E-04
(PID.TID 0000.0001) %MON trAdv_CFL_u_max              =   4.2306193156918E-02
(PID.TID 0000.0001) %MON trAdv_CFL_v_max              =   3.0026561924466E-02
(PID.TID 0000.0001) %MON trAdv_CFL_w_max              =   5.3916433166151E-02
(PID.TID 0000.0001) %MON advcfl_uvel_max              =   4.3643332347191E-02
(PID.TID 0000.0001) %MON advcfl_vvel_max              =   2.9854484914797E-02
(PID.TID 0000.0001) %MON advcfl_wvel_max              =   6.1851671945589E-02
(PID.TID 0000.0001) %MON advcfl_W_hf_max              =   6.6399589000412E-02
(PID.TID 0000.0001) %MON pe_b_mean                    =   1.0360391838703E-03
(PID.TID 0000.0001) %MON ke_max                       =   1.8145401118636E-02
(PID.TID 0000.0001) %MON ke_mean                      =   2.2463443113662E-04
(PID.TID 0000.0001) %MON ke_vol                       =   1.3226782436723E+18
(PID.TID 0000.0001) %MON vort_r_min                   =  -4.0772656493761E-07
(PID.TID 0000.0001) %MON vort_r_max                   =   4.2675866537915E-07
(PID.TID 0000.0001) %MON vort_a_mean                  =  -2.5274806627897E-05
(PID.TID 0000.0001) %MON vort_a_sd                    =   7.3604641662963E-05
(PID.TID 0000.0001) %MON vort_p_mean                  =  -3.1845654829853E-05
(PID.TID 0000.0001) %MON vort_p_sd                    =   1.3162585791174E-04
(PID.TID 0000.0001) %MON surfExpan_theta_mean         =  -2.8986521789672E-07
(PID.TID 0000.0001) %MON surfExpan_salt_mean          =   8.0808853355676E-08
(PID.TID 0000.0001) // =======================================================
(PID.TID 0000.0001) // End MONITOR dynamic field statistics
(PID.TID 0000.0001) // =======================================================
(PID.TID 0000.0001) // =======================================================
(PID.TID 0000.0001) // Field Current uVel   at iteration         80
(PID.TID 0000.0001) // CMIN =         -1.271472564744340E-01
(PID.TID 0000.0001) // CMAX =          1.640981282889669E-01
(PID.TID 0000.0001) // CINT =          1.078686610234818E-02
(PID.TID 0000.0001) // SYMBOLS (CMIN->CMAX): -abcdefghijklmnopqrstuvwxyz+
(PID.TID 0000.0001) //                  0.0: .
(PID.TID 0000.0001) // RANGE I (Lo:Hi:Step):(     1:    90:     1)
(PID.TID 0000.0001) // RANGE J (Lo:Hi:Step):(    40:     1:    -1)
(PID.TID 0000.0001) // RANGE K (Lo:Hi:Step):(   1:   1:   1)
(PID.TID 0000.0001) // =======================================================
(PID.TID 0000.0001) K =   1
(PID.TID 0000.0001)                I=10      I=20      I=30      I=40      I=50      I=60      I=70      I=80      I=90
(PID.TID 0000.0001) |--J--|123456789|123456789|123456789|123456789|123456789|123456789|123456789|123456789|123456789|
(PID.TID 0000.0001)     40 kllkk..lllllkkkkkkl...................................................................kkkk
(PID.TID 0000.0001)     39 lmmmllkjjjjijl....l......................................................lll.........jjjjk
(PID.TID 0000.0001)     38 lmmmlkjkkllll............................................................llkl.......iiijkl
(PID.TID 0000.0001)     37 mmm...................................................................l....kk....iigi..klm
(PID.TID 0000.0001)     36 nn..........................................kkk.....................lllmmmmkjj..ikjjlkklmn
(PID.TID 0000.0001)     35 nm..................................lll...kkjkkk....kkkk............kl.....lklllllmnmmnpqo
(PID.TID 0000.0001)     34 ....................................kkk..lkkkkjj..mlllllk...................lmmnoooopoom..
(PID.TID 0000.0001)     33 .....................................jmolkkkllmmmmmnnnoomkj..................kkoqrrrqpolk.
(PID.TID 0000.0001)     32 .....................................hijjklmnoooooooooooonm.................mjkprrrqponnn.
(PID.TID 0000.0001)     31 .....................................ikmmnopppppppoooonnnnn...............lnljorrqponnnm..
(PID.TID 0000.0001)     30 ....................................opqqqqrrqqppppoonnmmmmm.............mnppppqrrponnnmm..
(PID.TID 0000.0001)     29 ..................................npsssrqqqqqqpoooonnmmmlmll............trqponoooonmnmlk..
(PID.TID 0000.0001)     28 ................................pqqqqqpooooooponnmmmmmmlllkkk..........qrpnmmmmlllllkkjk..
(PID.TID 0000.0001)     27 ...............l...............monnmmmmllmmmmmmlkjkkkkjjjihiik....lll..nnnnmlkkjiiihhi....
(PID.TID 0000.0001)     26 ...............kl............hfhiiijjiiijjjjjiiiihhiihhhhhhhhjlm..lkjkkkjkllkjiiihhggg....
(PID.TID 0000.0001)     25 ...............nnm....ll....kjjkkkjijihhiiiiihhiiiijjijjkklllmnnm....kjkkjmnnmllmmlllk....
(PID.TID 0000.0001)     24 .............opqonm..nnm....oo..mnlkkjjjkklllkkmmlmmmnnoooppoonnmnml..llnmpqqqppqqqppo....
(PID.TID 0000.0001)     23 .............nkjjjk..kjj....lk...jhggggfghhihiiklkkkllmnnnnmlkiiijjkl.....nnjjjklllmon....
(PID.TID 0000.0001)     22 m............ea-abbbeddh....k..edeecbbaabcbcddeghgggijkmnmmkjjhhhhghhi.......jfecdfikmonll
(PID.TID 0000.0001)     21 mnn.........fddcaa--cfhjl......fhnligeddfggefgghihihhiklnlljkllmmlkiii.........hbbeikmnoon
(PID.TID 0000.0001)     20 mmn........kikllljggimoon.........mlmkkinoommmmlmkkjhijjkjhgiklmmlkjij..........gcfiikklkl
(PID.TID 0000.0001)     19 ilm........ighjknliijlllkll....im......nnpppqpppnkkjhijihgfeeeffffeefh............hgfghggg
(PID.TID 0000.0001)     18 gjl........hebefhggghjiihiihhhhgk....kmmmlloponnkhhihghhgffeeeeedccdefj...........jhgffgfe
(PID.TID 0000.0001)     17 ijk..........gggfhfhjijjjjjihhh......klklijnokklljhhhhhiihhhhhiihgghijj..........kkkihhiii
(PID.TID 0000.0001)     16 jjj.......j..mjijkhikjkllklllj........llmkloomkmnnlkkjkkkjjkjjjkkjkllllk.........mmlkjiijk
(PID.TID 0000.0001)     15 gffi.....mn..onnnnlmmnnnlkllm..........llloooooopqponmnmmlllkkkkkkkjjjijk.......oonmljjiii
(PID.TID 0000.0001)     14 fdce.....jijmmnopnnommmmkkiik..........ljlnnqpqopqqpponnnnmlkkkjijiihhggj......jkmmmlkjihh
(PID.TID 0000.0001)     13 hgff.....jiijkklmmllkjjkkjihi..........lklmnqpponoonnnnnnnmmmlkiijkjihhij.....ghiklllkkkji
(PID.TID 0000.0001)     12 lkjiigaghllkkkkllmlkklmmllkjjijjji.....mmlmppoponnmllmmmnmmmnmlkklllkkkj......mmmmmmnnnnml
(PID.TID 0000.0001)     11 qponmkloqssrsssrrrrqppqrqppoonnnmll...mnnmk..qrpnnmmmmmmmnnnonmmnooonnlj.....mpqrrrrrrrqqq
(PID.TID 0000.0001)     10 utsrstvvwxzyz++zyzzywvvvvuutssrrqoml..ooono..rsponmnnnnnnnnooooppqqpponm...rpprstuvvwwvvvv
(PID.TID 0000.0001)      9 wvvvvwxwxxyxwxyxwwxyyxxwwwwvuuutssqpqqoonn..ssqpoonnnnoooooooopppqppoooo..ppnprstuvwxxxxxx
(PID.TID 0000.0001)      8 tuuvvuttuuttssrrrrqqtuvuuuuuuuuuuuuuutsrqoknnnopppqppqqqqqqppppppppoooop..igiloooprtttuutt
(PID.TID 0000.0001)      7 qqrrrqqqrqqqqpppqppoopqqqrrrrrssstuvvvuuttrpoopppqqrsttsrrqqppqqqqqqqqqsrlijmnnnmmnppppppp
(PID.TID 0000.0001)      6 nnnnnoppppppooooooonmmmnoooppqqqqqrrrrstuuusrqqqrrrstuuutsqqqqqrrrrrssstuuttsrqpnnnnnnnnnn
(PID.TID 0000.0001)      5 llllmnnnnnnmmmmmmnnmmmmmmlmnnnnnnnnnooprsttssrrrsssssrrrrqqqqqrrrrrrrsstttssvtronnnnnnnnmm
(PID.TID 0000.0001)      4 kkkkkllmmmllkkkklllllllllmmmmmmmmmmmmmnnoopppqqqpppponnnnoppqppqppppppppom...mnmmmmmmmmmll
(PID.TID 0000.0001)      3 jjijjjkkkk.............................klllllmmmmllllklllmmmnnnnmmmmlllll...lmmllkkkkkjjjj
(PID.TID 0000.0001)      2 ...........................................kklllkkkkjjjjjjjjjjkk...kkk......lmllkkkkkkk...
(PID.TID 0000.0001)      1 ..........................................................................................
(PID.TID 0000.0001) // =======================================================
(PID.TID 0000.0001) // END OF FIELD                                          =
(PID.TID 0000.0001) // =======================================================
(PID.TID 0000.0001) 
(PID.TID 0000.0001) // =======================================================
(PID.TID 0000.0001) // Field Current vVel   at iteration         80
(PID.TID 0000.0001) // CMIN =         -1.114901211270986E-01
(PID.TID 0000.0001) // CMAX =          1.536641759747096E-01
(PID.TID 0000.0001) // CINT =          9.820529522289193E-03
(PID.TID 0000.0001) // SYMBOLS (CMIN->CMAX): -abcdefghijklmnopqrstuvwxyz+
(PID.TID 0000.0001) //                  0.0: .
(PID.TID 0000.0001) // RANGE I (Lo:Hi:Step):(     1:    90:     1)
(PID.TID 0000.0001) // RANGE J (Lo:Hi:Step):(    40:     1:    -1)
(PID.TID 0000.0001) // RANGE K (Lo:Hi:Step):(   1:   1:   1)
(PID.TID 0000.0001) // =======================================================
(PID.TID 0000.0001) K =   1
(PID.TID 0000.0001)                I=10      I=20      I=30      I=40      I=50      I=60      I=70      I=80      I=90
(PID.TID 0000.0001) |--J--|123456789|123456789|123456789|123456789|123456789|123456789|123456789|123456789|123456789|
(PID.TID 0000.0001)     40 klopo.lmkjjjkj...ll..................................................................jijkk
(PID.TID 0000.0001)     39 lmnonlkjiijkm...........................................................ljjk........ijjkll
(PID.TID 0000.0001)     38 mnm.......................................................................jij......hh.nnlm
(PID.TID 0000.0001)     37 no...................................................................kj...iij...finnm.lnml
(PID.TID 0000.0001)     36 nm.........................................lmml....................lkk....igij.gdjlkklmoom
(PID.TID 0000.0001)     35 ...................................kllk..llmnmmm...ihkmo...................jhhihhiiiiilq..
(PID.TID 0000.0001)     34 ....................................lkj.mjjkkkkl.jiiijkmo...................kfhhghhhgfin..
(PID.TID 0000.0001)     33 ....................................lllljiiiijiiihghiijklnn.................tjjihhggfefjm.
(PID.TID 0000.0001)     32 ....................................hljiiiihhihghhhijjkkklm................lnkkkjiiihghl..
(PID.TID 0000.0001)     31 ....................................kmlkkjjhiihhiiijjjkkjkk..............konlkkkjjjkjklm..
(PID.TID 0000.0001)     30 ...................................lnmlkkkihhiiiihhiiiijiii............nnmnljkjjjkkkllnm..
(PID.TID 0000.0001)     29 .................................mlkkjihiigffghhhhhhhhhhihgh...........pmkjhhhhjkkjkllml..
(PID.TID 0000.0001)     28 ...............................qokjiiihhiihggiiijkkkkjjjjjhgh.........omjihhhhiklllmlk....
(PID.TID 0000.0001)     27 ..............kl..............nnmkkjkklmmlkkkllmnnnnmllllkjihj...lmnp.nmkkkkkklmnnmmlk....
(PID.TID 0000.0001)     26 ..............jml...........hjnmjjlmnopponmmllmmnnmlllkkkjjjjkll....nnmjhjkkkjklmlkjjj....
(PID.TID 0000.0001)     25 ..............npnk...lll...iik.khhklmnnnmmmlllllmllkkkkkllllmlllk....mljgfhiijllmllllk....
(PID.TID 0000.0001)     24 ............pruurml.onom...omn..likmopprrssrrrrrqqqppprssssrqoomkllk.....ollqrrrsssrnk....
(PID.TID 0000.0001)     23 ............swxwupq.oqro...ml...klptvwz+zyxyyyxxwvvuuvwxxxvvtrponnnnm.......xwwwwxwvsm....
(PID.TID 0000.0001)     22 l...........otvuspollorr......khhjosux++xvuvvvuuuutttuuuvuutrqponnnolj........qruwvvtpnnml
(PID.TID 0000.0001)     21 kkk........nnqqpmkjjjlmmj......c.hkoruuurponmnmnnnnnooppqpqqpommmmmljh.........lpvtqponmml
(PID.TID 0000.0001)     20 ijl.......mnpomjffgfghhfe......b......ojiijjhhgghijjjjijihhiihgfghiiii...........tqlkjiihh
(PID.TID 0000.0001)     19 ghj.......lnqpjedfefgggffik...hik.....nlklmkjkkjijkllkjihggffeddeffghj...........nmiggffff
(PID.TID 0000.0001)     18 hjk.......l.prmkjiijkmljiklllkl.....jmnmmnnnoqrqollnooomlkkjihggfffghik..........lnljihgfg
(PID.TID 0000.0001)     17 lll.......l.mqmkhhjkkllkkkllkj.......jkkllnpqpppolklmmmmmlllllllkjijklm.........ikmmmlllll
(PID.TID 0000.0001)     16 ooo......kn.kkihgggjighijkkjl.........jgghjllmklkjiijjjijjjjkklmlkllnonm........kiijklllmn
(PID.TID 0000.0001)     15 mmnl....ljm.jihhhfgjhfghijjik.........kghgijikkjjiiijjjiijkjjlllkkllmnonl......nihiijkkllm
(PID.TID 0000.0001)     14 mmml....iimljllkkjjljhijkkjjl.........kijklkllljjjkkkkkjkkkjkmmmmllmmmmml.....ikkllklmlmnn
(PID.TID 0000.0001)     13 nnnm....cinnmmmmmmmmllklmlkkl.........ijlnollllkkkkkkkkkkkkjkmlmnmmmmmnn.....egjjklllmmnon
(PID.TID 0000.0001)     12 mmmkjd-ddhlljjkkkkllkkkllllkkjjkno....hjlnq.ijkkkkjjjkkkkjjjjjjlnnlllmnn.....ehiiijijkklmm
(PID.TID 0000.0001)     11 mmlkjgffgikljijkkkkllkklllmlkjjjjll..jikknp.kmlkkkjjjjjklkkkkjjloonlllmo....ggkkiiiiijjkmm
(PID.TID 0000.0001)     10 onnnmljiknpomkkloomlmnnoooonnllkkknn.ljklo..sqlkkkkkkkklmnnnmllnpqonmmnp..vskloonllkjklnoo
(PID.TID 0000.0001)      9 ppqrrqnmorsrqpnmswqmoqrrrqqqpoonnmorqnmmnr.utqmmmmmmnnnoopqpoooprrqpooot.tvwqqssqpoonnoqrq
(PID.TID 0000.0001)      8 qqrqqpoopqqrqpnmpwuppqqrrrqqpppppprtspnmnrvwspoooonnoopqqqqqppppqqqppooo.orusrttqooooopprr
(PID.TID 0000.0001)      7 qponnnnoooopoonmmorrpoopppoooppppprsromlmorrqpoopppppooopoopoooopppoonnnqrqqrrrqoonnnooopq
(PID.TID 0000.0001)      6 nnlllmnnnnmmmmlllmnonmmnmmmmnooonnoponmlmnonnooooopppnmmmlmnonnnooonnnnopqpppoonmmmmmnnonn
(PID.TID 0000.0001)      5 lkkkkkllllkkkkkkkkkllkkihhijkkkkkkkllllllmmllmnoonoonmmllllmnmmmmnnnmmnooo..ijllllllmmmmll
(PID.TID 0000.0001)      4 ihghhhghij............................kiikkkklmnnmmmlllllmmlllkkkklllkkkk...klllllllllkjji
(PID.TID 0000.0001)      3 ..........................................kjkkkkllkkkkkkkkkjihhi..kkjj.....kjllkkkkkjii...
(PID.TID 0000.0001)      2 ..........................................................................................
(PID.TID 0000.0001)      1 ..........................................................................................
(PID.TID 0000.0001) // =======================================================
(PID.TID 0000.0001) // END OF FIELD                                          =
(PID.TID 0000.0001) // =======================================================
(PID.TID 0000.0001) 
(PID.TID 0000.0001) // =======================================================
(PID.TID 0000.0001) // Field Current theta  at iteration         80
(PID.TID 0000.0001) // CMIN =         -1.947674155433709E+00
(PID.TID 0000.0001) // CMAX =          3.101058736132487E+01
(PID.TID 0000.0001) // CINT =          1.220676352472540E+00
(PID.TID 0000.0001) // SYMBOLS (CMIN->CMAX): -abcdefghijklmnopqrstuvwxyz+
(PID.TID 0000.0001) //                  0.0: .
(PID.TID 0000.0001) // RANGE I (Lo:Hi:Step):(     1:    90:     1)
(PID.TID 0000.0001) // RANGE J (Lo:Hi:Step):(    40:     1:    -1)
(PID.TID 0000.0001) // RANGE K (Lo:Hi:Step):(   1:   1:   1)
(PID.TID 0000.0001) // =======================================================
(PID.TID 0000.0001) K =   1
(PID.TID 0000.0001)                I=10      I=20      I=30      I=40      I=50      I=60      I=70      I=80      I=90
(PID.TID 0000.0001) |--J--|123456789|123456789|123456789|123456789|123456789|123456789|123456789|123456789|123456789|
(PID.TID 0000.0001)     40 -bbccba-------abcddbbbbbbbbbbbbbbbbbbbbbbbbbbbbbbbbbbbbbbbbbbbbbbbbbbbbbbbbbbbbbbbbbbaaa--
(PID.TID 0000.0001)     39 bbccccbbaa----bbbddbbbbbbbbbbbbbbbbbbbbbbbbbbbbbbbbbbbbbbbbbbbbbbbbbbbbb----bbbbbbbbaaaaaa
(PID.TID 0000.0001)     38 deeeeecccbaa-bbbbbbbbbbbbbbbbbbbbbbbbbbbbbbbbbbbbbbbbbbbbbbbbbbbbbbbbbbb-----bbbbbba--abcd
(PID.TID 0000.0001)     37 ffgbbbbbbbbbbbbbbbbbbbbbbbbbbbbbbbbbbbbbbbbbbbbbbbbbbbbbbbbbbbbbbbbbbbbbbba-abbbbaeeebcdde
(PID.TID 0000.0001)     36 ggbbbbbbbbbbbbbbbbbbbbbbbbbbbbbbbbbbbbbbbbbba--bbbbbbbbbbbbbbbbbbbbcccbbaaabacbceffghhhggg
(PID.TID 0000.0001)     35 ffbbbbbbbbbbbbbbbbbbbbbbbbbbbbbbbbb----bbabcccb-bbbddeefbbbbbbbbbbbbbbbbbbbcddddeffhhiiihg
(PID.TID 0000.0001)     34 bbbbbbbbbbbbbbbbbbbbbbbbbbbbbbbbbbb----bacccccccbccedefffbbbbbbbbbbbbbbbbbbbabdeefghiijibb
(PID.TID 0000.0001)     33 bbbbbbbbbbbbbbbbbbbbbbbbbbbbbbbbbbbb--abbcccccdddeeeefffgghbbbbbbbbbbbbbbbbbaacfhijjkkjjjb
(PID.TID 0000.0001)     32 bbbbbbbbbbbbbbbbbbbbbbbbbbbbbbbbbbbb-abbccddddeeffggggghhhibbbbbbbbbbbbbbbbdcaaikllllkkkjb
(PID.TID 0000.0001)     31 bbbbbbbbbbbbbbbbbbbbbbbbbbbbbbbbbbbbdeefggghhihhhihiijjjjjjbbbbbbbbbbbbbbhilkgjlmmmmmlllbb
(PID.TID 0000.0001)     30 bbbbbbbbbbbbbbbbbbbbbbbbbbbbbbbbbbbkjjjjjkkkkkkkkkkkllmmmllbbbbbbbbbbbbmmmoooooooooonnnnbb
(PID.TID 0000.0001)     29 bbbbbbbbbbbbbbbbbbbbbbbbbbbbbbbbbnnnnnnmmnnnnnnnnnnnnooonnmmbbbbbbbbbbbopqqqqpppppppoooobb
(PID.TID 0000.0001)     28 bbbbbbbbbbbbbbbbbbbbbbbbbbbbbbbmopppppoopppppppppppppqqpponnnbbbbbbbbbqrrrrrrqqqqqqpppppbb
(PID.TID 0000.0001)     27 bbbbbbbbbbbbbbuubbbbbbbbbbbbbbqqrrrrrrrrrssssssssssrrrrrqqpoppbbbrrrsbstttttttssssrrqqbbbb
(PID.TID 0000.0001)     26 bbbbbbbbbbbbbbuttbbbbbbbbbbbtstttttuuuuuuuuuuuuttttttssrrrqqqrsubstuvuuuuuuuuutttsrrqqbbbb
(PID.TID 0000.0001)     25 bbbbbbbbbbbbbbuuvvbbbwvwbbbuuvvvvvvwwwwwvvvvvvvuuuuuttttssssstuvwbbbvvvvvvvuuuuutssrqqbbbb
(PID.TID 0000.0001)     24 bbbbbbbbbbbbvvvwwxybwwwxbbbwwwbwwwwxwwwwwwvvvvvvvvvvvvvvvvvvvvwwwvvwbwvvvvvuuuuutttttsbbbb
(PID.TID 0000.0001)     23 bbbbbbbbbbbbwwwxxyybwxxxbbbxwwbbwxxxxxxxxxxwwwwwwwwwwwwwwwwwwvwwwwwwvbbbbwvvvvvvvvvvvwbbbb
(PID.TID 0000.0001)     22 wbbbbbbbbbbbwwwxxyyyxxyybbbxxbzyxxxyyxyyyyxxxxxxxxxxxxxwwwwwwwwwwwwvvwbbbbbbxwwwwxxxxyyyxw
(PID.TID 0000.0001)     21 wvvbbbbbbbbxxxxxxxyyyzz++bbbbbzyzzzzyzzzzzzyyzyzyzyyyyyxxxxxxxxxxxwvvvbbbbbbbbxxxyyyyzzyxw
(PID.TID 0000.0001)     20 wwvbbbbbbbyyyyyyyyyzzzzz+bbbbbbzbzzzzz+++++zzzzzzzzzyyyyxxxxxxxxxxxwwvbbbbbbbbbyyyyyyyyxxw
(PID.TID 0000.0001)     19 vvwbbbbbbbzzzyyyyyyyyyzyzzybbbzzzbbbbbz+zz++zzzzzzzzyyyxxxxxwwwvvwwvvvbbbbbbbbbbbyxxwwwvwv
(PID.TID 0000.0001)     18 vuubbbbbbbzzyxxxyyyyyyyyyyzzzz+zzbbb++zzzz+zzzzzzzzzyyyyxxxxwwwvvvvvuutbbbbbbbbbbyxxwwvvwv
(PID.TID 0000.0001)     17 uutbbbbbbbzbyxxxxxxxyyyyyyyyyzzbbbbbzzyyzzzzzzzzzzzzyyxxxxxxwwwvuvvuttvbbbbbbbbbxyyxxvuvvv
(PID.TID 0000.0001)     16 utsbbbbbbyzbyxxxxwwwxxwwwwxxxzbbbbbbbxxxyyyyyyyyyyyyyyxxxxxxxwwwvvvuutstbbbbbbbbxyyyxwvvvu
(PID.TID 0000.0001)     15 tsrrbbbbwxxbwxwwwwwvwwwvvuvvxbbbbbbbbbvwwxxxxxxxxxxxxxxxxxyxxwwwwvuuttssrbbbbbbxxxxxxxwwvu
(PID.TID 0000.0001)     14 tsrqbbbbwxwvwwwvwwwvuuuuttttubbbbbbbbbvvvwwwwwwwwwxxxxxwxxxxxwwwvvvutssssbbbbbvwxxxxxxwwvu
(PID.TID 0000.0001)     13 utsqbbbbvxwvwwvuvvvvuuutsssssbbbbbbbbbuvvvvvvvvvvvuvvvwwwwwxxwvvvuuuussspbbbbvvwwwwwwwwvvu
(PID.TID 0000.0001)     12 sssstsqsuvutuutssssstutrrssrrqqrrqbbbbtuuutttttsststttttttuvuutttsstssrrbbbbbtvvvutuuuuttt
(PID.TID 0000.0001)     11 qpppqqrsrsrqrsrqqqppprrppqppppqqqqqbbssssssbrrrqrrrrrrrrrrssqqrrrqrrrrqpbbbboqsssrrrsrrrqq
(PID.TID 0000.0001)     10 mmllmnopppoooponnmnnnnnmmmmllnnoopoobqrqqqqbpqqqqqqpppqpppppoopoooooopoobbopppppooooopppon
(PID.TID 0000.0001)      9 jjjiijjkkjjkkkkjjiijkjjiiijjijkklmnmmnooopbnnoooooooooooonmmmmmnmmllmmmmbmmnnnmmlllkklllkj
(PID.TID 0000.0001)      8 ggggggghhgghhiiihghhhhhggghhhhijjjjjjkkllmmllllllllmmmllllkkkjkkkkkjkklkbkklkkjjiiiihihggf
(PID.TID 0000.0001)      7 eeeeffffgggffggggfffffeeeffggggghhhghhijjjjjjjjkkjjjiiiiiiiiiiiiiiiiiijjiijiiihhgffffffeee
(PID.TID 0000.0001)      6 ddddeeeeeeeeeefeffeeeeeffeeeddefffeffggghhhhhhhhihggffggggggffffgghhhhhhhhhhhgffeeeeeddddd
(PID.TID 0000.0001)      5 ddddddddddeeeeeeeeedddeedddddeeeeeeeeeeffffffffeffeddeeeeeeeeeeeeeefffffeffeeeeddddddddccd
(PID.TID 0000.0001)      4 ddddddcccdccccccccccccccbbbcccccccbbccccddddddcccddddddddddccdddddddddddddbbbbbbcccccccccd
(PID.TID 0000.0001)      3 ccccbbbaaabbbbbbbbbbbbbbbbbbbbbbbbbbbbbbaaabbbbbbcccccbbbbbbbbbbbbbbbbbbbbbbbaaabbccccbbbb
(PID.TID 0000.0001)      2 bbbbbbbbbbbbbbbbbbbbbbbbbbbbbbbbbbbbbbbbbbaabbbbbbbbbaaaaaaaaaaabbaaaabbbbbaaaaaabbbbbbbbb
(PID.TID 0000.0001)      1 bbbbbbbbbbbbbbbbbbbbbbbbbbbbbbbbbbbbbbbbbbbbbbbbbbbbbbbbbbbbbbbbbbbbbbbbbbbbbbbbbbbbbbbbbb
(PID.TID 0000.0001) // =======================================================
(PID.TID 0000.0001) // END OF FIELD                                          =
(PID.TID 0000.0001) // =======================================================
(PID.TID 0000.0001) 
(PID.TID 0000.0001) // =======================================================
(PID.TID 0000.0001) // Field Current etaN   at iteration         80
(PID.TID 0000.0001) // CMIN =         -2.418809298258993E+00
(PID.TID 0000.0001) // CMAX =          1.313164787980678E+00
(PID.TID 0000.0001) // CINT =          1.382212624533211E-01
(PID.TID 0000.0001) // SYMBOLS (CMIN->CMAX): -abcdefghijklmnopqrstuvwxyz+
(PID.TID 0000.0001) //                  0.0: .
(PID.TID 0000.0001) // RANGE I (Lo:Hi:Step):(    -1:    92:     1)
(PID.TID 0000.0001) // RANGE J (Lo:Hi:Step):(    42:    -1:    -1)
(PID.TID 0000.0001) // RANGE K (Lo:Hi:Step):(   1:   1:   1)
(PID.TID 0000.0001) // =======================================================
(PID.TID 0000.0001) K =   1
(PID.TID 0000.0001)                I=8       I=18      I=28      I=38      I=48      I=58      I=68      I=78      I=88
(PID.TID 0000.0001) |--J--|101234567|901234567|901234567|901234567|901234567|901234567|901234567|901234567|901234567|9012
(PID.TID 0000.0001)     42 ............................................ffffggggggggggggfffffg..hhhh.....-aabbbbbbbaa.....
(PID.TID 0000.0001)     41 ..............................................................................................
(PID.TID 0000.0001)     40 eeddeee.iihhhhgggghhh..................................................................deeeedd
(PID.TID 0000.0001)     39 eeeeeefgggffeeee...hh.....................................................hggg........eeeeeeee
(PID.TID 0000.0001)     38 eeeeefffffeeedd...........................................................hgggf......eddeeeeee
(PID.TID 0000.0001)     37 eeeef..................................................................jj...gfe...ccbcc.eeeeee
(PID.TID 0000.0001)     36 eeef.........................................ssss....................jjiiihgfffe.ecbccdddeeeef
(PID.TID 0000.0001)     35 ffff.................................uvvv..sssssss...srrrr...........iii....hfeeddcccdddeeffff
(PID.TID 0000.0001)     34 .....................................uuuv.ttssssrr.srrqqrrs..................hhfeddddeeffh....
(PID.TID 0000.0001)     33 h.....................................uuuuttsssssrrrrrrrrsstu.................jhgffffgggggh...
(PID.TID 0000.0001)     32 i.....................................tttttttsssssssssssstttt................fjihhhhhhhhhhi...
(PID.TID 0000.0001)     31 ......................................rstttttttttttttttttuuuu..............fhiiiiiiiiiihhh....
(PID.TID 0000.0001)     30 .....................................stuuuuuvuuuuuuuuuuuuvvuu............eggijkkkkjjjjiiii....
(PID.TID 0000.0001)     29 ...................................vvvwwwwwwxwwwwwvvvvvvvvvvuu...........hijkklkkkkkjjjiii....
(PID.TID 0000.0001)     28 .................................xxxyyyyyyyyyyxxxxwwwwvwwwvvvuu.........kkkkllllkkkkjjjjji....
(PID.TID 0000.0001)     27 ................st..............zzzzzzzzzzzzzyyyxxxxwwwwwwwvvvuu...kkkl.lllllllkkkkkjjjj......
(PID.TID 0000.0001)     26 ................sss...........zz++zzzzzzzzzzzzyyyxxxxxxwwwwvvvvuuv.kkklmmmmmllllkkkkkjjj......
(PID.TID 0000.0001)     25 ................ssst...ttu...zzyyzzzzzzzzzzzzzyyyyxxxxxwwwwwvvvvvvv...llmmmmmllllkkkkjjj......
(PID.TID 0000.0001)     24 ..............ssssttt.uuuu...zzz.++zzzzzzzzzyyyyxxxxxxwwwwwwwvvvvvvvvv.lllllllllkkkkkkkk......
(PID.TID 0000.0001)     23 ..............ssstttu.uuuu...zzz..zyyyyyyyyyyyyxxxxxxxwwwwwwwvvvvvvvvvv....llllkkllkkkkl......
(PID.TID 0000.0001)     22 mmm...........tsstttuuuuuu...+z.zzzyyyxxxxyyyyyyxxxxxxxxxwwwwwwwvvvvvvvv......lllllllllmmmmmm.
(PID.TID 0000.0001)     21 mmmmm........uttttttttuuuuv.....+zzyyyyyyyyyyyyyxxxxxxxxxxwwwwwwwvvvvvvv........mlmmmmmmmmmmmm
(PID.TID 0000.0001)     20 llmlm.......uuutttssttttuuu......y.zzz+zyyyyyyyyxxxxxxxxwwwwwwwvvvvvvvvv.........mmmmmmmmmllml
(PID.TID 0000.0001)     19 lllmm.......uuutsssstttttuuuu...wxx.....zyyyyyyyxxxxxxxwwwwwvvvvvuuvvvuu...........nmmmmlllllm
(PID.TID 0000.0001)     18 lllll.......vuutssttttuuuuuuuuvvvxx...zzyyyyyyyyyxxxxxxwwwwwvvvvvuuuuuuuu..........nmmmlllllll
(PID.TID 0000.0001)     17 lllll.......v.vuttutuuuvuuuuuuuvv.....yyxxyyyyyyyyyxxxxxxxwwwwwwvvvvvvuuu.........onnmmmllllll
(PID.TID 0000.0001)     16 mmlll......vw.vuuuuuvuuuuuuuuuuv.......xxxxxxyyyyyyxxxxxxxxxxwwwwwvvvvvuuu........nnnnnnnnmmll
(PID.TID 0000.0001)     15 nnmmlk....tuu.uuuuuuvuuuuuutttu.........wwwxxxxxxxxxxxxxxxxxxxxxwwwwvvvuuut......mnoooooonnnmm
(PID.TID 0000.0001)     14 onnmlk....tutstuuuuuuuttuttssss.........vwwwwxxwwwwwwwxxxxxyyxyxxwwwwvvvvuu.....ooooooppooonnm
(PID.TID 0000.0001)     13 poonml....tuutttttttutttuutssss.........vvwwwvvvvvvvvvvwwwxxxxyxxxwwwwvvuut....ooooooppppppoon
(PID.TID 0000.0001)     12 poonnmmlprtutttttttttttttttssssssttt....vvvvuuuuuuuuuuvvvvvwwwwwwwwwvvvvuu.....noooooopppppoon
(PID.TID 0000.0001)     11 onnnmmnoqrsttssttssstsssttssssssssttt..uuuuuv.tutttttuuuvvvvvvvvwwwvvvvuuu....kmmnnnnnooooonnn
(PID.TID 0000.0001)     10 mmllllmmnoppppopqqqqqqrrrrrrrqqrrrssss.sttuvw.sssttttuuuvvuuuuuvvwvvuuuuuv..liklllkkllmmmnmmll
(PID.TID 0000.0001)      9 jjjjkkkkklmmlklllmmllmnoooooppppqqrsssrrsttu.srqrsttttuuuvvuuuuuuuutttttuu.llkjkkjiiiiijkkjjjj
(PID.TID 0000.0001)      8 gfggghgghiiiiiiijkljijkkllllmmmnnoopqqqqrstutqpqqrrssttttttttssttttsssstuw.nmkjjigfffffggggfgg
(PID.TID 0000.0001)      7 edddddeefffggggghhijhggghiiijjkkkllmmllmnoqqqpooopppppqqqqqqqqqqqqrqqqrrrrrpnmkjhgeeddddddeddd
(PID.TID 0000.0001)      6 cbbbbccdddeeeeefffggggffggghhiiiiiiijiijklmmnmmmmmmmmmllmmmnnnnnnoooonnonnnmkjigfeddcccccccbbb
(PID.TID 0000.0001)      5 bbbbbbccdddddddeeefffffffffggggggghhhhhhhhiiijjjjjjjiihhhiijkkkkkkkkkkkkkjihgfedcccbbbbbbbbbbb
(PID.TID 0000.0001)      4 abbbbbcccddddeeeeeeeffffffgggghhhhhgggggggggggghhggggfgggghhhhiiiiiiiiihhhhh..bbbbbbbbaaaaabbb
(PID.TID 0000.0001)      3 bbbbcccddddd............................fffffffgggffffffgggggggggghhhhhhhih..aaaaabbbaaaaabbbb
(PID.TID 0000.0001)      2 ............................................ffffggggggggggggfffffg..hhhh.....-aabbbbbbbaa.....
(PID.TID 0000.0001)      1 ..............................................................................................
(PID.TID 0000.0001)      0 eeddeee.iihhhhgggghhh..................................................................deeeedd
(PID.TID 0000.0001)     -1 eeeeeefgggffeeee...hh.....................................................hggg........eeeeeeee
(PID.TID 0000.0001) // =======================================================
(PID.TID 0000.0001) // END OF FIELD                                          =
(PID.TID 0000.0001) // =======================================================
(PID.TID 0000.0001) 
(PID.TID 0000.0001)  MDS_WRITE_FIELD: it,rec,kS,kL,kH=      80     1  15   1  15 file=U.0000000080
(PID.TID 0000.0001)  MDS_WRITE_FIELD: it,rec,kS,kL,kH=      80     1  15   1  15 file=V.0000000080
(PID.TID 0000.0001)  MDS_WRITE_FIELD: it,rec,kS,kL,kH=      80     1  15   1  15 file=T.0000000080
(PID.TID 0000.0001)  MDS_WRITE_FIELD: it,rec,kS,kL,kH=      80     1  15   1  15 file=S.0000000080
(PID.TID 0000.0001)  MDS_WRITE_FIELD: it,rec,kS,kL,kH=      80     1   1   1   1 file=Eta.0000000080
(PID.TID 0000.0001)  MDS_WRITE_FIELD: it,rec,kS,kL,kH=      80     1  15   1  15 file=W.0000000080
(PID.TID 0000.0001)  MDS_WRITE_FIELD: it,rec,kS,kL,kH=      80     1  15   1  15 file=PH.0000000080
(PID.TID 0000.0001)  MDS_WRITE_FIELD: it,rec,kS,kL,kH=      80     1   1   1   1 file=PHL.0000000080
(PID.TID 0000.0001)  MDS_WRITE_FIELD: it,rec,kS,kL,kH=      80     1   1   1   1 file=ETAtave.0000000080
(PID.TID 0000.0001)  MDS_WRITE_FIELD: it,rec,kS,kL,kH=      80     1  15   1  15 file=Ttave.0000000080
(PID.TID 0000.0001)  MDS_WRITE_FIELD: it,rec,kS,kL,kH=      80     1  15   1  15 file=Stave.0000000080
(PID.TID 0000.0001)  MDS_WRITE_FIELD: it,rec,kS,kL,kH=      80     1  15   1  15 file=uVeltave.0000000080
(PID.TID 0000.0001)  MDS_WRITE_FIELD: it,rec,kS,kL,kH=      80     1  15   1  15 file=vVeltave.0000000080
(PID.TID 0000.0001)  MDS_WRITE_FIELD: it,rec,kS,kL,kH=      80     1  15   1  15 file=wVeltave.0000000080
(PID.TID 0000.0001)  MDS_WRITE_FIELD: it,rec,kS,kL,kH=      80     1   1   1   1 file=Eta2tave.0000000080
(PID.TID 0000.0001)  MDS_WRITE_FIELD: it,rec,kS,kL,kH=      80     1  15   1  15 file=UTtave.0000000080
(PID.TID 0000.0001)  MDS_WRITE_FIELD: it,rec,kS,kL,kH=      80     1  15   1  15 file=VTtave.0000000080
(PID.TID 0000.0001)  MDS_WRITE_FIELD: it,rec,kS,kL,kH=      80     1  15   1  15 file=WTtave.0000000080
(PID.TID 0000.0001)  MDS_WRITE_FIELD: it,rec,kS,kL,kH=      80     1  15   1  15 file=UStave.0000000080
(PID.TID 0000.0001)  MDS_WRITE_FIELD: it,rec,kS,kL,kH=      80     1  15   1  15 file=VStave.0000000080
(PID.TID 0000.0001)  MDS_WRITE_FIELD: it,rec,kS,kL,kH=      80     1  15   1  15 file=WStave.0000000080
(PID.TID 0000.0001)  MDS_WRITE_FIELD: it,rec,kS,kL,kH=      80     1  15   1  15 file=TTtave.0000000080
(PID.TID 0000.0001)  MDS_WRITE_FIELD: it,rec,kS,kL,kH=      80     1  15   1  15 file=UUtave.0000000080
(PID.TID 0000.0001)  MDS_WRITE_FIELD: it,rec,kS,kL,kH=      80     1  15   1  15 file=VVtave.0000000080
(PID.TID 0000.0001)  MDS_WRITE_FIELD: it,rec,kS,kL,kH=      80     1  15   1  15 file=UVtave.0000000080
(PID.TID 0000.0001)  MDS_WRITE_FIELD: it,rec,kS,kL,kH=      80     1  15   1  15 file=Tdiftave.0000000080
(PID.TID 0000.0001)  MDS_WRITE_FIELD: it,rec,kS,kL,kH=      80     1  15   1  15 file=PhHytave.0000000080
(PID.TID 0000.0001)  MDS_WRITE_FIELD: it,rec,kS,kL,kH=      80     1   1   1   1 file=PHLtave.0000000080
(PID.TID 0000.0001)  MDS_WRITE_FIELD: it,rec,kS,kL,kH=      80     1   1   1   1 file=uFluxtave.0000000080
(PID.TID 0000.0001)  MDS_WRITE_FIELD: it,rec,kS,kL,kH=      80     1   1   1   1 file=vFluxtave.0000000080
(PID.TID 0000.0001)  MDS_WRITE_FIELD: it,rec,kS,kL,kH=      80     1   1   1   1 file=tFluxtave.0000000080
(PID.TID 0000.0001)  MDS_WRITE_FIELD: it,rec,kS,kL,kH=      80     1   1   1   1 file=sFluxtave.0000000080
(PID.TID 0000.0001)  MDS_WRITE_FIELD: it,rec,kS,kL,kH=      80     1   1   1   1 file=PHL2tave.0000000080
(PID.TID 0000.0001)  MDS_WRITE_FIELD: it,rec,kS,kL,kH=      80     1  15   1  15 file=Convtave.0000000080
(PID.TID 0000.0001) // Time-average data written, t-step        80
(PID.TID 0000.0001) 
(PID.TID 0000.0001)  MDS_WRITE_FIELD: it,rec,kS,kL,kH=      80     1  15   1  15 file=GM_Kwx-T.0000000080
(PID.TID 0000.0001)  MDS_WRITE_FIELD: it,rec,kS,kL,kH=      80     1  15   1  15 file=GM_Kwy-T.0000000080
(PID.TID 0000.0001)  MDS_WRITE_FIELD: it,rec,kS,kL,kH=      80     1  15   1  15 file=GM_Kwz-T.0000000080
(PID.TID 0000.0001)  MDS_WRITE_FIELD: it,rec,kS,kL,kH=      80     1  15   1  15 file=pickup_cd.0000000080
(PID.TID 0000.0001)  MDS_WRITE_FIELD: it,rec,kS,kL,kH=      80     2  15   1  15 file=pickup_cd.0000000080
(PID.TID 0000.0001)  MDS_WRITE_FIELD: it,rec,kS,kL,kH=      80     3  15   1  15 file=pickup_cd.0000000080
(PID.TID 0000.0001)  MDS_WRITE_FIELD: it,rec,kS,kL,kH=      80     4  15   1  15 file=pickup_cd.0000000080
(PID.TID 0000.0001)  MDS_WRITE_FIELD: it,rec,kS,kL,kH=      80    61   1   1   1 file=pickup_cd.0000000080
(PID.TID 0000.0001)  MDS_WRITE_FIELD: it,rec,kS,kL,kH=      80    -1  15   1  15 file=pickup.0000000080
(PID.TID 0000.0001)  MDS_WRITE_FIELD: it,rec,kS,kL,kH=      80    -2  15   1  15 file=pickup.0000000080
(PID.TID 0000.0001)  MDS_WRITE_FIELD: it,rec,kS,kL,kH=      80    -3  15   1  15 file=pickup.0000000080
(PID.TID 0000.0001)  MDS_WRITE_FIELD: it,rec,kS,kL,kH=      80    -4  15   1  15 file=pickup.0000000080
(PID.TID 0000.0001)  MDS_WRITE_FIELD: it,rec,kS,kL,kH=      80    -5  15   1  15 file=pickup.0000000080
(PID.TID 0000.0001)  MDS_WRITE_FIELD: it,rec,kS,kL,kH=      80    -6  15   1  15 file=pickup.0000000080
(PID.TID 0000.0001)  MDS_WRITE_FIELD: it,rec,kS,kL,kH=      80    -7  15   1  15 file=pickup.0000000080
(PID.TID 0000.0001)  MDS_WRITE_FIELD: it,rec,kS,kL,kH=      80    -8  15   1  15 file=pickup.0000000080
(PID.TID 0000.0001)  MDS_WRITE_FIELD: it,rec,kS,kL,kH=      80  -121   1   1   1 file=pickup.0000000080
(PID.TID 0000.0001)  MDS_WRITE_FIELD: it,rec,kS,kL,kH=      80  -122   1   1   1 file=pickup.0000000080
(PID.TID 0000.0001)  MDS_WRITE_FIELD: it,rec,kS,kL,kH=      80  -123   1   1   1 file=pickup.0000000080
(PID.TID 0000.0001) %CHECKPOINT        80 0000000080
 EXTERNAL_FIELDS_LOAD,        80 : iP,iLd,i0,i1=    3    4    3    4 ; Wght=  0.8333333333  0.1666666667
 EXTERNAL_FIELDS_LOAD: (fu0,1),fu,fv= -2.7199E-02 -3.7252E-02 -2.8874E-02 -6.3511E-03
 EXTERNAL_FIELDS_LOAD: SST,SSS,Q,E-P= -1.4736E-01  3.4577E+01  1.9685E+02  8.8622E-06
DEBUG_STATS_RL:          Uvel (THERMODYNAMICS)  min= -1.27147256474434E-01
DEBUG_STATS_RL:          Uvel (THERMODYNAMICS)  max=  1.64098128288967E-01
DEBUG_STATS_RL:          Uvel (THERMODYNAMICS) mean=  6.48095823294060E-03
DEBUG_STATS_RL:          Uvel (THERMODYNAMICS) S.D.=  2.57874816636077E-02
DEBUG_STATS_RL:          Vvel (THERMODYNAMICS)  min= -1.15041218300500E-01
DEBUG_STATS_RL:          Vvel (THERMODYNAMICS)  max=  1.53664175974710E-01
DEBUG_STATS_RL:          Vvel (THERMODYNAMICS) mean=  1.00518489825020E-03
DEBUG_STATS_RL:          Vvel (THERMODYNAMICS) S.D.=  1.55657824096931E-02
DEBUG_STATS_RL:          Wvel (THERMODYNAMICS)  min= -1.23047873120591E-04
DEBUG_STATS_RL:          Wvel (THERMODYNAMICS)  max=  2.61294678936807E-04
DEBUG_STATS_RL:          Wvel (THERMODYNAMICS) mean=  1.67032573072422E-08
DEBUG_STATS_RL:          Wvel (THERMODYNAMICS) S.D.=  1.31530588236110E-05
DEBUG_STATS_RL:         Theta (THERMODYNAMICS)  min= -1.94623164782780E+00
DEBUG_STATS_RL:         Theta (THERMODYNAMICS)  max=  3.10322274038544E+01
DEBUG_STATS_RL:         Theta (THERMODYNAMICS) mean=  3.25092401455880E+00
DEBUG_STATS_RL:         Theta (THERMODYNAMICS) S.D.=  5.88651346410688E+00
DEBUG_STATS_RL:          Salt (THERMODYNAMICS)  min=  3.00000000000000E-02
DEBUG_STATS_RL:          Salt (THERMODYNAMICS)  max=  3.74949601942743E+01
DEBUG_STATS_RL:          Salt (THERMODYNAMICS) mean=  1.88748254164814E+01
DEBUG_STATS_RL:          Salt (THERMODYNAMICS) S.D.=  1.73003714470866E+01
DEBUG_STATS_RL:         GtNm1 (THERMODYNAMICS)  min= -3.27493079816394E-06
DEBUG_STATS_RL:         GtNm1 (THERMODYNAMICS)  max=  2.15262857548481E-06
DEBUG_STATS_RL:         GtNm1 (THERMODYNAMICS) mean= -1.80360050946733E-11
DEBUG_STATS_RL:         GtNm1 (THERMODYNAMICS) S.D.=  1.66357502991648E-07
DEBUG_STATS_RL:         GsNm1 (THERMODYNAMICS)  min= -3.04128304858072E-07
DEBUG_STATS_RL:         GsNm1 (THERMODYNAMICS)  max=  2.37406210719812E-07
DEBUG_STATS_RL:         GsNm1 (THERMODYNAMICS) mean= -1.10945142016589E-11
DEBUG_STATS_RL:         GsNm1 (THERMODYNAMICS) S.D.=  1.51566398893452E-08
DEBUG_STATS_RL:                EtaN (DYNAMICS)  min= -2.41880929825899E+00
DEBUG_STATS_RL:                EtaN (DYNAMICS)  max=  1.31316478798068E+00
DEBUG_STATS_RL:                EtaN (DYNAMICS) mean= -2.23531369083128E-01
DEBUG_STATS_RL:                EtaN (DYNAMICS) S.D.=  9.83945090071950E-01
DEBUG_STATS_RL:                Uvel (DYNAMICS)  min= -1.27147256474434E-01
DEBUG_STATS_RL:                Uvel (DYNAMICS)  max=  1.64098128288967E-01
DEBUG_STATS_RL:                Uvel (DYNAMICS) mean=  6.48095823294060E-03
DEBUG_STATS_RL:                Uvel (DYNAMICS) S.D.=  2.57874816636077E-02
DEBUG_STATS_RL:                Vvel (DYNAMICS)  min= -1.15041218300500E-01
DEBUG_STATS_RL:                Vvel (DYNAMICS)  max=  1.53664175974710E-01
DEBUG_STATS_RL:                Vvel (DYNAMICS) mean=  1.00518489825020E-03
DEBUG_STATS_RL:                Vvel (DYNAMICS) S.D.=  1.55657824096931E-02
DEBUG_STATS_RL:                Wvel (DYNAMICS)  min= -1.23047873120591E-04
DEBUG_STATS_RL:                Wvel (DYNAMICS)  max=  2.61294678936807E-04
DEBUG_STATS_RL:                Wvel (DYNAMICS) mean=  1.67032573072422E-08
DEBUG_STATS_RL:                Wvel (DYNAMICS) S.D.=  1.31530588236110E-05
DEBUG_STATS_RL:               Theta (DYNAMICS)  min= -1.94623164782780E+00
DEBUG_STATS_RL:               Theta (DYNAMICS)  max=  3.10322274038544E+01
DEBUG_STATS_RL:               Theta (DYNAMICS) mean=  3.25092401455880E+00
DEBUG_STATS_RL:               Theta (DYNAMICS) S.D.=  5.88651346410688E+00
DEBUG_STATS_RL:                Salt (DYNAMICS)  min=  3.00000000000000E-02
DEBUG_STATS_RL:                Salt (DYNAMICS)  max=  3.74949601942743E+01
DEBUG_STATS_RL:                Salt (DYNAMICS) mean=  1.88748254164814E+01
DEBUG_STATS_RL:                Salt (DYNAMICS) S.D.=  1.73003714470866E+01
DEBUG_STATS_RL:                  Gu (DYNAMICS)  min= -1.26486597158991E-01
DEBUG_STATS_RL:                  Gu (DYNAMICS)  max=  1.70441146567311E-01
DEBUG_STATS_RL:                  Gu (DYNAMICS) mean=  6.53751631213068E-03
DEBUG_STATS_RL:                  Gu (DYNAMICS) S.D.=  2.60816259955551E-02
DEBUG_STATS_RL:                  Gv (DYNAMICS)  min= -1.20505254169755E-01
DEBUG_STATS_RL:                  Gv (DYNAMICS)  max=  1.54017507789391E-01
DEBUG_STATS_RL:                  Gv (DYNAMICS) mean=  3.64672192863425E-03
DEBUG_STATS_RL:                  Gv (DYNAMICS) S.D.=  1.69499050602530E-02
DEBUG_STATS_RL:               GuNm1 (DYNAMICS)  min= -1.15368973285495E-05
DEBUG_STATS_RL:               GuNm1 (DYNAMICS)  max=  9.30240550895110E-06
DEBUG_STATS_RL:               GuNm1 (DYNAMICS) mean=  1.09683502724438E-08
DEBUG_STATS_RL:               GuNm1 (DYNAMICS) S.D.=  1.23857713684509E-06
DEBUG_STATS_RL:               GvNm1 (DYNAMICS)  min= -9.64028392592619E-06
DEBUG_STATS_RL:               GvNm1 (DYNAMICS)  max=  1.54958185183253E-05
DEBUG_STATS_RL:               GvNm1 (DYNAMICS) mean=  7.37847200423659E-07
DEBUG_STATS_RL:               GvNm1 (DYNAMICS) S.D.=  2.62950149976958E-06
DEBUG_STATS_RL:               GtNm1 (DYNAMICS)  min= -3.27493079816394E-06
DEBUG_STATS_RL:               GtNm1 (DYNAMICS)  max=  2.15262857548481E-06
DEBUG_STATS_RL:               GtNm1 (DYNAMICS) mean= -1.80360050946733E-11
DEBUG_STATS_RL:               GtNm1 (DYNAMICS) S.D.=  1.66357502991648E-07
DEBUG_STATS_RL:               GsNm1 (DYNAMICS)  min= -3.04128304858072E-07
DEBUG_STATS_RL:               GsNm1 (DYNAMICS)  max=  2.37406210719812E-07
DEBUG_STATS_RL:               GsNm1 (DYNAMICS) mean= -1.10945142016589E-11
DEBUG_STATS_RL:               GsNm1 (DYNAMICS) S.D.=  1.51566398893452E-08
DEBUG_STATS_RL:    cg2d_b (SOLVE_FOR_PRESSURE)  min= -2.69480162013213E+04
DEBUG_STATS_RL:    cg2d_b (SOLVE_FOR_PRESSURE)  max=  3.00058881374420E+04
DEBUG_STATS_RL:    cg2d_b (SOLVE_FOR_PRESSURE) mean=  5.29910929113702E+00
DEBUG_STATS_RL:    cg2d_b (SOLVE_FOR_PRESSURE) S.D.=  4.19692423312166E+03
 cg2d: Sum(rhs),rhsMax =   4.08834357869801E-01  1.97086707140360E+00
(PID.TID 0000.0001)  cg2d: iter=     1 ; resid.=  1.74625203069982E-01
(PID.TID 0000.0001)  cg2d: iter=     2 ; resid.=  1.30083738372253E-01
(PID.TID 0000.0001)  cg2d: iter=     3 ; resid.=  1.24167327485562E-01
(PID.TID 0000.0001)  cg2d: iter=     4 ; resid.=  1.13181157735880E-01
(PID.TID 0000.0001)  cg2d: iter=     5 ; resid.=  8.47327768460967E-02
(PID.TID 0000.0001)  cg2d: iter=     6 ; resid.=  6.92290459687470E-02
(PID.TID 0000.0001)  cg2d: iter=     7 ; resid.=  6.18320142297467E-02
(PID.TID 0000.0001)  cg2d: iter=     8 ; resid.=  5.58214386713167E-02
(PID.TID 0000.0001)  cg2d: iter=     9 ; resid.=  4.59446444935872E-02
(PID.TID 0000.0001)  cg2d: iter=    10 ; resid.=  3.88426270128079E-02
(PID.TID 0000.0001)  cg2d: iter=    11 ; resid.=  3.13974874809234E-02
(PID.TID 0000.0001)  cg2d: iter=    12 ; resid.=  2.68515283277701E-02
(PID.TID 0000.0001)  cg2d: iter=    13 ; resid.=  2.11252280117656E-02
(PID.TID 0000.0001)  cg2d: iter=    14 ; resid.=  1.73032600171033E-02
(PID.TID 0000.0001)  cg2d: iter=    15 ; resid.=  1.41502665189422E-02
(PID.TID 0000.0001)  cg2d: iter=    16 ; resid.=  1.09790626842441E-02
(PID.TID 0000.0001)  cg2d: iter=    17 ; resid.=  9.43833124641628E-03
(PID.TID 0000.0001)  cg2d: iter=    18 ; resid.=  8.14832784654694E-03
(PID.TID 0000.0001)  cg2d: iter=    19 ; resid.=  6.59641973458738E-03
(PID.TID 0000.0001)  cg2d: iter=    20 ; resid.=  5.94067883581291E-03
(PID.TID 0000.0001)  cg2d: iter=    21 ; resid.=  4.84755510605597E-03
(PID.TID 0000.0001)  cg2d: iter=    22 ; resid.=  4.63308895810581E-03
(PID.TID 0000.0001)  cg2d: iter=    23 ; resid.=  3.88474129114175E-03
(PID.TID 0000.0001)  cg2d: iter=    24 ; resid.=  3.08921912941512E-03
(PID.TID 0000.0001)  cg2d: iter=    25 ; resid.=  2.51830004812527E-03
(PID.TID 0000.0001)  cg2d: iter=    26 ; resid.=  2.10254205189684E-03
(PID.TID 0000.0001)  cg2d: iter=    27 ; resid.=  1.85759895361033E-03
(PID.TID 0000.0001)  cg2d: iter=    28 ; resid.=  1.60408479553289E-03
(PID.TID 0000.0001)  cg2d: iter=    29 ; resid.=  1.35925467678842E-03
(PID.TID 0000.0001)  cg2d: iter=    30 ; resid.=  1.07497468498436E-03
(PID.TID 0000.0001)  cg2d: iter=    31 ; resid.=  8.34793136394462E-04
(PID.TID 0000.0001)  cg2d: iter=    32 ; resid.=  6.45737710397791E-04
(PID.TID 0000.0001)  cg2d: iter=    33 ; resid.=  5.31430229650636E-04
(PID.TID 0000.0001)  cg2d: iter=    34 ; resid.=  4.33652087862361E-04
(PID.TID 0000.0001)  cg2d: iter=    35 ; resid.=  3.75254303358666E-04
(PID.TID 0000.0001)  cg2d: iter=    36 ; resid.=  3.26639591531241E-04
(PID.TID 0000.0001)  cg2d: iter=    37 ; resid.=  2.76914804337419E-04
(PID.TID 0000.0001)  cg2d: iter=    38 ; resid.=  2.23561962453986E-04
(PID.TID 0000.0001)  cg2d: iter=    39 ; resid.=  1.93446171692577E-04
(PID.TID 0000.0001)  cg2d: iter=    40 ; resid.=  1.65595315446633E-04
(PID.TID 0000.0001)  cg2d: iter=    41 ; resid.=  1.44325526223716E-04
(PID.TID 0000.0001)  cg2d: iter=    42 ; resid.=  1.25723106728720E-04
(PID.TID 0000.0001)  cg2d: iter=    43 ; resid.=  1.15334745865797E-04
(PID.TID 0000.0001)  cg2d: iter=    44 ; resid.=  9.36366174210659E-05
(PID.TID 0000.0001)  cg2d: iter=    45 ; resid.=  7.38853780048556E-05
(PID.TID 0000.0001)  cg2d: iter=    46 ; resid.=  5.76514839637221E-05
(PID.TID 0000.0001)  cg2d: iter=    47 ; resid.=  4.65853571025099E-05
(PID.TID 0000.0001)  cg2d: iter=    48 ; resid.=  4.05706080209685E-05
(PID.TID 0000.0001)  cg2d: iter=    49 ; resid.=  3.23756425379481E-05
(PID.TID 0000.0001)  cg2d: iter=    50 ; resid.=  2.61579054286154E-05
(PID.TID 0000.0001)  cg2d: iter=    51 ; resid.=  2.21807407697814E-05
(PID.TID 0000.0001)  cg2d: iter=    52 ; resid.=  1.94200356983151E-05
(PID.TID 0000.0001)  cg2d: iter=    53 ; resid.=  1.80373608129518E-05
(PID.TID 0000.0001)  cg2d: iter=    54 ; resid.=  1.52663178575181E-05
(PID.TID 0000.0001)  cg2d: iter=    55 ; resid.=  1.37540615089485E-05
(PID.TID 0000.0001)  cg2d: iter=    56 ; resid.=  1.12575753643383E-05
(PID.TID 0000.0001)  cg2d: iter=    57 ; resid.=  9.35162962697540E-06
(PID.TID 0000.0001)  cg2d: iter=    58 ; resid.=  6.62222540011826E-06
(PID.TID 0000.0001)  cg2d: iter=    59 ; resid.=  4.97620401922602E-06
(PID.TID 0000.0001)  cg2d: iter=    60 ; resid.=  3.90212496947813E-06
(PID.TID 0000.0001)  cg2d: iter=    61 ; resid.=  3.02320219363691E-06
(PID.TID 0000.0001)  cg2d: iter=    62 ; resid.=  2.23712835122774E-06
(PID.TID 0000.0001)  cg2d: iter=    63 ; resid.=  1.72434121064810E-06
(PID.TID 0000.0001)  cg2d: iter=    64 ; resid.=  1.36909525713177E-06
(PID.TID 0000.0001)  cg2d: iter=    65 ; resid.=  1.15140084738928E-06
(PID.TID 0000.0001)  cg2d: iter=    66 ; resid.=  8.88808034411656E-07
(PID.TID 0000.0001)  cg2d: iter=    67 ; resid.=  7.38332746287756E-07
(PID.TID 0000.0001)  cg2d: iter=    68 ; resid.=  6.40080984873062E-07
(PID.TID 0000.0001)  cg2d: iter=    69 ; resid.=  5.67208900541127E-07
(PID.TID 0000.0001)  cg2d: iter=    70 ; resid.=  4.75594208011578E-07
(PID.TID 0000.0001)  cg2d: iter=    71 ; resid.=  3.99653047907593E-07
(PID.TID 0000.0001)  cg2d: iter=    72 ; resid.=  3.73795496533666E-07
(PID.TID 0000.0001)  cg2d: iter=    73 ; resid.=  3.20952421445117E-07
(PID.TID 0000.0001)  cg2d: iter=    74 ; resid.=  2.59565257178689E-07
(PID.TID 0000.0001)  cg2d: iter=    75 ; resid.=  2.04893321108508E-07
(PID.TID 0000.0001)  cg2d: iter=    76 ; resid.=  1.67254788675397E-07
(PID.TID 0000.0001)  cg2d: iter=    77 ; resid.=  1.39334396182199E-07
(PID.TID 0000.0001)  cg2d: iter=    78 ; resid.=  1.11499285962995E-07
(PID.TID 0000.0001)  cg2d: iter=    79 ; resid.=  9.16001165874623E-08
(PID.TID 0000.0001)  cg2d: iter=    80 ; resid.=  7.46228150204159E-08
(PID.TID 0000.0001)  cg2d: iter=    81 ; resid.=  5.87674240643172E-08
(PID.TID 0000.0001)  cg2d: iter=    82 ; resid.=  4.48249106523595E-08
(PID.TID 0000.0001)  cg2d: iter=    83 ; resid.=  3.42060062336909E-08
(PID.TID 0000.0001)  cg2d: iter=    84 ; resid.=  2.68101575601463E-08
(PID.TID 0000.0001)  cg2d: iter=    85 ; resid.=  1.83112982300318E-08
(PID.TID 0000.0001)  cg2d: iter=    86 ; resid.=  1.31959125470541E-08
(PID.TID 0000.0001)  cg2d: iter=    87 ; resid.=  1.10151628654837E-08
(PID.TID 0000.0001)  cg2d: iter=    88 ; resid.=  8.43583467409575E-09
(PID.TID 0000.0001)  cg2d: iter=    89 ; resid.=  6.89107815376373E-09
(PID.TID 0000.0001)  cg2d: iter=    90 ; resid.=  6.08427691689096E-09
(PID.TID 0000.0001)  cg2d: iter=    91 ; resid.=  5.14629034890862E-09
(PID.TID 0000.0001)  cg2d: iter=    92 ; resid.=  4.46384508117090E-09
(PID.TID 0000.0001)  cg2d: iter=    93 ; resid.=  3.32690315213805E-09
(PID.TID 0000.0001)  cg2d: iter=    94 ; resid.=  2.83593805703030E-09
(PID.TID 0000.0001)  cg2d: iter=    95 ; resid.=  2.42646148300160E-09
(PID.TID 0000.0001)  cg2d: iter=    96 ; resid.=  1.95976432705228E-09
(PID.TID 0000.0001)  cg2d: iter=    97 ; resid.=  1.67868723259638E-09
(PID.TID 0000.0001)  cg2d: iter=    98 ; resid.=  1.29967133117310E-09
(PID.TID 0000.0001)  cg2d: iter=    99 ; resid.=  1.09304854656652E-09
(PID.TID 0000.0001)  cg2d: iter=   100 ; resid.=  8.38056814470786E-10
(PID.TID 0000.0001)  cg2d: iter=   101 ; resid.=  6.29792131829272E-10
(PID.TID 0000.0001)  cg2d: iter=   102 ; resid.=  4.99131729871469E-10
(PID.TID 0000.0001)  cg2d: iter=   103 ; resid.=  3.66224991737447E-10
(PID.TID 0000.0001)  cg2d: iter=   104 ; resid.=  2.80635411233287E-10
(PID.TID 0000.0001)  cg2d: iter=   105 ; resid.=  2.26604021758550E-10
(PID.TID 0000.0001)  cg2d: iter=   106 ; resid.=  1.69678672171360E-10
(PID.TID 0000.0001)  cg2d: iter=   107 ; resid.=  1.24129280088245E-10
(PID.TID 0000.0001)  cg2d: iter=   108 ; resid.=  1.06725617185935E-10
(PID.TID 0000.0001)  cg2d: iter=   109 ; resid.=  7.65499272454366E-11
(PID.TID 0000.0001)  cg2d: iter=   110 ; resid.=  5.76468546489541E-11
(PID.TID 0000.0001)  cg2d: iter=   111 ; resid.=  4.77598002144991E-11
(PID.TID 0000.0001)  cg2d: iter=   112 ; resid.=  3.73652806311822E-11
(PID.TID 0000.0001)  cg2d: iter=   113 ; resid.=  2.87290153279244E-11
(PID.TID 0000.0001)  cg2d: iter=   114 ; resid.=  2.19103121221686E-11
(PID.TID 0000.0001)  cg2d: iter=   115 ; resid.=  1.64301081630757E-11
(PID.TID 0000.0001)  cg2d: iter=   116 ; resid.=  1.16971780239719E-11
(PID.TID 0000.0001)  cg2d: iter=   117 ; resid.=  8.93603100089923E-12
(PID.TID 0000.0001)  cg2d: iter=   118 ; resid.=  6.84070646766713E-12
(PID.TID 0000.0001)  cg2d: iter=   119 ; resid.=  5.15547529976240E-12
(PID.TID 0000.0001)  cg2d: iter=   120 ; resid.=  3.69018859953911E-12
(PID.TID 0000.0001)  cg2d: iter=   121 ; resid.=  2.80836754876949E-12
(PID.TID 0000.0001)  cg2d: iter=   122 ; resid.=  2.39262149978059E-12
(PID.TID 0000.0001)  cg2d: iter=   123 ; resid.=  1.99123443519108E-12
(PID.TID 0000.0001)  cg2d: iter=   124 ; resid.=  1.65434611623699E-12
(PID.TID 0000.0001)  cg2d: iter=   125 ; resid.=  1.31413263617287E-12
(PID.TID 0000.0001)  cg2d: iter=   126 ; resid.=  1.00627716001349E-12
(PID.TID 0000.0001)  cg2d: iter=   127 ; resid.=  6.84699143316773E-13
(PID.TID 0000.0001)  cg2d: iter=   128 ; resid.=  4.12939402766801E-13
(PID.TID 0000.0001)  cg2d: iter=   129 ; resid.=  2.69021530596543E-13
(PID.TID 0000.0001)  cg2d: iter=   130 ; resid.=  1.94269607756703E-13
(PID.TID 0000.0001)  cg2d: iter=   131 ; resid.=  1.44956652811423E-13
(PID.TID 0000.0001)  cg2d: iter=   132 ; resid.=  1.04552555830573E-13
(PID.TID 0000.0001)  cg2d: iter=   133 ; resid.=  7.46543455210373E-14
DEBUG_STATS_RL:    cg2d_x (SOLVE_FOR_PRESSURE)  min= -2.34724766465348E+01
DEBUG_STATS_RL:    cg2d_x (SOLVE_FOR_PRESSURE)  max=  1.26567265816103E+01
DEBUG_STATS_RL:    cg2d_x (SOLVE_FOR_PRESSURE) mean= -2.17838398282695E+00
DEBUG_STATS_RL:    cg2d_x (SOLVE_FOR_PRESSURE) S.D.=  9.47929979465027E+00
(PID.TID 0000.0001)      cg2d_init_res =   3.10030603915977E-01
(PID.TID 0000.0001)      cg2d_iters(min,last) =      -1     133
(PID.TID 0000.0001)      cg2d_last_res =   7.46543455210373E-14
(PID.TID 0000.0001) // =======================================================
(PID.TID 0000.0001) // Begin MONITOR dynamic field statistics
(PID.TID 0000.0001) // =======================================================
(PID.TID 0000.0001) %MON time_tsnumber                =                    81
(PID.TID 0000.0001) %MON time_secondsf                =   6.9984000000000E+06
(PID.TID 0000.0001) %MON dynstat_eta_max              =   1.2901861958828E+00
(PID.TID 0000.0001) %MON dynstat_eta_min              =  -2.3927091382808E+00
(PID.TID 0000.0001) %MON dynstat_eta_mean             =  -5.5289634774420E-03
(PID.TID 0000.0001) %MON dynstat_eta_sd               =   8.7989605920447E-01
(PID.TID 0000.0001) %MON dynstat_eta_del2             =   2.6151342082956E-03
(PID.TID 0000.0001) %MON dynstat_uvel_max             =   1.6519123001644E-01
(PID.TID 0000.0001) %MON dynstat_uvel_min             =  -1.2952986460380E-01
(PID.TID 0000.0001) %MON dynstat_uvel_mean            =   2.4104735746955E-03
(PID.TID 0000.0001) %MON dynstat_uvel_sd              =   1.9444498479281E-02
(PID.TID 0000.0001) %MON dynstat_uvel_del2            =   1.4704462790588E-04
(PID.TID 0000.0001) %MON dynstat_vvel_max             =   1.5674593635407E-01
(PID.TID 0000.0001) %MON dynstat_vvel_min             =  -1.1841570943891E-01
(PID.TID 0000.0001) %MON dynstat_vvel_mean            =  -4.9422074275298E-05
(PID.TID 0000.0001) %MON dynstat_vvel_sd              =   1.0396445312138E-02
(PID.TID 0000.0001) %MON dynstat_vvel_del2            =   9.2777981219467E-05
(PID.TID 0000.0001) %MON dynstat_wvel_max             =   2.7409535705998E-04
(PID.TID 0000.0001) %MON dynstat_wvel_min             =  -1.1613002538586E-04
(PID.TID 0000.0001) %MON dynstat_wvel_mean            =   4.5460981154649E-23
(PID.TID 0000.0001) %MON dynstat_wvel_sd              =   1.5025888524218E-05
(PID.TID 0000.0001) %MON dynstat_wvel_del2            =   1.4830429203361E-07
(PID.TID 0000.0001) %MON dynstat_theta_max            =   3.1032227403854E+01
(PID.TID 0000.0001) %MON dynstat_theta_min            =  -1.9462316478278E+00
(PID.TID 0000.0001) %MON dynstat_theta_mean           =   3.6537810736786E+00
(PID.TID 0000.0001) %MON dynstat_theta_sd             =   4.4272222766435E+00
(PID.TID 0000.0001) %MON dynstat_theta_del2           =   4.8860052482935E-03
(PID.TID 0000.0001) %MON dynstat_salt_max             =   3.7494960194274E+01
(PID.TID 0000.0001) %MON dynstat_salt_min             =   2.9932730623973E+01
(PID.TID 0000.0001) %MON dynstat_salt_mean            =   3.4748043045415E+01
(PID.TID 0000.0001) %MON dynstat_salt_sd              =   2.9666350876551E-01
(PID.TID 0000.0001) %MON dynstat_salt_del2            =   9.9666573864866E-04
(PID.TID 0000.0001) %MON dynstat_sst_max              =   3.1032227403854E+01
(PID.TID 0000.0001) %MON dynstat_sst_min              =  -1.9462316478278E+00
(PID.TID 0000.0001) %MON dynstat_sst_mean             =   1.9091483198870E+01
(PID.TID 0000.0001) %MON dynstat_sst_sd               =   9.1895569956930E+00
(PID.TID 0000.0001) %MON dynstat_sst_del2             =   2.9007824529481E-02
(PID.TID 0000.0001) %MON dynstat_sss_max              =   3.7491317615426E+01
(PID.TID 0000.0001) %MON dynstat_sss_min              =   2.9932730623973E+01
(PID.TID 0000.0001) %MON dynstat_sss_mean             =   3.4868951691586E+01
(PID.TID 0000.0001) %MON dynstat_sss_sd               =   9.8765673136524E-01
(PID.TID 0000.0001) %MON dynstat_sss_del2             =   8.2233673064084E-03
(PID.TID 0000.0001) %MON forcing_qnet_max             =   2.5098151652018E+02
(PID.TID 0000.0001) %MON forcing_qnet_min             =  -1.6171560923258E+02
(PID.TID 0000.0001) %MON forcing_qnet_mean            =  -5.2798838452964E+00
(PID.TID 0000.0001) %MON forcing_qnet_sd              =   4.2422430545569E+01
(PID.TID 0000.0001) %MON forcing_qnet_del2            =   8.1785036435017E-01
(PID.TID 0000.0001) %MON forcing_qsw_max              =   0.0000000000000E+00
(PID.TID 0000.0001) %MON forcing_qsw_min              =   0.0000000000000E+00
(PID.TID 0000.0001) %MON forcing_qsw_mean             =   0.0000000000000E+00
(PID.TID 0000.0001) %MON forcing_qsw_sd               =   0.0000000000000E+00
(PID.TID 0000.0001) %MON forcing_qsw_del2             =   0.0000000000000E+00
(PID.TID 0000.0001) %MON forcing_empmr_max            =   6.8627966716880E-05
(PID.TID 0000.0001) %MON forcing_empmr_min            =  -8.3338647982600E-05
(PID.TID 0000.0001) %MON forcing_empmr_mean           =   4.3848422954086E-07
(PID.TID 0000.0001) %MON forcing_empmr_sd             =   2.5959291357545E-05
(PID.TID 0000.0001) %MON forcing_empmr_del2           =   3.6379540965220E-07
(PID.TID 0000.0001) %MON forcing_fu_max               =   3.5326997439067E-01
(PID.TID 0000.0001) %MON forcing_fu_min               =  -3.9322178065777E-01
(PID.TID 0000.0001) %MON forcing_fu_mean              =   1.9820768815724E-02
(PID.TID 0000.0001) %MON forcing_fu_sd                =   1.0094744547946E-01
(PID.TID 0000.0001) %MON forcing_fu_del2              =   8.0814335674264E-04
(PID.TID 0000.0001) %MON forcing_fv_max               =   1.8282033999761E-01
(PID.TID 0000.0001) %MON forcing_fv_min               =  -1.7629306515058E-01
(PID.TID 0000.0001) %MON forcing_fv_mean              =  -7.3471920781794E-03
(PID.TID 0000.0001) %MON forcing_fv_sd                =   4.0771862552171E-02
(PID.TID 0000.0001) %MON forcing_fv_del2              =   4.6338645656999E-04
(PID.TID 0000.0001) %MON trAdv_CFL_u_max              =   4.3652196620132E-02
(PID.TID 0000.0001) %MON trAdv_CFL_v_max              =   2.9805966768291E-02
(PID.TID 0000.0001) %MON trAdv_CFL_w_max              =   5.7886821179846E-02
(PID.TID 0000.0001) %MON advcfl_uvel_max              =   4.6577795902369E-02
(PID.TID 0000.0001) %MON advcfl_vvel_max              =   3.0453221531012E-02
(PID.TID 0000.0001) %MON advcfl_wvel_max              =   6.4881750273924E-02
(PID.TID 0000.0001) %MON advcfl_W_hf_max              =   6.9652467205831E-02
(PID.TID 0000.0001) %MON pe_b_mean                    =   9.9074318332218E-04
(PID.TID 0000.0001) %MON ke_max                       =   1.7764136420392E-02
(PID.TID 0000.0001) %MON ke_mean                      =   2.2293675533553E-04
(PID.TID 0000.0001) %MON ke_vol                       =   1.3226782436723E+18
(PID.TID 0000.0001) %MON vort_r_min                   =  -4.0237595147357E-07
(PID.TID 0000.0001) %MON vort_r_max                   =   4.3430967741048E-07
(PID.TID 0000.0001) %MON vort_a_mean                  =  -2.5274806753221E-05
(PID.TID 0000.0001) %MON vort_a_sd                    =   7.3604627265209E-05
(PID.TID 0000.0001) %MON vort_p_mean                  =  -3.1845654987758E-05
(PID.TID 0000.0001) %MON vort_p_sd                    =   1.3162580351467E-04
(PID.TID 0000.0001) %MON surfExpan_theta_mean         =  -4.7208809305480E-07
(PID.TID 0000.0001) %MON surfExpan_salt_mean          =   1.2903145420245E-07
(PID.TID 0000.0001) // =======================================================
(PID.TID 0000.0001) // End MONITOR dynamic field statistics
(PID.TID 0000.0001) // =======================================================
 EXTERNAL_FIELDS_LOAD,        81 : iP,iLd,i0,i1=    3    4    3    4 ; Wght=  0.8000000000  0.2000000000
 EXTERNAL_FIELDS_LOAD: (fu0,1),fu,fv= -2.7199E-02 -3.7252E-02 -2.9210E-02 -7.5057E-03
 EXTERNAL_FIELDS_LOAD: SST,SSS,Q,E-P= -1.4006E-01  3.4577E+01  1.9314E+02  8.8184E-06
DEBUG_STATS_RL:          Uvel (THERMODYNAMICS)  min= -1.29529864603803E-01
DEBUG_STATS_RL:          Uvel (THERMODYNAMICS)  max=  1.65191230016436E-01
DEBUG_STATS_RL:          Uvel (THERMODYNAMICS) mean=  6.44830209048223E-03
DEBUG_STATS_RL:          Uvel (THERMODYNAMICS) S.D.=  2.56714904416431E-02
DEBUG_STATS_RL:          Vvel (THERMODYNAMICS)  min= -1.18415709438911E-01
DEBUG_STATS_RL:          Vvel (THERMODYNAMICS)  max=  1.56745936354067E-01
DEBUG_STATS_RL:          Vvel (THERMODYNAMICS) mean=  1.06476023978977E-03
DEBUG_STATS_RL:          Vvel (THERMODYNAMICS) S.D.=  1.55581309045169E-02
DEBUG_STATS_RL:          Wvel (THERMODYNAMICS)  min= -1.16130025385861E-04
DEBUG_STATS_RL:          Wvel (THERMODYNAMICS)  max=  2.74095357059982E-04
DEBUG_STATS_RL:          Wvel (THERMODYNAMICS) mean=  2.38003410773856E-08
DEBUG_STATS_RL:          Wvel (THERMODYNAMICS) S.D.=  1.31336146907124E-05
DEBUG_STATS_RL:         Theta (THERMODYNAMICS)  min= -1.94479969266501E+00
DEBUG_STATS_RL:         Theta (THERMODYNAMICS)  max=  3.10538879082109E+01
DEBUG_STATS_RL:         Theta (THERMODYNAMICS) mean=  3.25087448494135E+00
DEBUG_STATS_RL:         Theta (THERMODYNAMICS) S.D.=  5.88688825339641E+00
DEBUG_STATS_RL:          Salt (THERMODYNAMICS)  min=  3.00000000000000E-02
DEBUG_STATS_RL:          Salt (THERMODYNAMICS)  max=  3.74945798325743E+01
DEBUG_STATS_RL:          Salt (THERMODYNAMICS) mean=  1.88748251145580E+01
DEBUG_STATS_RL:          Salt (THERMODYNAMICS) S.D.=  1.73003718682782E+01
DEBUG_STATS_RL:         GtNm1 (THERMODYNAMICS)  min= -3.29490059616189E-06
DEBUG_STATS_RL:         GtNm1 (THERMODYNAMICS)  max=  2.17350516823380E-06
DEBUG_STATS_RL:         GtNm1 (THERMODYNAMICS) mean= -1.52098305194182E-10
DEBUG_STATS_RL:         GtNm1 (THERMODYNAMICS) S.D.=  1.66183080420395E-07
DEBUG_STATS_RL:         GsNm1 (THERMODYNAMICS)  min= -3.91959847858883E-07
DEBUG_STATS_RL:         GsNm1 (THERMODYNAMICS)  max=  2.54810020199604E-07
DEBUG_STATS_RL:         GsNm1 (THERMODYNAMICS) mean= -5.08771283124353E-11
DEBUG_STATS_RL:         GsNm1 (THERMODYNAMICS) S.D.=  1.52741247436695E-08
DEBUG_STATS_RL:                EtaN (DYNAMICS)  min= -2.39270913828082E+00
DEBUG_STATS_RL:                EtaN (DYNAMICS)  max=  1.29018619588280E+00
DEBUG_STATS_RL:                EtaN (DYNAMICS) mean= -2.22057490604174E-01
DEBUG_STATS_RL:                EtaN (DYNAMICS) S.D.=  9.66289479576991E-01
DEBUG_STATS_RL:                Uvel (DYNAMICS)  min= -1.29529864603803E-01
DEBUG_STATS_RL:                Uvel (DYNAMICS)  max=  1.65191230016436E-01
DEBUG_STATS_RL:                Uvel (DYNAMICS) mean=  6.44830209048223E-03
DEBUG_STATS_RL:                Uvel (DYNAMICS) S.D.=  2.56714904416431E-02
DEBUG_STATS_RL:                Vvel (DYNAMICS)  min= -1.18415709438911E-01
DEBUG_STATS_RL:                Vvel (DYNAMICS)  max=  1.56745936354067E-01
DEBUG_STATS_RL:                Vvel (DYNAMICS) mean=  1.06476023978977E-03
DEBUG_STATS_RL:                Vvel (DYNAMICS) S.D.=  1.55581309045169E-02
DEBUG_STATS_RL:                Wvel (DYNAMICS)  min= -1.16130025385861E-04
DEBUG_STATS_RL:                Wvel (DYNAMICS)  max=  2.74095357059982E-04
DEBUG_STATS_RL:                Wvel (DYNAMICS) mean=  2.38003410773856E-08
DEBUG_STATS_RL:                Wvel (DYNAMICS) S.D.=  1.31336146907124E-05
DEBUG_STATS_RL:               Theta (DYNAMICS)  min= -1.94479969266501E+00
DEBUG_STATS_RL:               Theta (DYNAMICS)  max=  3.10538879082109E+01
DEBUG_STATS_RL:               Theta (DYNAMICS) mean=  3.25087448494135E+00
DEBUG_STATS_RL:               Theta (DYNAMICS) S.D.=  5.88688825339641E+00
DEBUG_STATS_RL:                Salt (DYNAMICS)  min=  3.00000000000000E-02
DEBUG_STATS_RL:                Salt (DYNAMICS)  max=  3.74945798325743E+01
DEBUG_STATS_RL:                Salt (DYNAMICS) mean=  1.88748251145580E+01
DEBUG_STATS_RL:                Salt (DYNAMICS) S.D.=  1.73003718682782E+01
DEBUG_STATS_RL:                  Gu (DYNAMICS)  min= -1.28835840252755E-01
DEBUG_STATS_RL:                  Gu (DYNAMICS)  max=  1.70395014126020E-01
DEBUG_STATS_RL:                  Gu (DYNAMICS) mean=  6.49743703859913E-03
DEBUG_STATS_RL:                  Gu (DYNAMICS) S.D.=  2.59530412331190E-02
DEBUG_STATS_RL:                  Gv (DYNAMICS)  min= -1.23180570001625E-01
DEBUG_STATS_RL:                  Gv (DYNAMICS)  max=  1.57044315163526E-01
DEBUG_STATS_RL:                  Gv (DYNAMICS) mean=  3.64810057109772E-03
DEBUG_STATS_RL:                  Gv (DYNAMICS) S.D.=  1.69386514660786E-02
DEBUG_STATS_RL:               GuNm1 (DYNAMICS)  min= -1.15012581303217E-05
DEBUG_STATS_RL:               GuNm1 (DYNAMICS)  max=  9.27245278496588E-06
DEBUG_STATS_RL:               GuNm1 (DYNAMICS) mean=  1.15694637031053E-08
DEBUG_STATS_RL:               GuNm1 (DYNAMICS) S.D.=  1.23926835071980E-06
DEBUG_STATS_RL:               GvNm1 (DYNAMICS)  min= -9.58012499551840E-06
DEBUG_STATS_RL:               GvNm1 (DYNAMICS)  max=  1.54765389880689E-05
DEBUG_STATS_RL:               GvNm1 (DYNAMICS) mean=  7.37507202233882E-07
DEBUG_STATS_RL:               GvNm1 (DYNAMICS) S.D.=  2.62774698408830E-06
DEBUG_STATS_RL:               GtNm1 (DYNAMICS)  min= -3.29490059616189E-06
DEBUG_STATS_RL:               GtNm1 (DYNAMICS)  max=  2.17350516823380E-06
DEBUG_STATS_RL:               GtNm1 (DYNAMICS) mean= -1.52098305194182E-10
DEBUG_STATS_RL:               GtNm1 (DYNAMICS) S.D.=  1.66183080420395E-07
DEBUG_STATS_RL:               GsNm1 (DYNAMICS)  min= -3.91959847858883E-07
DEBUG_STATS_RL:               GsNm1 (DYNAMICS)  max=  2.54810020199604E-07
DEBUG_STATS_RL:               GsNm1 (DYNAMICS) mean= -5.08771283124353E-11
DEBUG_STATS_RL:               GsNm1 (DYNAMICS) S.D.=  1.52741247436695E-08
DEBUG_STATS_RL:    cg2d_b (SOLVE_FOR_PRESSURE)  min= -2.83872255371114E+04
DEBUG_STATS_RL:    cg2d_b (SOLVE_FOR_PRESSURE)  max=  3.07498692740707E+04
DEBUG_STATS_RL:    cg2d_b (SOLVE_FOR_PRESSURE) mean=  5.33239566224862E+00
DEBUG_STATS_RL:    cg2d_b (SOLVE_FOR_PRESSURE) S.D.=  4.20066467350717E+03
 cg2d: Sum(rhs),rhsMax =   4.01448729686560E-01  2.01973374441159E+00
(PID.TID 0000.0001)  cg2d: iter=     1 ; resid.=  1.75103776826353E-01
(PID.TID 0000.0001)  cg2d: iter=     2 ; resid.=  1.39824220251349E-01
(PID.TID 0000.0001)  cg2d: iter=     3 ; resid.=  1.39103089529697E-01
(PID.TID 0000.0001)  cg2d: iter=     4 ; resid.=  1.28927559826853E-01
(PID.TID 0000.0001)  cg2d: iter=     5 ; resid.=  1.00888168947182E-01
(PID.TID 0000.0001)  cg2d: iter=     6 ; resid.=  8.52726594353295E-02
(PID.TID 0000.0001)  cg2d: iter=     7 ; resid.=  7.69688167189850E-02
(PID.TID 0000.0001)  cg2d: iter=     8 ; resid.=  6.64029854066036E-02
(PID.TID 0000.0001)  cg2d: iter=     9 ; resid.=  5.17564937372677E-02
(PID.TID 0000.0001)  cg2d: iter=    10 ; resid.=  4.28669513649797E-02
(PID.TID 0000.0001)  cg2d: iter=    11 ; resid.=  3.39852407267655E-02
(PID.TID 0000.0001)  cg2d: iter=    12 ; resid.=  2.91471259924949E-02
(PID.TID 0000.0001)  cg2d: iter=    13 ; resid.=  2.27091035259007E-02
(PID.TID 0000.0001)  cg2d: iter=    14 ; resid.=  1.83934941708655E-02
(PID.TID 0000.0001)  cg2d: iter=    15 ; resid.=  1.50023452335040E-02
(PID.TID 0000.0001)  cg2d: iter=    16 ; resid.=  1.19576265198600E-02
(PID.TID 0000.0001)  cg2d: iter=    17 ; resid.=  1.05663506135218E-02
(PID.TID 0000.0001)  cg2d: iter=    18 ; resid.=  9.12834728069824E-03
(PID.TID 0000.0001)  cg2d: iter=    19 ; resid.=  7.28923749352709E-03
(PID.TID 0000.0001)  cg2d: iter=    20 ; resid.=  6.68590923986731E-03
(PID.TID 0000.0001)  cg2d: iter=    21 ; resid.=  5.48059070307146E-03
(PID.TID 0000.0001)  cg2d: iter=    22 ; resid.=  5.21116296706950E-03
(PID.TID 0000.0001)  cg2d: iter=    23 ; resid.=  4.29303267985628E-03
(PID.TID 0000.0001)  cg2d: iter=    24 ; resid.=  3.35272494834195E-03
(PID.TID 0000.0001)  cg2d: iter=    25 ; resid.=  2.66646319666693E-03
(PID.TID 0000.0001)  cg2d: iter=    26 ; resid.=  2.16995830044794E-03
(PID.TID 0000.0001)  cg2d: iter=    27 ; resid.=  1.89163320138000E-03
(PID.TID 0000.0001)  cg2d: iter=    28 ; resid.=  1.62893632675862E-03
(PID.TID 0000.0001)  cg2d: iter=    29 ; resid.=  1.35343476575679E-03
(PID.TID 0000.0001)  cg2d: iter=    30 ; resid.=  1.05998043964773E-03
(PID.TID 0000.0001)  cg2d: iter=    31 ; resid.=  8.11167874248793E-04
(PID.TID 0000.0001)  cg2d: iter=    32 ; resid.=  6.23476651051079E-04
(PID.TID 0000.0001)  cg2d: iter=    33 ; resid.=  5.07338315404022E-04
(PID.TID 0000.0001)  cg2d: iter=    34 ; resid.=  4.22345148844445E-04
(PID.TID 0000.0001)  cg2d: iter=    35 ; resid.=  3.75842029063770E-04
(PID.TID 0000.0001)  cg2d: iter=    36 ; resid.=  3.30051758773687E-04
(PID.TID 0000.0001)  cg2d: iter=    37 ; resid.=  2.82385915728808E-04
(PID.TID 0000.0001)  cg2d: iter=    38 ; resid.=  2.30782180849020E-04
(PID.TID 0000.0001)  cg2d: iter=    39 ; resid.=  2.00778462514528E-04
(PID.TID 0000.0001)  cg2d: iter=    40 ; resid.=  1.68924378602117E-04
(PID.TID 0000.0001)  cg2d: iter=    41 ; resid.=  1.42282525379878E-04
(PID.TID 0000.0001)  cg2d: iter=    42 ; resid.=  1.21119346187284E-04
(PID.TID 0000.0001)  cg2d: iter=    43 ; resid.=  1.11307773312260E-04
(PID.TID 0000.0001)  cg2d: iter=    44 ; resid.=  9.06594167858221E-05
(PID.TID 0000.0001)  cg2d: iter=    45 ; resid.=  7.23223190478841E-05
(PID.TID 0000.0001)  cg2d: iter=    46 ; resid.=  5.61823581904704E-05
(PID.TID 0000.0001)  cg2d: iter=    47 ; resid.=  4.48356933277975E-05
(PID.TID 0000.0001)  cg2d: iter=    48 ; resid.=  3.96026154518636E-05
(PID.TID 0000.0001)  cg2d: iter=    49 ; resid.=  3.30255478385433E-05
(PID.TID 0000.0001)  cg2d: iter=    50 ; resid.=  2.81172520028214E-05
(PID.TID 0000.0001)  cg2d: iter=    51 ; resid.=  2.44295608746549E-05
(PID.TID 0000.0001)  cg2d: iter=    52 ; resid.=  2.15476773507459E-05
(PID.TID 0000.0001)  cg2d: iter=    53 ; resid.=  2.01702704561924E-05
(PID.TID 0000.0001)  cg2d: iter=    54 ; resid.=  1.67577847691968E-05
(PID.TID 0000.0001)  cg2d: iter=    55 ; resid.=  1.48326689423963E-05
(PID.TID 0000.0001)  cg2d: iter=    56 ; resid.=  1.17378136432748E-05
(PID.TID 0000.0001)  cg2d: iter=    57 ; resid.=  9.46599392120977E-06
(PID.TID 0000.0001)  cg2d: iter=    58 ; resid.=  6.76195035963236E-06
(PID.TID 0000.0001)  cg2d: iter=    59 ; resid.=  5.04244916932363E-06
(PID.TID 0000.0001)  cg2d: iter=    60 ; resid.=  4.08493934983973E-06
(PID.TID 0000.0001)  cg2d: iter=    61 ; resid.=  3.21725186725448E-06
(PID.TID 0000.0001)  cg2d: iter=    62 ; resid.=  2.44755985879575E-06
(PID.TID 0000.0001)  cg2d: iter=    63 ; resid.=  1.92095091847331E-06
(PID.TID 0000.0001)  cg2d: iter=    64 ; resid.=  1.57307555633898E-06
(PID.TID 0000.0001)  cg2d: iter=    65 ; resid.=  1.37979862138223E-06
(PID.TID 0000.0001)  cg2d: iter=    66 ; resid.=  1.08874620317860E-06
(PID.TID 0000.0001)  cg2d: iter=    67 ; resid.=  9.23999522548186E-07
(PID.TID 0000.0001)  cg2d: iter=    68 ; resid.=  8.47534716382708E-07
(PID.TID 0000.0001)  cg2d: iter=    69 ; resid.=  7.48863283279197E-07
(PID.TID 0000.0001)  cg2d: iter=    70 ; resid.=  6.20377061235128E-07
(PID.TID 0000.0001)  cg2d: iter=    71 ; resid.=  5.02309487297884E-07
(PID.TID 0000.0001)  cg2d: iter=    72 ; resid.=  4.61504023134118E-07
(PID.TID 0000.0001)  cg2d: iter=    73 ; resid.=  3.88988722678316E-07
(PID.TID 0000.0001)  cg2d: iter=    74 ; resid.=  3.10173862328835E-07
(PID.TID 0000.0001)  cg2d: iter=    75 ; resid.=  2.46964356803426E-07
(PID.TID 0000.0001)  cg2d: iter=    76 ; resid.=  1.97548235436969E-07
(PID.TID 0000.0001)  cg2d: iter=    77 ; resid.=  1.61531129856735E-07
(PID.TID 0000.0001)  cg2d: iter=    78 ; resid.=  1.31140289475301E-07
(PID.TID 0000.0001)  cg2d: iter=    79 ; resid.=  1.05135794832227E-07
(PID.TID 0000.0001)  cg2d: iter=    80 ; resid.=  8.27608239525126E-08
(PID.TID 0000.0001)  cg2d: iter=    81 ; resid.=  6.33474875477796E-08
(PID.TID 0000.0001)  cg2d: iter=    82 ; resid.=  4.79499173483997E-08
(PID.TID 0000.0001)  cg2d: iter=    83 ; resid.=  3.71666083433705E-08
(PID.TID 0000.0001)  cg2d: iter=    84 ; resid.=  2.92716322073084E-08
(PID.TID 0000.0001)  cg2d: iter=    85 ; resid.=  2.02597866654934E-08
(PID.TID 0000.0001)  cg2d: iter=    86 ; resid.=  1.47799157741975E-08
(PID.TID 0000.0001)  cg2d: iter=    87 ; resid.=  1.24661451812479E-08
(PID.TID 0000.0001)  cg2d: iter=    88 ; resid.=  9.85590141635506E-09
(PID.TID 0000.0001)  cg2d: iter=    89 ; resid.=  8.27558350850845E-09
(PID.TID 0000.0001)  cg2d: iter=    90 ; resid.=  7.31471776084124E-09
(PID.TID 0000.0001)  cg2d: iter=    91 ; resid.=  6.12904638788537E-09
(PID.TID 0000.0001)  cg2d: iter=    92 ; resid.=  5.21873705546395E-09
(PID.TID 0000.0001)  cg2d: iter=    93 ; resid.=  3.85948877923332E-09
(PID.TID 0000.0001)  cg2d: iter=    94 ; resid.=  3.20064810513029E-09
(PID.TID 0000.0001)  cg2d: iter=    95 ; resid.=  2.71705100051203E-09
(PID.TID 0000.0001)  cg2d: iter=    96 ; resid.=  2.13898487958834E-09
(PID.TID 0000.0001)  cg2d: iter=    97 ; resid.=  1.79739798955555E-09
(PID.TID 0000.0001)  cg2d: iter=    98 ; resid.=  1.41050955925649E-09
(PID.TID 0000.0001)  cg2d: iter=    99 ; resid.=  1.21956423910204E-09
(PID.TID 0000.0001)  cg2d: iter=   100 ; resid.=  9.56789574253264E-10
(PID.TID 0000.0001)  cg2d: iter=   101 ; resid.=  7.27801134319823E-10
(PID.TID 0000.0001)  cg2d: iter=   102 ; resid.=  5.77113568073283E-10
(PID.TID 0000.0001)  cg2d: iter=   103 ; resid.=  4.23943027886250E-10
(PID.TID 0000.0001)  cg2d: iter=   104 ; resid.=  3.45537502035328E-10
(PID.TID 0000.0001)  cg2d: iter=   105 ; resid.=  2.87668573473295E-10
(PID.TID 0000.0001)  cg2d: iter=   106 ; resid.=  2.19856442046201E-10
(PID.TID 0000.0001)  cg2d: iter=   107 ; resid.=  1.64921109539896E-10
(PID.TID 0000.0001)  cg2d: iter=   108 ; resid.=  1.40515792046823E-10
(PID.TID 0000.0001)  cg2d: iter=   109 ; resid.=  1.01295316117604E-10
(PID.TID 0000.0001)  cg2d: iter=   110 ; resid.=  7.66267914833086E-11
(PID.TID 0000.0001)  cg2d: iter=   111 ; resid.=  6.26591930828885E-11
(PID.TID 0000.0001)  cg2d: iter=   112 ; resid.=  4.67616441105399E-11
(PID.TID 0000.0001)  cg2d: iter=   113 ; resid.=  3.42311018438295E-11
(PID.TID 0000.0001)  cg2d: iter=   114 ; resid.=  2.58757450422228E-11
(PID.TID 0000.0001)  cg2d: iter=   115 ; resid.=  1.90628966052178E-11
(PID.TID 0000.0001)  cg2d: iter=   116 ; resid.=  1.38176880815287E-11
(PID.TID 0000.0001)  cg2d: iter=   117 ; resid.=  1.06459204674302E-11
(PID.TID 0000.0001)  cg2d: iter=   118 ; resid.=  8.00464318023336E-12
(PID.TID 0000.0001)  cg2d: iter=   119 ; resid.=  6.14295812978711E-12
(PID.TID 0000.0001)  cg2d: iter=   120 ; resid.=  4.57198745880010E-12
(PID.TID 0000.0001)  cg2d: iter=   121 ; resid.=  3.55056643633558E-12
(PID.TID 0000.0001)  cg2d: iter=   122 ; resid.=  3.00899477215841E-12
(PID.TID 0000.0001)  cg2d: iter=   123 ; resid.=  2.41104228236270E-12
(PID.TID 0000.0001)  cg2d: iter=   124 ; resid.=  1.94126317281211E-12
(PID.TID 0000.0001)  cg2d: iter=   125 ; resid.=  1.50158779011060E-12
(PID.TID 0000.0001)  cg2d: iter=   126 ; resid.=  1.08805269881066E-12
(PID.TID 0000.0001)  cg2d: iter=   127 ; resid.=  7.16108504768403E-13
(PID.TID 0000.0001)  cg2d: iter=   128 ; resid.=  4.24838702234575E-13
(PID.TID 0000.0001)  cg2d: iter=   129 ; resid.=  2.71111548624048E-13
(PID.TID 0000.0001)  cg2d: iter=   130 ; resid.=  1.91860744511422E-13
(PID.TID 0000.0001)  cg2d: iter=   131 ; resid.=  1.42573877899448E-13
(PID.TID 0000.0001)  cg2d: iter=   132 ; resid.=  1.10171240528491E-13
(PID.TID 0000.0001)  cg2d: iter=   133 ; resid.=  8.36038734105224E-14
DEBUG_STATS_RL:    cg2d_x (SOLVE_FOR_PRESSURE)  min= -2.30923104010928E+01
DEBUG_STATS_RL:    cg2d_x (SOLVE_FOR_PRESSURE)  max=  1.23455023663397E+01
DEBUG_STATS_RL:    cg2d_x (SOLVE_FOR_PRESSURE) mean= -2.15687397754536E+00
DEBUG_STATS_RL:    cg2d_x (SOLVE_FOR_PRESSURE) S.D.=  9.24852418206654E+00
(PID.TID 0000.0001)      cg2d_init_res =   3.02330680997156E-01
(PID.TID 0000.0001)      cg2d_iters(min,last) =      -1     133
(PID.TID 0000.0001)      cg2d_last_res =   8.36038734105224E-14
(PID.TID 0000.0001) // =======================================================
(PID.TID 0000.0001) // Begin MONITOR dynamic field statistics
(PID.TID 0000.0001) // =======================================================
(PID.TID 0000.0001) %MON time_tsnumber                =                    82
(PID.TID 0000.0001) %MON time_secondsf                =   7.0848000000000E+06
(PID.TID 0000.0001) %MON dynstat_eta_max              =   1.2584609955493E+00
(PID.TID 0000.0001) %MON dynstat_eta_min              =  -2.3539562080624E+00
(PID.TID 0000.0001) %MON dynstat_eta_mean             =  -5.5636936783225E-03
(PID.TID 0000.0001) %MON dynstat_eta_sd               =   8.5389140082009E-01
(PID.TID 0000.0001) %MON dynstat_eta_del2             =   2.6276618746302E-03
(PID.TID 0000.0001) %MON dynstat_uvel_max             =   1.6507955880926E-01
(PID.TID 0000.0001) %MON dynstat_uvel_min             =  -1.3185063606745E-01
(PID.TID 0000.0001) %MON dynstat_uvel_mean            =   2.3658924848668E-03
(PID.TID 0000.0001) %MON dynstat_uvel_sd              =   1.9355165362625E-02
(PID.TID 0000.0001) %MON dynstat_uvel_del2            =   1.4792068157449E-04
(PID.TID 0000.0001) %MON dynstat_vvel_max             =   1.5931707067270E-01
(PID.TID 0000.0001) %MON dynstat_vvel_min             =  -1.2039095679722E-01
(PID.TID 0000.0001) %MON dynstat_vvel_mean            =  -1.4752834958765E-05
(PID.TID 0000.0001) %MON dynstat_vvel_sd              =   1.0386648544487E-02
(PID.TID 0000.0001) %MON dynstat_vvel_del2            =   9.3146213119907E-05
(PID.TID 0000.0001) %MON dynstat_wvel_max             =   2.8153708022688E-04
(PID.TID 0000.0001) %MON dynstat_wvel_min             =  -1.1405992375239E-04
(PID.TID 0000.0001) %MON dynstat_wvel_mean            =   1.5959797653718E-22
(PID.TID 0000.0001) %MON dynstat_wvel_sd              =   1.4955300177845E-05
(PID.TID 0000.0001) %MON dynstat_wvel_del2            =   1.4731695822788E-07
(PID.TID 0000.0001) %MON dynstat_theta_max            =   3.1053887908211E+01
(PID.TID 0000.0001) %MON dynstat_theta_min            =  -1.9447996926650E+00
(PID.TID 0000.0001) %MON dynstat_theta_mean           =   3.6538206806479E+00
(PID.TID 0000.0001) %MON dynstat_theta_sd             =   4.4274187382256E+00
(PID.TID 0000.0001) %MON dynstat_theta_del2           =   4.8832353507347E-03
(PID.TID 0000.0001) %MON dynstat_salt_max             =   3.7494579832574E+01
(PID.TID 0000.0001) %MON dynstat_salt_min             =   2.9935462085632E+01
(PID.TID 0000.0001) %MON dynstat_salt_mean            =   3.4748040065763E+01
(PID.TID 0000.0001) %MON dynstat_salt_sd              =   2.9666372439048E-01
(PID.TID 0000.0001) %MON dynstat_salt_del2            =   9.9676660875447E-04
(PID.TID 0000.0001) %MON dynstat_sst_max              =   3.1053887908211E+01
(PID.TID 0000.0001) %MON dynstat_sst_min              =  -1.9447996926650E+00
(PID.TID 0000.0001) %MON dynstat_sst_mean             =   1.9091398025415E+01
(PID.TID 0000.0001) %MON dynstat_sst_sd               =   9.1975176443059E+00
(PID.TID 0000.0001) %MON dynstat_sst_del2             =   2.9043614991453E-02
(PID.TID 0000.0001) %MON dynstat_sss_max              =   3.7492196949157E+01
(PID.TID 0000.0001) %MON dynstat_sss_min              =   2.9935462085632E+01
(PID.TID 0000.0001) %MON dynstat_sss_mean             =   3.4868913144695E+01
(PID.TID 0000.0001) %MON dynstat_sss_sd               =   9.8801950428308E-01
(PID.TID 0000.0001) %MON dynstat_sss_del2             =   8.2298561625483E-03
(PID.TID 0000.0001) %MON forcing_qnet_max             =   2.4627628173828E+02
(PID.TID 0000.0001) %MON forcing_qnet_min             =  -1.6128761291504E+02
(PID.TID 0000.0001) %MON forcing_qnet_mean            =  -4.8828474163268E+00
(PID.TID 0000.0001) %MON forcing_qnet_sd              =   4.1789417838572E+01
(PID.TID 0000.0001) %MON forcing_qnet_del2            =   8.1227755261188E-01
(PID.TID 0000.0001) %MON forcing_qsw_max              =   0.0000000000000E+00
(PID.TID 0000.0001) %MON forcing_qsw_min              =   0.0000000000000E+00
(PID.TID 0000.0001) %MON forcing_qsw_mean             =   0.0000000000000E+00
(PID.TID 0000.0001) %MON forcing_qsw_sd               =   0.0000000000000E+00
(PID.TID 0000.0001) %MON forcing_qsw_del2             =   0.0000000000000E+00
(PID.TID 0000.0001) %MON forcing_empmr_max            =   6.8531795704985E-05
(PID.TID 0000.0001) %MON forcing_empmr_min            =  -8.3353494062521E-05
(PID.TID 0000.0001) %MON forcing_empmr_mean           =   4.1603886471329E-07
(PID.TID 0000.0001) %MON forcing_empmr_sd             =   2.5903822702636E-05
(PID.TID 0000.0001) %MON forcing_empmr_del2           =   3.6347696662718E-07
(PID.TID 0000.0001) %MON forcing_fu_max               =   3.5241369009018E-01
(PID.TID 0000.0001) %MON forcing_fu_min               =  -3.9415485262871E-01
(PID.TID 0000.0001) %MON forcing_fu_mean              =   1.9693576718791E-02
(PID.TID 0000.0001) %MON forcing_fu_sd                =   1.0078027975270E-01
(PID.TID 0000.0001) %MON forcing_fu_del2              =   8.0191903414414E-04
(PID.TID 0000.0001) %MON forcing_fv_max               =   1.8272433876991E-01
(PID.TID 0000.0001) %MON forcing_fv_min               =  -1.7288535237312E-01
(PID.TID 0000.0001) %MON forcing_fv_mean              =  -7.3107154058064E-03
(PID.TID 0000.0001) %MON forcing_fv_sd                =   4.0457031472126E-02
(PID.TID 0000.0001) %MON forcing_fv_del2              =   4.5597816085300E-04
(PID.TID 0000.0001) %MON trAdv_CFL_u_max              =   4.6587256185847E-02
(PID.TID 0000.0001) %MON trAdv_CFL_v_max              =   3.0403730345079E-02
(PID.TID 0000.0001) %MON trAdv_CFL_w_max              =   6.0722663717904E-02
(PID.TID 0000.0001) %MON advcfl_uvel_max              =   4.8784665880594E-02
(PID.TID 0000.0001) %MON advcfl_vvel_max              =   3.0952751693086E-02
(PID.TID 0000.0001) %MON advcfl_wvel_max              =   6.6643297894802E-02
(PID.TID 0000.0001) %MON advcfl_W_hf_max              =   7.1543540387066E-02
(PID.TID 0000.0001) %MON pe_b_mean                    =   9.3305000038240E-04
(PID.TID 0000.0001) %MON ke_max                       =   1.7323022730675E-02
(PID.TID 0000.0001) %MON ke_mean                      =   2.2117290908547E-04
(PID.TID 0000.0001) %MON ke_vol                       =   1.3226782436723E+18
(PID.TID 0000.0001) %MON vort_r_min                   =  -4.0131349351967E-07
(PID.TID 0000.0001) %MON vort_r_max                   =   4.7178507427911E-07
(PID.TID 0000.0001) %MON vort_a_mean                  =  -2.5274806877998E-05
(PID.TID 0000.0001) %MON vort_a_sd                    =   7.3604612991592E-05
(PID.TID 0000.0001) %MON vort_p_mean                  =  -3.1845655144973E-05
(PID.TID 0000.0001) %MON vort_p_sd                    =   1.3162571829160E-04
(PID.TID 0000.0001) %MON surfExpan_theta_mean         =  -6.3203799636315E-07
(PID.TID 0000.0001) %MON surfExpan_salt_mean          =   1.7208391575484E-07
(PID.TID 0000.0001) // =======================================================
(PID.TID 0000.0001) // End MONITOR dynamic field statistics
(PID.TID 0000.0001) // =======================================================
 EXTERNAL_FIELDS_LOAD,        82 : iP,iLd,i0,i1=    3    4    3    4 ; Wght=  0.7666666667  0.2333333333
 EXTERNAL_FIELDS_LOAD: (fu0,1),fu,fv= -2.7199E-02 -3.7252E-02 -2.9545E-02 -8.6603E-03
 EXTERNAL_FIELDS_LOAD: SST,SSS,Q,E-P= -1.3275E-01  3.4577E+01  1.8943E+02  8.7747E-06
DEBUG_STATS_RL:          Uvel (THERMODYNAMICS)  min= -1.31850636067449E-01
DEBUG_STATS_RL:          Uvel (THERMODYNAMICS)  max=  1.65079558809258E-01
DEBUG_STATS_RL:          Uvel (THERMODYNAMICS) mean=  6.39799589420541E-03
DEBUG_STATS_RL:          Uvel (THERMODYNAMICS) S.D.=  2.55645376105465E-02
DEBUG_STATS_RL:          Vvel (THERMODYNAMICS)  min= -1.20390956797216E-01
DEBUG_STATS_RL:          Vvel (THERMODYNAMICS)  max=  1.59317070672700E-01
DEBUG_STATS_RL:          Vvel (THERMODYNAMICS) mean=  1.11207730303487E-03
DEBUG_STATS_RL:          Vvel (THERMODYNAMICS) S.D.=  1.55318148645394E-02
DEBUG_STATS_RL:          Wvel (THERMODYNAMICS)  min= -1.14059923752391E-04
DEBUG_STATS_RL:          Wvel (THERMODYNAMICS)  max=  2.81537080226882E-04
DEBUG_STATS_RL:          Wvel (THERMODYNAMICS) mean=  2.85372805020670E-08
DEBUG_STATS_RL:          Wvel (THERMODYNAMICS) S.D.=  1.30870802479271E-05
DEBUG_STATS_RL:         Theta (THERMODYNAMICS)  min= -1.94341657667864E+00
DEBUG_STATS_RL:         Theta (THERMODYNAMICS)  max=  3.10754248303433E+01
DEBUG_STATS_RL:         Theta (THERMODYNAMICS) mean=  3.25081837930333E+00
DEBUG_STATS_RL:         Theta (THERMODYNAMICS) S.D.=  5.88724562392182E+00
DEBUG_STATS_RL:          Salt (THERMODYNAMICS)  min=  3.00000000000000E-02
DEBUG_STATS_RL:          Salt (THERMODYNAMICS)  max=  3.74942202536356E+01
DEBUG_STATS_RL:          Salt (THERMODYNAMICS) mean=  1.88748229213415E+01
DEBUG_STATS_RL:          Salt (THERMODYNAMICS) S.D.=  1.73003705287446E+01
DEBUG_STATS_RL:         GtNm1 (THERMODYNAMICS)  min= -3.27962687508482E-06
DEBUG_STATS_RL:         GtNm1 (THERMODYNAMICS)  max=  2.21564102354320E-06
DEBUG_STATS_RL:         GtNm1 (THERMODYNAMICS) mean= -2.29698474071513E-10
DEBUG_STATS_RL:         GtNm1 (THERMODYNAMICS) S.D.=  1.68371171844989E-07
DEBUG_STATS_RL:         GsNm1 (THERMODYNAMICS)  min= -5.26359753125721E-07
DEBUG_STATS_RL:         GsNm1 (THERMODYNAMICS)  max=  3.41919865303626E-07
DEBUG_STATS_RL:         GsNm1 (THERMODYNAMICS) mean= -8.54981686369211E-11
DEBUG_STATS_RL:         GsNm1 (THERMODYNAMICS) S.D.=  1.59449711265811E-08
DEBUG_STATS_RL:                EtaN (DYNAMICS)  min= -2.35395620806245E+00
DEBUG_STATS_RL:                EtaN (DYNAMICS)  max=  1.25846099554933E+00
DEBUG_STATS_RL:                EtaN (DYNAMICS) mean= -2.19864829515328E-01
DEBUG_STATS_RL:                EtaN (DYNAMICS) S.D.=  9.42764952300368E-01
DEBUG_STATS_RL:                Uvel (DYNAMICS)  min= -1.31850636067449E-01
DEBUG_STATS_RL:                Uvel (DYNAMICS)  max=  1.65079558809258E-01
DEBUG_STATS_RL:                Uvel (DYNAMICS) mean=  6.39799589420541E-03
DEBUG_STATS_RL:                Uvel (DYNAMICS) S.D.=  2.55645376105465E-02
DEBUG_STATS_RL:                Vvel (DYNAMICS)  min= -1.20390956797216E-01
DEBUG_STATS_RL:                Vvel (DYNAMICS)  max=  1.59317070672700E-01
DEBUG_STATS_RL:                Vvel (DYNAMICS) mean=  1.11207730303487E-03
DEBUG_STATS_RL:                Vvel (DYNAMICS) S.D.=  1.55318148645394E-02
DEBUG_STATS_RL:                Wvel (DYNAMICS)  min= -1.14059923752391E-04
DEBUG_STATS_RL:                Wvel (DYNAMICS)  max=  2.81537080226882E-04
DEBUG_STATS_RL:                Wvel (DYNAMICS) mean=  2.85372805020670E-08
DEBUG_STATS_RL:                Wvel (DYNAMICS) S.D.=  1.30870802479271E-05
DEBUG_STATS_RL:               Theta (DYNAMICS)  min= -1.94341657667864E+00
DEBUG_STATS_RL:               Theta (DYNAMICS)  max=  3.10754248303433E+01
DEBUG_STATS_RL:               Theta (DYNAMICS) mean=  3.25081837930333E+00
DEBUG_STATS_RL:               Theta (DYNAMICS) S.D.=  5.88724562392182E+00
DEBUG_STATS_RL:                Salt (DYNAMICS)  min=  3.00000000000000E-02
DEBUG_STATS_RL:                Salt (DYNAMICS)  max=  3.74942202536356E+01
DEBUG_STATS_RL:                Salt (DYNAMICS) mean=  1.88748229213415E+01
DEBUG_STATS_RL:                Salt (DYNAMICS) S.D.=  1.73003705287446E+01
DEBUG_STATS_RL:                  Gu (DYNAMICS)  min= -1.31125048998585E-01
DEBUG_STATS_RL:                  Gu (DYNAMICS)  max=  1.69161371236043E-01
DEBUG_STATS_RL:                  Gu (DYNAMICS) mean=  6.43595674167401E-03
DEBUG_STATS_RL:                  Gu (DYNAMICS) S.D.=  2.58312793435571E-02
DEBUG_STATS_RL:                  Gv (DYNAMICS)  min= -1.24436693584115E-01
DEBUG_STATS_RL:                  Gv (DYNAMICS)  max=  1.59561813452500E-01
DEBUG_STATS_RL:                  Gv (DYNAMICS) mean=  3.64142202032143E-03
DEBUG_STATS_RL:                  Gv (DYNAMICS) S.D.=  1.69093439095664E-02
DEBUG_STATS_RL:               GuNm1 (DYNAMICS)  min= -1.14474738237619E-05
DEBUG_STATS_RL:               GuNm1 (DYNAMICS)  max=  9.24191808533100E-06
DEBUG_STATS_RL:               GuNm1 (DYNAMICS) mean=  1.22366040611669E-08
DEBUG_STATS_RL:               GuNm1 (DYNAMICS) S.D.=  1.23995290940476E-06
DEBUG_STATS_RL:               GvNm1 (DYNAMICS)  min= -9.52467912090220E-06
DEBUG_STATS_RL:               GvNm1 (DYNAMICS)  max=  1.54528613350666E-05
DEBUG_STATS_RL:               GvNm1 (DYNAMICS) mean=  7.37287528451626E-07
DEBUG_STATS_RL:               GvNm1 (DYNAMICS) S.D.=  2.62615869388734E-06
DEBUG_STATS_RL:               GtNm1 (DYNAMICS)  min= -3.27962687508482E-06
DEBUG_STATS_RL:               GtNm1 (DYNAMICS)  max=  2.21564102354320E-06
DEBUG_STATS_RL:               GtNm1 (DYNAMICS) mean= -2.29698474071513E-10
DEBUG_STATS_RL:               GtNm1 (DYNAMICS) S.D.=  1.68371171844989E-07
DEBUG_STATS_RL:               GsNm1 (DYNAMICS)  min= -5.26359753125721E-07
DEBUG_STATS_RL:               GsNm1 (DYNAMICS)  max=  3.41919865303626E-07
DEBUG_STATS_RL:               GsNm1 (DYNAMICS) mean= -8.54981686369211E-11
DEBUG_STATS_RL:               GsNm1 (DYNAMICS) S.D.=  1.59449711265811E-08
DEBUG_STATS_RL:    cg2d_b (SOLVE_FOR_PRESSURE)  min= -2.96831810172215E+04
DEBUG_STATS_RL:    cg2d_b (SOLVE_FOR_PRESSURE)  max=  3.14176407967965E+04
DEBUG_STATS_RL:    cg2d_b (SOLVE_FOR_PRESSURE) mean=  5.36388622819125E+00
DEBUG_STATS_RL:    cg2d_b (SOLVE_FOR_PRESSURE) S.D.=  4.20285270792507E+03
 cg2d: Sum(rhs),rhsMax =   3.95236443709395E-01  2.06359476593286E+00
(PID.TID 0000.0001)  cg2d: iter=     1 ; resid.=  1.76631444454406E-01
(PID.TID 0000.0001)  cg2d: iter=     2 ; resid.=  1.50678931824997E-01
(PID.TID 0000.0001)  cg2d: iter=     3 ; resid.=  1.53809912804450E-01
(PID.TID 0000.0001)  cg2d: iter=     4 ; resid.=  1.43079467341165E-01
(PID.TID 0000.0001)  cg2d: iter=     5 ; resid.=  1.16459106852189E-01
(PID.TID 0000.0001)  cg2d: iter=     6 ; resid.=  1.00078453027127E-01
(PID.TID 0000.0001)  cg2d: iter=     7 ; resid.=  8.86253643249938E-02
(PID.TID 0000.0001)  cg2d: iter=     8 ; resid.=  7.21528164138408E-02
(PID.TID 0000.0001)  cg2d: iter=     9 ; resid.=  5.39388805304278E-02
(PID.TID 0000.0001)  cg2d: iter=    10 ; resid.=  4.45061596819794E-02
(PID.TID 0000.0001)  cg2d: iter=    11 ; resid.=  3.51778362298457E-02
(PID.TID 0000.0001)  cg2d: iter=    12 ; resid.=  3.04034415569641E-02
(PID.TID 0000.0001)  cg2d: iter=    13 ; resid.=  2.37860853913379E-02
(PID.TID 0000.0001)  cg2d: iter=    14 ; resid.=  1.93292848693321E-02
(PID.TID 0000.0001)  cg2d: iter=    15 ; resid.=  1.59078758562396E-02
(PID.TID 0000.0001)  cg2d: iter=    16 ; resid.=  1.31149278630060E-02
(PID.TID 0000.0001)  cg2d: iter=    17 ; resid.=  1.17845771029565E-02
(PID.TID 0000.0001)  cg2d: iter=    18 ; resid.=  1.00886826480306E-02
(PID.TID 0000.0001)  cg2d: iter=    19 ; resid.=  7.92376964885999E-03
(PID.TID 0000.0001)  cg2d: iter=    20 ; resid.=  7.33936337101533E-03
(PID.TID 0000.0001)  cg2d: iter=    21 ; resid.=  6.01530552800175E-03
(PID.TID 0000.0001)  cg2d: iter=    22 ; resid.=  5.65239907828155E-03
(PID.TID 0000.0001)  cg2d: iter=    23 ; resid.=  4.59299127809658E-03
(PID.TID 0000.0001)  cg2d: iter=    24 ; resid.=  3.56321483593462E-03
(PID.TID 0000.0001)  cg2d: iter=    25 ; resid.=  2.77477237559424E-03
(PID.TID 0000.0001)  cg2d: iter=    26 ; resid.=  2.21618462356459E-03
(PID.TID 0000.0001)  cg2d: iter=    27 ; resid.=  1.90595954687828E-03
(PID.TID 0000.0001)  cg2d: iter=    28 ; resid.=  1.64068824769033E-03
(PID.TID 0000.0001)  cg2d: iter=    29 ; resid.=  1.35201929549057E-03
(PID.TID 0000.0001)  cg2d: iter=    30 ; resid.=  1.06242023394522E-03
(PID.TID 0000.0001)  cg2d: iter=    31 ; resid.=  8.07970385844607E-04
(PID.TID 0000.0001)  cg2d: iter=    32 ; resid.=  6.13115394700093E-04
(PID.TID 0000.0001)  cg2d: iter=    33 ; resid.=  4.89384705269835E-04
(PID.TID 0000.0001)  cg2d: iter=    34 ; resid.=  4.14261955071405E-04
(PID.TID 0000.0001)  cg2d: iter=    35 ; resid.=  3.74410384403990E-04
(PID.TID 0000.0001)  cg2d: iter=    36 ; resid.=  3.26140930062881E-04
(PID.TID 0000.0001)  cg2d: iter=    37 ; resid.=  2.78753579878816E-04
(PID.TID 0000.0001)  cg2d: iter=    38 ; resid.=  2.27741960024987E-04
(PID.TID 0000.0001)  cg2d: iter=    39 ; resid.=  1.97024964952445E-04
(PID.TID 0000.0001)  cg2d: iter=    40 ; resid.=  1.61846821129574E-04
(PID.TID 0000.0001)  cg2d: iter=    41 ; resid.=  1.31373836185655E-04
(PID.TID 0000.0001)  cg2d: iter=    42 ; resid.=  1.09492243742876E-04
(PID.TID 0000.0001)  cg2d: iter=    43 ; resid.=  1.00260788129730E-04
(PID.TID 0000.0001)  cg2d: iter=    44 ; resid.=  8.23051288181067E-05
(PID.TID 0000.0001)  cg2d: iter=    45 ; resid.=  6.68074876119261E-05
(PID.TID 0000.0001)  cg2d: iter=    46 ; resid.=  5.17202217687176E-05
(PID.TID 0000.0001)  cg2d: iter=    47 ; resid.=  4.06849080284698E-05
(PID.TID 0000.0001)  cg2d: iter=    48 ; resid.=  3.57338527070210E-05
(PID.TID 0000.0001)  cg2d: iter=    49 ; resid.=  3.05613494369486E-05
(PID.TID 0000.0001)  cg2d: iter=    50 ; resid.=  2.66923353451496E-05
(PID.TID 0000.0001)  cg2d: iter=    51 ; resid.=  2.34395239948487E-05
(PID.TID 0000.0001)  cg2d: iter=    52 ; resid.=  2.08372593852777E-05
(PID.TID 0000.0001)  cg2d: iter=    53 ; resid.=  1.96353628256841E-05
(PID.TID 0000.0001)  cg2d: iter=    54 ; resid.=  1.61167114117313E-05
(PID.TID 0000.0001)  cg2d: iter=    55 ; resid.=  1.42159543191080E-05
(PID.TID 0000.0001)  cg2d: iter=    56 ; resid.=  1.12022381694457E-05
(PID.TID 0000.0001)  cg2d: iter=    57 ; resid.=  9.02677257311004E-06
(PID.TID 0000.0001)  cg2d: iter=    58 ; resid.=  6.63097939823054E-06
(PID.TID 0000.0001)  cg2d: iter=    59 ; resid.=  4.97038667797355E-06
(PID.TID 0000.0001)  cg2d: iter=    60 ; resid.=  4.20106032573877E-06
(PID.TID 0000.0001)  cg2d: iter=    61 ; resid.=  3.40859928780949E-06
(PID.TID 0000.0001)  cg2d: iter=    62 ; resid.=  2.68486953035012E-06
(PID.TID 0000.0001)  cg2d: iter=    63 ; resid.=  2.15725671282540E-06
(PID.TID 0000.0001)  cg2d: iter=    64 ; resid.=  1.78505655449053E-06
(PID.TID 0000.0001)  cg2d: iter=    65 ; resid.=  1.59192410822446E-06
(PID.TID 0000.0001)  cg2d: iter=    66 ; resid.=  1.25508008607645E-06
(PID.TID 0000.0001)  cg2d: iter=    67 ; resid.=  1.06619003792566E-06
(PID.TID 0000.0001)  cg2d: iter=    68 ; resid.=  1.00033555361010E-06
(PID.TID 0000.0001)  cg2d: iter=    69 ; resid.=  8.49672567000097E-07
(PID.TID 0000.0001)  cg2d: iter=    70 ; resid.=  6.90662011301577E-07
(PID.TID 0000.0001)  cg2d: iter=    71 ; resid.=  5.46193086401761E-07
(PID.TID 0000.0001)  cg2d: iter=    72 ; resid.=  4.98097832605741E-07
(PID.TID 0000.0001)  cg2d: iter=    73 ; resid.=  4.22372520153720E-07
(PID.TID 0000.0001)  cg2d: iter=    74 ; resid.=  3.41090543679465E-07
(PID.TID 0000.0001)  cg2d: iter=    75 ; resid.=  2.83571007247700E-07
(PID.TID 0000.0001)  cg2d: iter=    76 ; resid.=  2.29675590060915E-07
(PID.TID 0000.0001)  cg2d: iter=    77 ; resid.=  1.88464545516879E-07
(PID.TID 0000.0001)  cg2d: iter=    78 ; resid.=  1.57770625632523E-07
(PID.TID 0000.0001)  cg2d: iter=    79 ; resid.=  1.23383712514375E-07
(PID.TID 0000.0001)  cg2d: iter=    80 ; resid.=  9.48637690108360E-08
(PID.TID 0000.0001)  cg2d: iter=    81 ; resid.=  7.14223682167776E-08
(PID.TID 0000.0001)  cg2d: iter=    82 ; resid.=  5.38674018130167E-08
(PID.TID 0000.0001)  cg2d: iter=    83 ; resid.=  4.26387619158064E-08
(PID.TID 0000.0001)  cg2d: iter=    84 ; resid.=  3.32094490558097E-08
(PID.TID 0000.0001)  cg2d: iter=    85 ; resid.=  2.33476823887802E-08
(PID.TID 0000.0001)  cg2d: iter=    86 ; resid.=  1.74096973502851E-08
(PID.TID 0000.0001)  cg2d: iter=    87 ; resid.=  1.46448510071151E-08
(PID.TID 0000.0001)  cg2d: iter=    88 ; resid.=  1.17048522947731E-08
(PID.TID 0000.0001)  cg2d: iter=    89 ; resid.=  9.70522973619915E-09
(PID.TID 0000.0001)  cg2d: iter=    90 ; resid.=  8.39708770371223E-09
(PID.TID 0000.0001)  cg2d: iter=    91 ; resid.=  6.86829931993957E-09
(PID.TID 0000.0001)  cg2d: iter=    92 ; resid.=  5.69509388505006E-09
(PID.TID 0000.0001)  cg2d: iter=    93 ; resid.=  4.20184339637770E-09
(PID.TID 0000.0001)  cg2d: iter=    94 ; resid.=  3.37674941001685E-09
(PID.TID 0000.0001)  cg2d: iter=    95 ; resid.=  2.87869094186196E-09
(PID.TID 0000.0001)  cg2d: iter=    96 ; resid.=  2.24168499314425E-09
(PID.TID 0000.0001)  cg2d: iter=    97 ; resid.=  1.88183565064049E-09
(PID.TID 0000.0001)  cg2d: iter=    98 ; resid.=  1.53546286964819E-09
(PID.TID 0000.0001)  cg2d: iter=    99 ; resid.=  1.36301739668444E-09
(PID.TID 0000.0001)  cg2d: iter=   100 ; resid.=  1.11406123343426E-09
(PID.TID 0000.0001)  cg2d: iter=   101 ; resid.=  8.65486061507022E-10
(PID.TID 0000.0001)  cg2d: iter=   102 ; resid.=  6.84259177182600E-10
(PID.TID 0000.0001)  cg2d: iter=   103 ; resid.=  5.10547726284195E-10
(PID.TID 0000.0001)  cg2d: iter=   104 ; resid.=  4.31184824510154E-10
(PID.TID 0000.0001)  cg2d: iter=   105 ; resid.=  3.57965208582861E-10
(PID.TID 0000.0001)  cg2d: iter=   106 ; resid.=  2.70144274299545E-10
(PID.TID 0000.0001)  cg2d: iter=   107 ; resid.=  1.99742068078559E-10
(PID.TID 0000.0001)  cg2d: iter=   108 ; resid.=  1.66330768372657E-10
(PID.TID 0000.0001)  cg2d: iter=   109 ; resid.=  1.19455433725941E-10
(PID.TID 0000.0001)  cg2d: iter=   110 ; resid.=  8.95527099894863E-11
(PID.TID 0000.0001)  cg2d: iter=   111 ; resid.=  7.15280814018881E-11
(PID.TID 0000.0001)  cg2d: iter=   112 ; resid.=  5.08043720450890E-11
(PID.TID 0000.0001)  cg2d: iter=   113 ; resid.=  3.62575976853149E-11
(PID.TID 0000.0001)  cg2d: iter=   114 ; resid.=  2.78406766865897E-11
(PID.TID 0000.0001)  cg2d: iter=   115 ; resid.=  2.05735663393811E-11
(PID.TID 0000.0001)  cg2d: iter=   116 ; resid.=  1.53903555525674E-11
(PID.TID 0000.0001)  cg2d: iter=   117 ; resid.=  1.20122539724770E-11
(PID.TID 0000.0001)  cg2d: iter=   118 ; resid.=  9.09547504658181E-12
(PID.TID 0000.0001)  cg2d: iter=   119 ; resid.=  7.18580045894026E-12
(PID.TID 0000.0001)  cg2d: iter=   120 ; resid.=  5.47519487798765E-12
(PID.TID 0000.0001)  cg2d: iter=   121 ; resid.=  4.23568677969120E-12
(PID.TID 0000.0001)  cg2d: iter=   122 ; resid.=  3.48236337235480E-12
(PID.TID 0000.0001)  cg2d: iter=   123 ; resid.=  2.70259111230039E-12
(PID.TID 0000.0001)  cg2d: iter=   124 ; resid.=  2.14217076970199E-12
(PID.TID 0000.0001)  cg2d: iter=   125 ; resid.=  1.63555724049968E-12
(PID.TID 0000.0001)  cg2d: iter=   126 ; resid.=  1.15371921632898E-12
(PID.TID 0000.0001)  cg2d: iter=   127 ; resid.=  7.47875540444018E-13
(PID.TID 0000.0001)  cg2d: iter=   128 ; resid.=  4.49437620726101E-13
(PID.TID 0000.0001)  cg2d: iter=   129 ; resid.=  2.87261679266930E-13
(PID.TID 0000.0001)  cg2d: iter=   130 ; resid.=  2.02954565083189E-13
(PID.TID 0000.0001)  cg2d: iter=   131 ; resid.=  1.53173831812620E-13
(PID.TID 0000.0001)  cg2d: iter=   132 ; resid.=  1.26642380873778E-13
(PID.TID 0000.0001)  cg2d: iter=   133 ; resid.=  1.01835255813260E-13
(PID.TID 0000.0001)  cg2d: iter=   134 ; resid.=  8.54835171376604E-14
DEBUG_STATS_RL:    cg2d_x (SOLVE_FOR_PRESSURE)  min= -2.25947728435436E+01
DEBUG_STATS_RL:    cg2d_x (SOLVE_FOR_PRESSURE)  max=  1.19607577261387E+01
DEBUG_STATS_RL:    cg2d_x (SOLVE_FOR_PRESSURE) mean= -2.12927100995146E+00
DEBUG_STATS_RL:    cg2d_x (SOLVE_FOR_PRESSURE) S.D.=  8.97312044665380E+00
(PID.TID 0000.0001)      cg2d_init_res =   2.96025619654708E-01
(PID.TID 0000.0001)      cg2d_iters(min,last) =      -1     134
(PID.TID 0000.0001)      cg2d_last_res =   8.54835171376604E-14
(PID.TID 0000.0001) // =======================================================
(PID.TID 0000.0001) // Begin MONITOR dynamic field statistics
(PID.TID 0000.0001) // =======================================================
(PID.TID 0000.0001) %MON time_tsnumber                =                    83
(PID.TID 0000.0001) %MON time_secondsf                =   7.1712000000000E+06
(PID.TID 0000.0001) %MON dynstat_eta_max              =   1.2192413584239E+00
(PID.TID 0000.0001) %MON dynstat_eta_min              =  -2.3032388219719E+00
(PID.TID 0000.0001) %MON dynstat_eta_mean             =  -5.5965501791828E-03
(PID.TID 0000.0001) %MON dynstat_eta_sd               =   8.2318699000534E-01
(PID.TID 0000.0001) %MON dynstat_eta_del2             =   2.6391690286590E-03
(PID.TID 0000.0001) %MON dynstat_uvel_max             =   1.6381501962558E-01
(PID.TID 0000.0001) %MON dynstat_uvel_min             =  -1.3408614596919E-01
(PID.TID 0000.0001) %MON dynstat_uvel_mean            =   2.3150210085001E-03
(PID.TID 0000.0001) %MON dynstat_uvel_sd              =   1.9263345452226E-02
(PID.TID 0000.0001) %MON dynstat_uvel_del2            =   1.4879387569534E-04
(PID.TID 0000.0001) %MON dynstat_vvel_max             =   1.6137056815240E-01
(PID.TID 0000.0001) %MON dynstat_vvel_min             =  -1.2090667468039E-01
(PID.TID 0000.0001) %MON dynstat_vvel_mean            =   1.7895938667671E-05
(PID.TID 0000.0001) %MON dynstat_vvel_sd              =   1.0365225942953E-02
(PID.TID 0000.0001) %MON dynstat_vvel_del2            =   9.3446024767795E-05
(PID.TID 0000.0001) %MON dynstat_wvel_max             =   2.8361003471098E-04
(PID.TID 0000.0001) %MON dynstat_wvel_min             =  -1.1259834397663E-04
(PID.TID 0000.0001) %MON dynstat_wvel_mean            =   7.6314009548014E-23
(PID.TID 0000.0001) %MON dynstat_wvel_sd              =   1.4865071027452E-05
(PID.TID 0000.0001) %MON dynstat_wvel_del2            =   1.4587570735383E-07
(PID.TID 0000.0001) %MON dynstat_theta_max            =   3.1075424830343E+01
(PID.TID 0000.0001) %MON dynstat_theta_min            =  -1.9434165766786E+00
(PID.TID 0000.0001) %MON dynstat_theta_mean           =   3.6538613324038E+00
(PID.TID 0000.0001) %MON dynstat_theta_sd             =   4.4276153749163E+00
(PID.TID 0000.0001) %MON dynstat_theta_del2           =   4.8806566060985E-03
(PID.TID 0000.0001) %MON dynstat_salt_max             =   3.7494220253636E+01
(PID.TID 0000.0001) %MON dynstat_salt_min             =   2.9938601477946E+01
(PID.TID 0000.0001) %MON dynstat_salt_mean            =   3.4748036169053E+01
(PID.TID 0000.0001) %MON dynstat_salt_sd              =   2.9666198121131E-01
(PID.TID 0000.0001) %MON dynstat_salt_del2            =   9.9686196364230E-04
(PID.TID 0000.0001) %MON dynstat_sst_max              =   3.1075424830343E+01
(PID.TID 0000.0001) %MON dynstat_sst_min              =  -1.9434165766786E+00
(PID.TID 0000.0001) %MON dynstat_sst_mean             =   1.9091011973753E+01
(PID.TID 0000.0001) %MON dynstat_sst_sd               =   9.2055094872422E+00
(PID.TID 0000.0001) %MON dynstat_sst_del2             =   2.9080092721344E-02
(PID.TID 0000.0001) %MON dynstat_sss_max              =   3.7492999848097E+01
(PID.TID 0000.0001) %MON dynstat_sss_min              =   2.9938601477946E+01
(PID.TID 0000.0001) %MON dynstat_sss_mean             =   3.4868856234871E+01
(PID.TID 0000.0001) %MON dynstat_sss_sd               =   9.8839727093352E-01
(PID.TID 0000.0001) %MON dynstat_sss_del2             =   8.2363804280411E-03
(PID.TID 0000.0001) %MON forcing_qnet_max             =   2.4157104695638E+02
(PID.TID 0000.0001) %MON forcing_qnet_min             =  -1.6085961659749E+02
(PID.TID 0000.0001) %MON forcing_qnet_mean            =  -4.4858109873572E+00
(PID.TID 0000.0001) %MON forcing_qnet_sd              =   4.1223620087480E+01
(PID.TID 0000.0001) %MON forcing_qnet_del2            =   8.0717282221424E-01
(PID.TID 0000.0001) %MON forcing_qsw_max              =   0.0000000000000E+00
(PID.TID 0000.0001) %MON forcing_qsw_min              =   0.0000000000000E+00
(PID.TID 0000.0001) %MON forcing_qsw_mean             =   0.0000000000000E+00
(PID.TID 0000.0001) %MON forcing_qsw_sd               =   0.0000000000000E+00
(PID.TID 0000.0001) %MON forcing_qsw_del2             =   0.0000000000000E+00
(PID.TID 0000.0001) %MON forcing_empmr_max            =   6.8435624693090E-05
(PID.TID 0000.0001) %MON forcing_empmr_min            =  -8.3368340142442E-05
(PID.TID 0000.0001) %MON forcing_empmr_mean           =   3.9359349988573E-07
(PID.TID 0000.0001) %MON forcing_empmr_sd             =   2.5851876556707E-05
(PID.TID 0000.0001) %MON forcing_empmr_del2           =   3.6323282010377E-07
(PID.TID 0000.0001) %MON forcing_fu_max               =   3.5182609558105E-01
(PID.TID 0000.0001) %MON forcing_fu_min               =  -3.9508792459965E-01
(PID.TID 0000.0001) %MON forcing_fu_mean              =   1.9566384621858E-02
(PID.TID 0000.0001) %MON forcing_fu_sd                =   1.0063685282734E-01
(PID.TID 0000.0001) %MON forcing_fu_del2              =   7.9634795376390E-04
(PID.TID 0000.0001) %MON forcing_fv_max               =   1.8262833754222E-01
(PID.TID 0000.0001) %MON forcing_fv_min               =  -1.6947763959567E-01
(PID.TID 0000.0001) %MON forcing_fv_mean              =  -7.2742387334334E-03
(PID.TID 0000.0001) %MON forcing_fv_sd                =   4.0166105631794E-02
(PID.TID 0000.0001) %MON forcing_fv_del2              =   4.4910941931624E-04
(PID.TID 0000.0001) %MON trAdv_CFL_u_max              =   4.8794574395148E-02
(PID.TID 0000.0001) %MON trAdv_CFL_v_max              =   3.0902448693529E-02
(PID.TID 0000.0001) %MON trAdv_CFL_w_max              =   6.2371291619494E-02
(PID.TID 0000.0001) %MON advcfl_uvel_max              =   5.0195626622305E-02
(PID.TID 0000.0001) %MON advcfl_vvel_max              =   3.1351713319251E-02
(PID.TID 0000.0001) %MON advcfl_wvel_max              =   6.7133991778160E-02
(PID.TID 0000.0001) %MON advcfl_W_hf_max              =   7.2070314703025E-02
(PID.TID 0000.0001) %MON pe_b_mean                    =   8.6715806880513E-04
(PID.TID 0000.0001) %MON ke_max                       =   1.6827796796207E-02
(PID.TID 0000.0001) %MON ke_mean                      =   2.1925421136323E-04
(PID.TID 0000.0001) %MON ke_vol                       =   1.3226782436723E+18
(PID.TID 0000.0001) %MON vort_r_min                   =  -3.9836180459749E-07
(PID.TID 0000.0001) %MON vort_r_max                   =   5.2221830497953E-07
(PID.TID 0000.0001) %MON vort_a_mean                  =  -2.5274806997628E-05
(PID.TID 0000.0001) %MON vort_a_sd                    =   7.3604599165677E-05
(PID.TID 0000.0001) %MON vort_p_mean                  =  -3.1845655295704E-05
(PID.TID 0000.0001) %MON vort_p_sd                    =   1.3162560684249E-04
(PID.TID 0000.0001) %MON surfExpan_theta_mean         =  -7.6578996076275E-07
(PID.TID 0000.0001) %MON surfExpan_salt_mean          =   2.0890804663246E-07
(PID.TID 0000.0001) // =======================================================
(PID.TID 0000.0001) // End MONITOR dynamic field statistics
(PID.TID 0000.0001) // =======================================================
 EXTERNAL_FIELDS_LOAD,        83 : iP,iLd,i0,i1=    3    4    3    4 ; Wght=  0.7333333333  0.2666666667
 EXTERNAL_FIELDS_LOAD: (fu0,1),fu,fv= -2.7199E-02 -3.7252E-02 -2.9880E-02 -9.8149E-03
 EXTERNAL_FIELDS_LOAD: SST,SSS,Q,E-P= -1.2544E-01  3.4576E+01  1.8572E+02  8.7310E-06
DEBUG_STATS_RL:          Uvel (THERMODYNAMICS)  min= -1.34086145969189E-01
DEBUG_STATS_RL:          Uvel (THERMODYNAMICS)  max=  1.63815019625579E-01
DEBUG_STATS_RL:          Uvel (THERMODYNAMICS) mean=  6.33021816209442E-03
DEBUG_STATS_RL:          Uvel (THERMODYNAMICS) S.D.=  2.54631322623666E-02
DEBUG_STATS_RL:          Vvel (THERMODYNAMICS)  min= -1.20906674680387E-01
DEBUG_STATS_RL:          Vvel (THERMODYNAMICS)  max=  1.61370568152399E-01
DEBUG_STATS_RL:          Vvel (THERMODYNAMICS) mean=  1.14661610262320E-03
DEBUG_STATS_RL:          Vvel (THERMODYNAMICS) S.D.=  1.54886815307967E-02
DEBUG_STATS_RL:          Wvel (THERMODYNAMICS)  min= -1.12598343976633E-04
DEBUG_STATS_RL:          Wvel (THERMODYNAMICS)  max=  2.83610034710977E-04
DEBUG_STATS_RL:          Wvel (THERMODYNAMICS) mean=  3.10348367646534E-08
DEBUG_STATS_RL:          Wvel (THERMODYNAMICS) S.D.=  1.30100588885172E-05
DEBUG_STATS_RL:         Theta (THERMODYNAMICS)  min= -1.94210571530834E+00
DEBUG_STATS_RL:         Theta (THERMODYNAMICS)  max=  3.10966929490127E+01
DEBUG_STATS_RL:         Theta (THERMODYNAMICS) mean=  3.25075743786181E+00
DEBUG_STATS_RL:         Theta (THERMODYNAMICS) S.D.=  5.88758079333326E+00
DEBUG_STATS_RL:          Salt (THERMODYNAMICS)  min=  3.00000000000000E-02
DEBUG_STATS_RL:          Salt (THERMODYNAMICS)  max=  3.74938920468362E+01
DEBUG_STATS_RL:          Salt (THERMODYNAMICS) mean=  1.88748191551246E+01
DEBUG_STATS_RL:          Salt (THERMODYNAMICS) S.D.=  1.73003676995622E+01
DEBUG_STATS_RL:         GtNm1 (THERMODYNAMICS)  min= -3.23061230066751E-06
DEBUG_STATS_RL:         GtNm1 (THERMODYNAMICS)  max=  2.12474269798112E-06
DEBUG_STATS_RL:         GtNm1 (THERMODYNAMICS) mean= -3.10414441766136E-10
DEBUG_STATS_RL:         GtNm1 (THERMODYNAMICS) S.D.=  1.66041086297112E-07
DEBUG_STATS_RL:         GsNm1 (THERMODYNAMICS)  min= -5.67100575398479E-07
DEBUG_STATS_RL:         GsNm1 (THERMODYNAMICS)  max=  3.70607612647878E-07
DEBUG_STATS_RL:         GsNm1 (THERMODYNAMICS) mean= -1.18305320845800E-10
DEBUG_STATS_RL:         GsNm1 (THERMODYNAMICS) S.D.=  1.56176317744701E-08
DEBUG_STATS_RL:                EtaN (DYNAMICS)  min= -2.30323882197187E+00
DEBUG_STATS_RL:                EtaN (DYNAMICS)  max=  1.21924135842388E+00
DEBUG_STATS_RL:                EtaN (DYNAMICS) mean= -2.17051071350813E-01
DEBUG_STATS_RL:                EtaN (DYNAMICS) S.D.=  9.14691177028935E-01
DEBUG_STATS_RL:                Uvel (DYNAMICS)  min= -1.34086145969189E-01
DEBUG_STATS_RL:                Uvel (DYNAMICS)  max=  1.63815019625579E-01
DEBUG_STATS_RL:                Uvel (DYNAMICS) mean=  6.33021816209442E-03
DEBUG_STATS_RL:                Uvel (DYNAMICS) S.D.=  2.54631322623666E-02
DEBUG_STATS_RL:                Vvel (DYNAMICS)  min= -1.20906674680387E-01
DEBUG_STATS_RL:                Vvel (DYNAMICS)  max=  1.61370568152399E-01
DEBUG_STATS_RL:                Vvel (DYNAMICS) mean=  1.14661610262320E-03
DEBUG_STATS_RL:                Vvel (DYNAMICS) S.D.=  1.54886815307967E-02
DEBUG_STATS_RL:                Wvel (DYNAMICS)  min= -1.12598343976633E-04
DEBUG_STATS_RL:                Wvel (DYNAMICS)  max=  2.83610034710977E-04
DEBUG_STATS_RL:                Wvel (DYNAMICS) mean=  3.10348367646534E-08
DEBUG_STATS_RL:                Wvel (DYNAMICS) S.D.=  1.30100588885172E-05
DEBUG_STATS_RL:               Theta (DYNAMICS)  min= -1.94210571530834E+00
DEBUG_STATS_RL:               Theta (DYNAMICS)  max=  3.10966929490127E+01
DEBUG_STATS_RL:               Theta (DYNAMICS) mean=  3.25075743786181E+00
DEBUG_STATS_RL:               Theta (DYNAMICS) S.D.=  5.88758079333326E+00
DEBUG_STATS_RL:                Salt (DYNAMICS)  min=  3.00000000000000E-02
DEBUG_STATS_RL:                Salt (DYNAMICS)  max=  3.74938920468362E+01
DEBUG_STATS_RL:                Salt (DYNAMICS) mean=  1.88748191551246E+01
DEBUG_STATS_RL:                Salt (DYNAMICS) S.D.=  1.73003676995622E+01
DEBUG_STATS_RL:                  Gu (DYNAMICS)  min= -1.33331057709781E-01
DEBUG_STATS_RL:                  Gu (DYNAMICS)  max=  1.66828731950618E-01
DEBUG_STATS_RL:                  Gu (DYNAMICS) mean=  6.35418372766047E-03
DEBUG_STATS_RL:                  Gu (DYNAMICS) S.D.=  2.57151843394700E-02
DEBUG_STATS_RL:                  Gv (DYNAMICS)  min= -1.24234110211176E-01
DEBUG_STATS_RL:                  Gv (DYNAMICS)  max=  1.61563080259960E-01
DEBUG_STATS_RL:                  Gv (DYNAMICS) mean=  3.62766225415458E-03
DEBUG_STATS_RL:                  Gv (DYNAMICS) S.D.=  1.68654877359851E-02
DEBUG_STATS_RL:               GuNm1 (DYNAMICS)  min= -1.13765871740618E-05
DEBUG_STATS_RL:               GuNm1 (DYNAMICS)  max=  9.21178193925840E-06
DEBUG_STATS_RL:               GuNm1 (DYNAMICS) mean=  1.29546058769928E-08
DEBUG_STATS_RL:               GuNm1 (DYNAMICS) S.D.=  1.24061031763468E-06
DEBUG_STATS_RL:               GvNm1 (DYNAMICS)  min= -9.47286489358661E-06
DEBUG_STATS_RL:               GvNm1 (DYNAMICS)  max=  1.54247935405615E-05
DEBUG_STATS_RL:               GvNm1 (DYNAMICS) mean=  7.37202948440690E-07
DEBUG_STATS_RL:               GvNm1 (DYNAMICS) S.D.=  2.62473646143221E-06
DEBUG_STATS_RL:               GtNm1 (DYNAMICS)  min= -3.23061230066751E-06
DEBUG_STATS_RL:               GtNm1 (DYNAMICS)  max=  2.12474269798112E-06
DEBUG_STATS_RL:               GtNm1 (DYNAMICS) mean= -3.10414441766136E-10
DEBUG_STATS_RL:               GtNm1 (DYNAMICS) S.D.=  1.66041086297112E-07
DEBUG_STATS_RL:               GsNm1 (DYNAMICS)  min= -5.67100575398479E-07
DEBUG_STATS_RL:               GsNm1 (DYNAMICS)  max=  3.70607612647878E-07
DEBUG_STATS_RL:               GsNm1 (DYNAMICS) mean= -1.18305320845800E-10
DEBUG_STATS_RL:               GsNm1 (DYNAMICS) S.D.=  1.56176317744701E-08
DEBUG_STATS_RL:    cg2d_b (SOLVE_FOR_PRESSURE)  min= -3.08103544554366E+04
DEBUG_STATS_RL:    cg2d_b (SOLVE_FOR_PRESSURE)  max=  3.20096687594377E+04
DEBUG_STATS_RL:    cg2d_b (SOLVE_FOR_PRESSURE) mean=  5.39358098896627E+00
DEBUG_STATS_RL:    cg2d_b (SOLVE_FOR_PRESSURE) S.D.=  4.20370303832673E+03
 cg2d: Sum(rhs),rhsMax =   3.90074014301518E-01  2.10248074763003E+00
(PID.TID 0000.0001)  cg2d: iter=     1 ; resid.=  1.78166658861537E-01
(PID.TID 0000.0001)  cg2d: iter=     2 ; resid.=  1.60720350163163E-01
(PID.TID 0000.0001)  cg2d: iter=     3 ; resid.=  1.65934520693486E-01
(PID.TID 0000.0001)  cg2d: iter=     4 ; resid.=  1.53836606563827E-01
(PID.TID 0000.0001)  cg2d: iter=     5 ; resid.=  1.29845490554639E-01
(PID.TID 0000.0001)  cg2d: iter=     6 ; resid.=  1.12186030060105E-01
(PID.TID 0000.0001)  cg2d: iter=     7 ; resid.=  9.61404705058607E-02
(PID.TID 0000.0001)  cg2d: iter=     8 ; resid.=  7.43468754540033E-02
(PID.TID 0000.0001)  cg2d: iter=     9 ; resid.=  5.41224560376223E-02
(PID.TID 0000.0001)  cg2d: iter=    10 ; resid.=  4.47673213789093E-02
(PID.TID 0000.0001)  cg2d: iter=    11 ; resid.=  3.55336324529583E-02
(PID.TID 0000.0001)  cg2d: iter=    12 ; resid.=  3.09615068559037E-02
(PID.TID 0000.0001)  cg2d: iter=    13 ; resid.=  2.45812380466042E-02
(PID.TID 0000.0001)  cg2d: iter=    14 ; resid.=  2.01891961109139E-02
(PID.TID 0000.0001)  cg2d: iter=    15 ; resid.=  1.67694282846684E-02
(PID.TID 0000.0001)  cg2d: iter=    16 ; resid.=  1.42457053225216E-02
(PID.TID 0000.0001)  cg2d: iter=    17 ; resid.=  1.28320726759561E-02
(PID.TID 0000.0001)  cg2d: iter=    18 ; resid.=  1.08275211353594E-02
(PID.TID 0000.0001)  cg2d: iter=    19 ; resid.=  8.37807705207607E-03
(PID.TID 0000.0001)  cg2d: iter=    20 ; resid.=  7.75429736146792E-03
(PID.TID 0000.0001)  cg2d: iter=    21 ; resid.=  6.34806123289572E-03
(PID.TID 0000.0001)  cg2d: iter=    22 ; resid.=  5.90600221640690E-03
(PID.TID 0000.0001)  cg2d: iter=    23 ; resid.=  4.78239132509054E-03
(PID.TID 0000.0001)  cg2d: iter=    24 ; resid.=  3.73601594069262E-03
(PID.TID 0000.0001)  cg2d: iter=    25 ; resid.=  2.85067977252538E-03
(PID.TID 0000.0001)  cg2d: iter=    26 ; resid.=  2.24258645656405E-03
(PID.TID 0000.0001)  cg2d: iter=    27 ; resid.=  1.89933675605153E-03
(PID.TID 0000.0001)  cg2d: iter=    28 ; resid.=  1.63078859911917E-03
(PID.TID 0000.0001)  cg2d: iter=    29 ; resid.=  1.34496465568788E-03
(PID.TID 0000.0001)  cg2d: iter=    30 ; resid.=  1.06917323151214E-03
(PID.TID 0000.0001)  cg2d: iter=    31 ; resid.=  8.15318449401196E-04
(PID.TID 0000.0001)  cg2d: iter=    32 ; resid.=  6.10908405070361E-04
(PID.TID 0000.0001)  cg2d: iter=    33 ; resid.=  4.78381552703572E-04
(PID.TID 0000.0001)  cg2d: iter=    34 ; resid.=  4.12328743810709E-04
(PID.TID 0000.0001)  cg2d: iter=    35 ; resid.=  3.74092081474594E-04
(PID.TID 0000.0001)  cg2d: iter=    36 ; resid.=  3.21352149422075E-04
(PID.TID 0000.0001)  cg2d: iter=    37 ; resid.=  2.74764921025937E-04
(PID.TID 0000.0001)  cg2d: iter=    38 ; resid.=  2.23836081636980E-04
(PID.TID 0000.0001)  cg2d: iter=    39 ; resid.=  1.92495177640471E-04
(PID.TID 0000.0001)  cg2d: iter=    40 ; resid.=  1.54666574155792E-04
(PID.TID 0000.0001)  cg2d: iter=    41 ; resid.=  1.21471566215007E-04
(PID.TID 0000.0001)  cg2d: iter=    42 ; resid.=  9.91039340976112E-05
(PID.TID 0000.0001)  cg2d: iter=    43 ; resid.=  8.90695995488788E-05
(PID.TID 0000.0001)  cg2d: iter=    44 ; resid.=  7.31331621474194E-05
(PID.TID 0000.0001)  cg2d: iter=    45 ; resid.=  6.01881344565554E-05
(PID.TID 0000.0001)  cg2d: iter=    46 ; resid.=  4.63120141496447E-05
(PID.TID 0000.0001)  cg2d: iter=    47 ; resid.=  3.57496183099035E-05
(PID.TID 0000.0001)  cg2d: iter=    48 ; resid.=  3.05256594890166E-05
(PID.TID 0000.0001)  cg2d: iter=    49 ; resid.=  2.61022115320507E-05
(PID.TID 0000.0001)  cg2d: iter=    50 ; resid.=  2.26757233273546E-05
(PID.TID 0000.0001)  cg2d: iter=    51 ; resid.=  1.98777227340394E-05
(PID.TID 0000.0001)  cg2d: iter=    52 ; resid.=  1.78401081841576E-05
(PID.TID 0000.0001)  cg2d: iter=    53 ; resid.=  1.69007660070178E-05
(PID.TID 0000.0001)  cg2d: iter=    54 ; resid.=  1.38304790454787E-05
(PID.TID 0000.0001)  cg2d: iter=    55 ; resid.=  1.22813574325734E-05
(PID.TID 0000.0001)  cg2d: iter=    56 ; resid.=  9.86192414131517E-06
(PID.TID 0000.0001)  cg2d: iter=    57 ; resid.=  8.08072223012374E-06
(PID.TID 0000.0001)  cg2d: iter=    58 ; resid.=  6.11727752369978E-06
(PID.TID 0000.0001)  cg2d: iter=    59 ; resid.=  4.63510042031163E-06
(PID.TID 0000.0001)  cg2d: iter=    60 ; resid.=  4.05806859311056E-06
(PID.TID 0000.0001)  cg2d: iter=    61 ; resid.=  3.40002733042023E-06
(PID.TID 0000.0001)  cg2d: iter=    62 ; resid.=  2.76727291861512E-06
(PID.TID 0000.0001)  cg2d: iter=    63 ; resid.=  2.24908015275630E-06
(PID.TID 0000.0001)  cg2d: iter=    64 ; resid.=  1.84379693261862E-06
(PID.TID 0000.0001)  cg2d: iter=    65 ; resid.=  1.63493570112768E-06
(PID.TID 0000.0001)  cg2d: iter=    66 ; resid.=  1.28001724202745E-06
(PID.TID 0000.0001)  cg2d: iter=    67 ; resid.=  1.08343864254641E-06
(PID.TID 0000.0001)  cg2d: iter=    68 ; resid.=  1.02992596799571E-06
(PID.TID 0000.0001)  cg2d: iter=    69 ; resid.=  8.56127520994540E-07
(PID.TID 0000.0001)  cg2d: iter=    70 ; resid.=  6.97346774477529E-07
(PID.TID 0000.0001)  cg2d: iter=    71 ; resid.=  5.52035832604877E-07
(PID.TID 0000.0001)  cg2d: iter=    72 ; resid.=  5.04996264602380E-07
(PID.TID 0000.0001)  cg2d: iter=    73 ; resid.=  4.32841606698692E-07
(PID.TID 0000.0001)  cg2d: iter=    74 ; resid.=  3.58699780530777E-07
(PID.TID 0000.0001)  cg2d: iter=    75 ; resid.=  3.11500946364380E-07
(PID.TID 0000.0001)  cg2d: iter=    76 ; resid.=  2.54427977915219E-07
(PID.TID 0000.0001)  cg2d: iter=    77 ; resid.=  2.08608206912153E-07
(PID.TID 0000.0001)  cg2d: iter=    78 ; resid.=  1.76683565503934E-07
(PID.TID 0000.0001)  cg2d: iter=    79 ; resid.=  1.34031271174362E-07
(PID.TID 0000.0001)  cg2d: iter=    80 ; resid.=  1.00558490117184E-07
(PID.TID 0000.0001)  cg2d: iter=    81 ; resid.=  7.44111550592212E-08
(PID.TID 0000.0001)  cg2d: iter=    82 ; resid.=  5.56415017981453E-08
(PID.TID 0000.0001)  cg2d: iter=    83 ; resid.=  4.44888830331939E-08
(PID.TID 0000.0001)  cg2d: iter=    84 ; resid.=  3.44123029877495E-08
(PID.TID 0000.0001)  cg2d: iter=    85 ; resid.=  2.47286549353863E-08
(PID.TID 0000.0001)  cg2d: iter=    86 ; resid.=  1.87322983389584E-08
(PID.TID 0000.0001)  cg2d: iter=    87 ; resid.=  1.56481489752220E-08
(PID.TID 0000.0001)  cg2d: iter=    88 ; resid.=  1.25621218691229E-08
(PID.TID 0000.0001)  cg2d: iter=    89 ; resid.=  1.02586039098523E-08
(PID.TID 0000.0001)  cg2d: iter=    90 ; resid.=  8.82657288916459E-09
(PID.TID 0000.0001)  cg2d: iter=    91 ; resid.=  7.16481243787200E-09
(PID.TID 0000.0001)  cg2d: iter=    92 ; resid.=  5.94091947692735E-09
(PID.TID 0000.0001)  cg2d: iter=    93 ; resid.=  4.45201619780431E-09
(PID.TID 0000.0001)  cg2d: iter=    94 ; resid.=  3.49432842561410E-09
(PID.TID 0000.0001)  cg2d: iter=    95 ; resid.=  2.99466352557377E-09
(PID.TID 0000.0001)  cg2d: iter=    96 ; resid.=  2.28846627273421E-09
(PID.TID 0000.0001)  cg2d: iter=    97 ; resid.=  1.88860362561251E-09
(PID.TID 0000.0001)  cg2d: iter=    98 ; resid.=  1.57738433377978E-09
(PID.TID 0000.0001)  cg2d: iter=    99 ; resid.=  1.40662557342563E-09
(PID.TID 0000.0001)  cg2d: iter=   100 ; resid.=  1.19455519743276E-09
(PID.TID 0000.0001)  cg2d: iter=   101 ; resid.=  9.35858224019820E-10
(PID.TID 0000.0001)  cg2d: iter=   102 ; resid.=  7.27263904074193E-10
(PID.TID 0000.0001)  cg2d: iter=   103 ; resid.=  5.45164817277204E-10
(PID.TID 0000.0001)  cg2d: iter=   104 ; resid.=  4.59123350720136E-10
(PID.TID 0000.0001)  cg2d: iter=   105 ; resid.=  3.75963209161150E-10
(PID.TID 0000.0001)  cg2d: iter=   106 ; resid.=  2.81315330211085E-10
(PID.TID 0000.0001)  cg2d: iter=   107 ; resid.=  2.06198037678647E-10
(PID.TID 0000.0001)  cg2d: iter=   108 ; resid.=  1.70279707265807E-10
(PID.TID 0000.0001)  cg2d: iter=   109 ; resid.=  1.23676961024403E-10
(PID.TID 0000.0001)  cg2d: iter=   110 ; resid.=  9.34120524001356E-11
(PID.TID 0000.0001)  cg2d: iter=   111 ; resid.=  7.37386135239819E-11
(PID.TID 0000.0001)  cg2d: iter=   112 ; resid.=  5.07185716771316E-11
(PID.TID 0000.0001)  cg2d: iter=   113 ; resid.=  3.57502569991211E-11
(PID.TID 0000.0001)  cg2d: iter=   114 ; resid.=  2.76376424362344E-11
(PID.TID 0000.0001)  cg2d: iter=   115 ; resid.=  2.05411813928901E-11
(PID.TID 0000.0001)  cg2d: iter=   116 ; resid.=  1.57823493724995E-11
(PID.TID 0000.0001)  cg2d: iter=   117 ; resid.=  1.25114767830781E-11
(PID.TID 0000.0001)  cg2d: iter=   118 ; resid.=  9.67755179609079E-12
(PID.TID 0000.0001)  cg2d: iter=   119 ; resid.=  7.76695813152235E-12
(PID.TID 0000.0001)  cg2d: iter=   120 ; resid.=  5.93613734137516E-12
(PID.TID 0000.0001)  cg2d: iter=   121 ; resid.=  4.46641853517623E-12
(PID.TID 0000.0001)  cg2d: iter=   122 ; resid.=  3.51551975181969E-12
(PID.TID 0000.0001)  cg2d: iter=   123 ; resid.=  2.69156836076965E-12
(PID.TID 0000.0001)  cg2d: iter=   124 ; resid.=  2.12770232516567E-12
(PID.TID 0000.0001)  cg2d: iter=   125 ; resid.=  1.62801066117012E-12
(PID.TID 0000.0001)  cg2d: iter=   126 ; resid.=  1.15262183855280E-12
(PID.TID 0000.0001)  cg2d: iter=   127 ; resid.=  7.47591983376551E-13
(PID.TID 0000.0001)  cg2d: iter=   128 ; resid.=  4.66918308053064E-13
(PID.TID 0000.0001)  cg2d: iter=   129 ; resid.=  2.97394988847370E-13
(PID.TID 0000.0001)  cg2d: iter=   130 ; resid.=  2.04748015601724E-13
(PID.TID 0000.0001)  cg2d: iter=   131 ; resid.=  1.50884310492340E-13
(PID.TID 0000.0001)  cg2d: iter=   132 ; resid.=  1.24183529664147E-13
(PID.TID 0000.0001)  cg2d: iter=   133 ; resid.=  1.02417515989294E-13
(PID.TID 0000.0001)  cg2d: iter=   134 ; resid.=  8.82186085443284E-14
DEBUG_STATS_RL:    cg2d_x (SOLVE_FOR_PRESSURE)  min= -2.19902499884105E+01
DEBUG_STATS_RL:    cg2d_x (SOLVE_FOR_PRESSURE)  max=  1.15160977068095E+01
DEBUG_STATS_RL:    cg2d_x (SOLVE_FOR_PRESSURE) mean= -2.09665121531971E+00
DEBUG_STATS_RL:    cg2d_x (SOLVE_FOR_PRESSURE) S.D.=  8.66808405703062E+00
(PID.TID 0000.0001)      cg2d_init_res =   2.90730982587150E-01
(PID.TID 0000.0001)      cg2d_iters(min,last) =      -1     134
(PID.TID 0000.0001)      cg2d_last_res =   8.82186085443284E-14
(PID.TID 0000.0001) // =======================================================
(PID.TID 0000.0001) // Begin MONITOR dynamic field statistics
(PID.TID 0000.0001) // =======================================================
(PID.TID 0000.0001) %MON time_tsnumber                =                    84
(PID.TID 0000.0001) %MON time_secondsf                =   7.2576000000000E+06
(PID.TID 0000.0001) %MON dynstat_eta_max              =   1.1739141393281E+00
(PID.TID 0000.0001) %MON dynstat_eta_min              =  -2.2416156970858E+00
(PID.TID 0000.0001) %MON dynstat_eta_mean             =  -5.6275329800225E-03
(PID.TID 0000.0001) %MON dynstat_eta_sd               =   7.8940993662899E-01
(PID.TID 0000.0001) %MON dynstat_eta_del2             =   2.6495862316095E-03
(PID.TID 0000.0001) %MON dynstat_uvel_max             =   1.6148769639327E-01
(PID.TID 0000.0001) %MON dynstat_uvel_min             =  -1.3621391055123E-01
(PID.TID 0000.0001) %MON dynstat_uvel_mean            =   2.2587126757585E-03
(PID.TID 0000.0001) %MON dynstat_uvel_sd              =   1.9165569654231E-02
(PID.TID 0000.0001) %MON dynstat_uvel_del2            =   1.4966414470974E-04
(PID.TID 0000.0001) %MON dynstat_vvel_max             =   1.6290257985520E-01
(PID.TID 0000.0001) %MON dynstat_vvel_min             =  -1.1993902681667E-01
(PID.TID 0000.0001) %MON dynstat_vvel_mean            =   4.7608974440721E-05
(PID.TID 0000.0001) %MON dynstat_vvel_sd              =   1.0332518474399E-02
(PID.TID 0000.0001) %MON dynstat_vvel_del2            =   9.3658222909546E-05
(PID.TID 0000.0001) %MON dynstat_wvel_max             =   2.8051992708023E-04
(PID.TID 0000.0001) %MON dynstat_wvel_min             =  -1.0885706017829E-04
(PID.TID 0000.0001) %MON dynstat_wvel_mean            =   8.2882570838711E-23
(PID.TID 0000.0001) %MON dynstat_wvel_sd              =   1.4753701678436E-05
(PID.TID 0000.0001) %MON dynstat_wvel_del2            =   1.4405384959117E-07
(PID.TID 0000.0001) %MON dynstat_theta_max            =   3.1096692949013E+01
(PID.TID 0000.0001) %MON dynstat_theta_min            =  -1.9421057153083E+00
(PID.TID 0000.0001) %MON dynstat_theta_mean           =   3.6539023908034E+00
(PID.TID 0000.0001) %MON dynstat_theta_sd             =   4.4278098866531E+00
(PID.TID 0000.0001) %MON dynstat_theta_del2           =   4.8783624364496E-03
(PID.TID 0000.0001) %MON dynstat_salt_max             =   3.7493892046836E+01
(PID.TID 0000.0001) %MON dynstat_salt_min             =   2.9942110483558E+01
(PID.TID 0000.0001) %MON dynstat_salt_mean            =   3.4748031509991E+01
(PID.TID 0000.0001) %MON dynstat_salt_sd              =   2.9665857096626E-01
(PID.TID 0000.0001) %MON dynstat_salt_del2            =   9.9699045142899E-04
(PID.TID 0000.0001) %MON dynstat_sst_max              =   3.1096692949013E+01
(PID.TID 0000.0001) %MON dynstat_sst_min              =  -1.9421057153083E+00
(PID.TID 0000.0001) %MON dynstat_sst_mean             =   1.9090401474949E+01
(PID.TID 0000.0001) %MON dynstat_sst_sd               =   9.2133254846595E+00
(PID.TID 0000.0001) %MON dynstat_sst_del2             =   2.9110061268786E-02
(PID.TID 0000.0001) %MON dynstat_sss_max              =   3.7493722645865E+01
(PID.TID 0000.0001) %MON dynstat_sss_min              =   2.9942110483558E+01
(PID.TID 0000.0001) %MON dynstat_sss_mean             =   3.4868794586651E+01
(PID.TID 0000.0001) %MON dynstat_sss_sd               =   9.8875665911520E-01
(PID.TID 0000.0001) %MON dynstat_sss_del2             =   8.2430340657470E-03
(PID.TID 0000.0001) %MON forcing_qnet_max             =   2.3686581217448E+02
(PID.TID 0000.0001) %MON forcing_qnet_min             =  -1.6043162027995E+02
(PID.TID 0000.0001) %MON forcing_qnet_mean            =  -4.0887745583875E+00
(PID.TID 0000.0001) %MON forcing_qnet_sd              =   4.0727838671898E+01
(PID.TID 0000.0001) %MON forcing_qnet_del2            =   8.0254510514999E-01
(PID.TID 0000.0001) %MON forcing_qsw_max              =   0.0000000000000E+00
(PID.TID 0000.0001) %MON forcing_qsw_min              =   0.0000000000000E+00
(PID.TID 0000.0001) %MON forcing_qsw_mean             =   0.0000000000000E+00
(PID.TID 0000.0001) %MON forcing_qsw_sd               =   0.0000000000000E+00
(PID.TID 0000.0001) %MON forcing_qsw_del2             =   0.0000000000000E+00
(PID.TID 0000.0001) %MON forcing_empmr_max            =   6.8339453681195E-05
(PID.TID 0000.0001) %MON forcing_empmr_min            =  -8.3383186222363E-05
(PID.TID 0000.0001) %MON forcing_empmr_mean           =   3.7114813505816E-07
(PID.TID 0000.0001) %MON forcing_empmr_sd             =   2.5803474193734E-05
(PID.TID 0000.0001) %MON forcing_empmr_del2           =   3.6306311996696E-07
(PID.TID 0000.0001) %MON forcing_fu_max               =   3.5133404135704E-01
(PID.TID 0000.0001) %MON forcing_fu_min               =  -3.9602099657059E-01
(PID.TID 0000.0001) %MON forcing_fu_mean              =   1.9439192524925E-02
(PID.TID 0000.0001) %MON forcing_fu_sd                =   1.0051726632131E-01
(PID.TID 0000.0001) %MON forcing_fu_del2              =   7.9144391050227E-04
(PID.TID 0000.0001) %MON forcing_fv_max               =   1.8253233631452E-01
(PID.TID 0000.0001) %MON forcing_fv_min               =  -1.6606992681821E-01
(PID.TID 0000.0001) %MON forcing_fv_mean              =  -7.2377620610603E-03
(PID.TID 0000.0001) %MON forcing_fv_sd                =   3.9899607945901E-02
(PID.TID 0000.0001) %MON forcing_fv_del2              =   4.4280534116419E-04
(PID.TID 0000.0001) %MON trAdv_CFL_u_max              =   5.0205821713077E-02
(PID.TID 0000.0001) %MON trAdv_CFL_v_max              =   3.1300761945466E-02
(PID.TID 0000.0001) %MON trAdv_CFL_w_max              =   6.2830530766739E-02
(PID.TID 0000.0001) %MON advcfl_uvel_max              =   5.0778049740064E-02
(PID.TID 0000.0001) %MON advcfl_vvel_max              =   3.1649358622593E-02
(PID.TID 0000.0001) %MON advcfl_wvel_max              =   6.6402525204745E-02
(PID.TID 0000.0001) %MON advcfl_W_hf_max              =   7.1285063822741E-02
(PID.TID 0000.0001) %MON pe_b_mean                    =   7.9745915415278E-04
(PID.TID 0000.0001) %MON ke_max                       =   1.6284863002715E-02
(PID.TID 0000.0001) %MON ke_mean                      =   2.1712710749358E-04
(PID.TID 0000.0001) %MON ke_vol                       =   1.3226782436723E+18
(PID.TID 0000.0001) %MON vort_r_min                   =  -4.0007254605538E-07
(PID.TID 0000.0001) %MON vort_r_max                   =   5.6284202891729E-07
(PID.TID 0000.0001) %MON vort_a_mean                  =  -2.5274807108214E-05
(PID.TID 0000.0001) %MON vort_a_sd                    =   7.3604586113712E-05
(PID.TID 0000.0001) %MON vort_p_mean                  =  -3.1845655435041E-05
(PID.TID 0000.0001) %MON vort_p_sd                    =   1.3162547473544E-04
(PID.TID 0000.0001) %MON surfExpan_theta_mean         =  -8.7063942137003E-07
(PID.TID 0000.0001) %MON surfExpan_salt_mean          =   2.3868891105177E-07
(PID.TID 0000.0001) // =======================================================
(PID.TID 0000.0001) // End MONITOR dynamic field statistics
(PID.TID 0000.0001) // =======================================================
 EXTERNAL_FIELDS_LOAD,        84 : iP,iLd,i0,i1=    3    4    3    4 ; Wght=  0.7000000000  0.3000000000
 EXTERNAL_FIELDS_LOAD: (fu0,1),fu,fv= -2.7199E-02 -3.7252E-02 -3.0215E-02 -1.0969E-02
 EXTERNAL_FIELDS_LOAD: SST,SSS,Q,E-P= -1.1813E-01  3.4576E+01  1.8201E+02  8.6873E-06
DEBUG_STATS_RL:          Uvel (THERMODYNAMICS)  min= -1.36213910551234E-01
DEBUG_STATS_RL:          Uvel (THERMODYNAMICS)  max=  1.61487696393274E-01
DEBUG_STATS_RL:          Uvel (THERMODYNAMICS) mean=  6.24628109739585E-03
DEBUG_STATS_RL:          Uvel (THERMODYNAMICS) S.D.=  2.53649723284925E-02
DEBUG_STATS_RL:          Vvel (THERMODYNAMICS)  min= -1.19939026816672E-01
DEBUG_STATS_RL:          Vvel (THERMODYNAMICS)  max=  1.62902579855204E-01
DEBUG_STATS_RL:          Vvel (THERMODYNAMICS) mean=  1.16846204587739E-03
DEBUG_STATS_RL:          Vvel (THERMODYNAMICS) S.D.=  1.54316132073270E-02
DEBUG_STATS_RL:          Wvel (THERMODYNAMICS)  min= -1.08857060178291E-04
DEBUG_STATS_RL:          Wvel (THERMODYNAMICS)  max=  2.80519927080232E-04
DEBUG_STATS_RL:          Wvel (THERMODYNAMICS) mean=  3.14804809037103E-08
DEBUG_STATS_RL:          Wvel (THERMODYNAMICS) S.D.=  1.29020552281352E-05
DEBUG_STATS_RL:         Theta (THERMODYNAMICS)  min= -1.94087422176825E+00
DEBUG_STATS_RL:         Theta (THERMODYNAMICS)  max=  3.11175501638492E+01
DEBUG_STATS_RL:         Theta (THERMODYNAMICS) mean=  3.25069129650381E+00
DEBUG_STATS_RL:         Theta (THERMODYNAMICS) S.D.=  5.88789394597281E+00
DEBUG_STATS_RL:          Salt (THERMODYNAMICS)  min=  3.00000000000000E-02
DEBUG_STATS_RL:          Salt (THERMODYNAMICS)  max=  3.74943767615205E+01
DEBUG_STATS_RL:          Salt (THERMODYNAMICS) mean=  1.88748138169141E+01
DEBUG_STATS_RL:          Salt (THERMODYNAMICS) S.D.=  1.73003634240539E+01
DEBUG_STATS_RL:         GtNm1 (THERMODYNAMICS)  min= -3.31616444007788E-06
DEBUG_STATS_RL:         GtNm1 (THERMODYNAMICS)  max=  2.29427391153229E-06
DEBUG_STATS_RL:         GtNm1 (THERMODYNAMICS) mean= -3.58025677647523E-10
DEBUG_STATS_RL:         GtNm1 (THERMODYNAMICS) S.D.=  1.67777690972176E-07
DEBUG_STATS_RL:         GsNm1 (THERMODYNAMICS)  min= -6.63190479114171E-07
DEBUG_STATS_RL:         GsNm1 (THERMODYNAMICS)  max=  4.34619987837905E-07
DEBUG_STATS_RL:         GsNm1 (THERMODYNAMICS) mean= -1.47916057741539E-10
DEBUG_STATS_RL:         GsNm1 (THERMODYNAMICS) S.D.=  1.62470802396110E-08
DEBUG_STATS_RL:                EtaN (DYNAMICS)  min= -2.24161569708579E+00
DEBUG_STATS_RL:                EtaN (DYNAMICS)  max=  1.17391413932812E+00
DEBUG_STATS_RL:                EtaN (DYNAMICS) mean= -2.13725913895999E-01
DEBUG_STATS_RL:                EtaN (DYNAMICS) S.D.=  8.83596743835954E-01
DEBUG_STATS_RL:                Uvel (DYNAMICS)  min= -1.36213910551234E-01
DEBUG_STATS_RL:                Uvel (DYNAMICS)  max=  1.61487696393274E-01
DEBUG_STATS_RL:                Uvel (DYNAMICS) mean=  6.24628109739585E-03
DEBUG_STATS_RL:                Uvel (DYNAMICS) S.D.=  2.53649723284925E-02
DEBUG_STATS_RL:                Vvel (DYNAMICS)  min= -1.19939026816672E-01
DEBUG_STATS_RL:                Vvel (DYNAMICS)  max=  1.62902579855204E-01
DEBUG_STATS_RL:                Vvel (DYNAMICS) mean=  1.16846204587739E-03
DEBUG_STATS_RL:                Vvel (DYNAMICS) S.D.=  1.54316132073270E-02
DEBUG_STATS_RL:                Wvel (DYNAMICS)  min= -1.08857060178291E-04
DEBUG_STATS_RL:                Wvel (DYNAMICS)  max=  2.80519927080232E-04
DEBUG_STATS_RL:                Wvel (DYNAMICS) mean=  3.14804809037103E-08
DEBUG_STATS_RL:                Wvel (DYNAMICS) S.D.=  1.29020552281352E-05
DEBUG_STATS_RL:               Theta (DYNAMICS)  min= -1.94087422176825E+00
DEBUG_STATS_RL:               Theta (DYNAMICS)  max=  3.11175501638492E+01
DEBUG_STATS_RL:               Theta (DYNAMICS) mean=  3.25069129650381E+00
DEBUG_STATS_RL:               Theta (DYNAMICS) S.D.=  5.88789394597281E+00
DEBUG_STATS_RL:                Salt (DYNAMICS)  min=  3.00000000000000E-02
DEBUG_STATS_RL:                Salt (DYNAMICS)  max=  3.74943767615205E+01
DEBUG_STATS_RL:                Salt (DYNAMICS) mean=  1.88748138169141E+01
DEBUG_STATS_RL:                Salt (DYNAMICS) S.D.=  1.73003634240539E+01
DEBUG_STATS_RL:                  Gu (DYNAMICS)  min= -1.35431620454800E-01
DEBUG_STATS_RL:                  Gu (DYNAMICS)  max=  1.63520379129377E-01
DEBUG_STATS_RL:                  Gu (DYNAMICS) mean=  6.25445711255217E-03
DEBUG_STATS_RL:                  Gu (DYNAMICS) S.D.=  2.56046666187359E-02
DEBUG_STATS_RL:                  Gv (DYNAMICS)  min= -1.22570248691058E-01
DEBUG_STATS_RL:                  Gv (DYNAMICS)  max=  1.63044347058748E-01
DEBUG_STATS_RL:                  Gv (DYNAMICS) mean=  3.60817684703901E-03
DEBUG_STATS_RL:                  Gv (DYNAMICS) S.D.=  1.68108724690427E-02
DEBUG_STATS_RL:               GuNm1 (DYNAMICS)  min= -1.12900439586335E-05
DEBUG_STATS_RL:               GuNm1 (DYNAMICS)  max=  9.18300711246785E-06
DEBUG_STATS_RL:               GuNm1 (DYNAMICS) mean=  1.37076885086255E-08
DEBUG_STATS_RL:               GuNm1 (DYNAMICS) S.D.=  1.24121824560278E-06
DEBUG_STATS_RL:               GvNm1 (DYNAMICS)  min= -9.42588709468703E-06
DEBUG_STATS_RL:               GvNm1 (DYNAMICS)  max=  1.53925080882977E-05
DEBUG_STATS_RL:               GvNm1 (DYNAMICS) mean=  7.37263027264796E-07
DEBUG_STATS_RL:               GvNm1 (DYNAMICS) S.D.=  2.62348212270046E-06
DEBUG_STATS_RL:               GtNm1 (DYNAMICS)  min= -3.31616444007788E-06
DEBUG_STATS_RL:               GtNm1 (DYNAMICS)  max=  2.29427391153229E-06
DEBUG_STATS_RL:               GtNm1 (DYNAMICS) mean= -3.58025677647523E-10
DEBUG_STATS_RL:               GtNm1 (DYNAMICS) S.D.=  1.67777690972176E-07
DEBUG_STATS_RL:               GsNm1 (DYNAMICS)  min= -6.63190479114171E-07
DEBUG_STATS_RL:               GsNm1 (DYNAMICS)  max=  4.34619987837905E-07
DEBUG_STATS_RL:               GsNm1 (DYNAMICS) mean= -1.47916057741539E-10
DEBUG_STATS_RL:               GsNm1 (DYNAMICS) S.D.=  1.62470802396110E-08
DEBUG_STATS_RL:    cg2d_b (SOLVE_FOR_PRESSURE)  min= -3.17487487984250E+04
DEBUG_STATS_RL:    cg2d_b (SOLVE_FOR_PRESSURE)  max=  3.25280054764776E+04
DEBUG_STATS_RL:    cg2d_b (SOLVE_FOR_PRESSURE) mean=  5.42147994457337E+00
DEBUG_STATS_RL:    cg2d_b (SOLVE_FOR_PRESSURE) S.D.=  4.20346399682607E+03
 cg2d: Sum(rhs),rhsMax =   3.85843702613754E-01  2.13652649101326E+00
(PID.TID 0000.0001)  cg2d: iter=     1 ; resid.=  1.78892563646736E-01
(PID.TID 0000.0001)  cg2d: iter=     2 ; resid.=  1.68557292265845E-01
(PID.TID 0000.0001)  cg2d: iter=     3 ; resid.=  1.74248089764327E-01
(PID.TID 0000.0001)  cg2d: iter=     4 ; resid.=  1.60591000807948E-01
(PID.TID 0000.0001)  cg2d: iter=     5 ; resid.=  1.40276174543076E-01
(PID.TID 0000.0001)  cg2d: iter=     6 ; resid.=  1.21058472593314E-01
(PID.TID 0000.0001)  cg2d: iter=     7 ; resid.=  1.00002378877270E-01
(PID.TID 0000.0001)  cg2d: iter=     8 ; resid.=  7.43646946145503E-02
(PID.TID 0000.0001)  cg2d: iter=     9 ; resid.=  5.33256606014083E-02
(PID.TID 0000.0001)  cg2d: iter=    10 ; resid.=  4.41783659986563E-02
(PID.TID 0000.0001)  cg2d: iter=    11 ; resid.=  3.53501072531259E-02
(PID.TID 0000.0001)  cg2d: iter=    12 ; resid.=  3.10109544785030E-02
(PID.TID 0000.0001)  cg2d: iter=    13 ; resid.=  2.51484951674432E-02
(PID.TID 0000.0001)  cg2d: iter=    14 ; resid.=  2.09219851929596E-02
(PID.TID 0000.0001)  cg2d: iter=    15 ; resid.=  1.74613773616790E-02
(PID.TID 0000.0001)  cg2d: iter=    16 ; resid.=  1.51991370510606E-02
(PID.TID 0000.0001)  cg2d: iter=    17 ; resid.=  1.35812692904677E-02
(PID.TID 0000.0001)  cg2d: iter=    18 ; resid.=  1.12771750940905E-02
(PID.TID 0000.0001)  cg2d: iter=    19 ; resid.=  8.63397856228293E-03
(PID.TID 0000.0001)  cg2d: iter=    20 ; resid.=  7.90633977592911E-03
(PID.TID 0000.0001)  cg2d: iter=    21 ; resid.=  6.47534488724928E-03
(PID.TID 0000.0001)  cg2d: iter=    22 ; resid.=  5.99812621286521E-03
(PID.TID 0000.0001)  cg2d: iter=    23 ; resid.=  4.87613294181476E-03
(PID.TID 0000.0001)  cg2d: iter=    24 ; resid.=  3.87679464374089E-03
(PID.TID 0000.0001)  cg2d: iter=    25 ; resid.=  2.90017579165267E-03
(PID.TID 0000.0001)  cg2d: iter=    26 ; resid.=  2.24922810665095E-03
(PID.TID 0000.0001)  cg2d: iter=    27 ; resid.=  1.87156940456416E-03
(PID.TID 0000.0001)  cg2d: iter=    28 ; resid.=  1.59262631027757E-03
(PID.TID 0000.0001)  cg2d: iter=    29 ; resid.=  1.32012324320958E-03
(PID.TID 0000.0001)  cg2d: iter=    30 ; resid.=  1.06770267109669E-03
(PID.TID 0000.0001)  cg2d: iter=    31 ; resid.=  8.24399701087353E-04
(PID.TID 0000.0001)  cg2d: iter=    32 ; resid.=  6.12595906788361E-04
(PID.TID 0000.0001)  cg2d: iter=    33 ; resid.=  4.72346074041026E-04
(PID.TID 0000.0001)  cg2d: iter=    34 ; resid.=  4.14805792768106E-04
(PID.TID 0000.0001)  cg2d: iter=    35 ; resid.=  3.73635379328747E-04
(PID.TID 0000.0001)  cg2d: iter=    36 ; resid.=  3.16205079260004E-04
(PID.TID 0000.0001)  cg2d: iter=    37 ; resid.=  2.71597919225969E-04
(PID.TID 0000.0001)  cg2d: iter=    38 ; resid.=  2.20960993552491E-04
(PID.TID 0000.0001)  cg2d: iter=    39 ; resid.=  1.89519793122543E-04
(PID.TID 0000.0001)  cg2d: iter=    40 ; resid.=  1.50183934431160E-04
(PID.TID 0000.0001)  cg2d: iter=    41 ; resid.=  1.15410641995557E-04
(PID.TID 0000.0001)  cg2d: iter=    42 ; resid.=  9.25789959152770E-05
(PID.TID 0000.0001)  cg2d: iter=    43 ; resid.=  8.09093769636187E-05
(PID.TID 0000.0001)  cg2d: iter=    44 ; resid.=  6.59223522433982E-05
(PID.TID 0000.0001)  cg2d: iter=    45 ; resid.=  5.47879826216555E-05
(PID.TID 0000.0001)  cg2d: iter=    46 ; resid.=  4.19659274076206E-05
(PID.TID 0000.0001)  cg2d: iter=    47 ; resid.=  3.18885580728438E-05
(PID.TID 0000.0001)  cg2d: iter=    48 ; resid.=  2.63520626946576E-05
(PID.TID 0000.0001)  cg2d: iter=    49 ; resid.=  2.21655804569885E-05
(PID.TID 0000.0001)  cg2d: iter=    50 ; resid.=  1.86210662890486E-05
(PID.TID 0000.0001)  cg2d: iter=    51 ; resid.=  1.59772088308182E-05
(PID.TID 0000.0001)  cg2d: iter=    52 ; resid.=  1.42315213439292E-05
(PID.TID 0000.0001)  cg2d: iter=    53 ; resid.=  1.33255213940540E-05
(PID.TID 0000.0001)  cg2d: iter=    54 ; resid.=  1.07718959970269E-05
(PID.TID 0000.0001)  cg2d: iter=    55 ; resid.=  9.54909467022911E-06
(PID.TID 0000.0001)  cg2d: iter=    56 ; resid.=  7.85948219033127E-06
(PID.TID 0000.0001)  cg2d: iter=    57 ; resid.=  6.54367590901971E-06
(PID.TID 0000.0001)  cg2d: iter=    58 ; resid.=  5.05087014230998E-06
(PID.TID 0000.0001)  cg2d: iter=    59 ; resid.=  3.82978565281632E-06
(PID.TID 0000.0001)  cg2d: iter=    60 ; resid.=  3.38745749005161E-06
(PID.TID 0000.0001)  cg2d: iter=    61 ; resid.=  2.89807464367035E-06
(PID.TID 0000.0001)  cg2d: iter=    62 ; resid.=  2.41315004359796E-06
(PID.TID 0000.0001)  cg2d: iter=    63 ; resid.=  1.96657701285860E-06
(PID.TID 0000.0001)  cg2d: iter=    64 ; resid.=  1.58677168232642E-06
(PID.TID 0000.0001)  cg2d: iter=    65 ; resid.=  1.37731141870031E-06
(PID.TID 0000.0001)  cg2d: iter=    66 ; resid.=  1.07017457277675E-06
(PID.TID 0000.0001)  cg2d: iter=    67 ; resid.=  8.91132276334437E-07
(PID.TID 0000.0001)  cg2d: iter=    68 ; resid.=  8.49714636866741E-07
(PID.TID 0000.0001)  cg2d: iter=    69 ; resid.=  7.10745971858009E-07
(PID.TID 0000.0001)  cg2d: iter=    70 ; resid.=  5.87787047582870E-07
(PID.TID 0000.0001)  cg2d: iter=    71 ; resid.=  4.73237652738330E-07
(PID.TID 0000.0001)  cg2d: iter=    72 ; resid.=  4.37545351089285E-07
(PID.TID 0000.0001)  cg2d: iter=    73 ; resid.=  3.80875621886896E-07
(PID.TID 0000.0001)  cg2d: iter=    74 ; resid.=  3.30268239821579E-07
(PID.TID 0000.0001)  cg2d: iter=    75 ; resid.=  2.99478446434896E-07
(PID.TID 0000.0001)  cg2d: iter=    76 ; resid.=  2.49236904419969E-07
(PID.TID 0000.0001)  cg2d: iter=    77 ; resid.=  2.07468992680630E-07
(PID.TID 0000.0001)  cg2d: iter=    78 ; resid.=  1.77984410388184E-07
(PID.TID 0000.0001)  cg2d: iter=    79 ; resid.=  1.34837185278211E-07
(PID.TID 0000.0001)  cg2d: iter=    80 ; resid.=  9.97504856951921E-08
(PID.TID 0000.0001)  cg2d: iter=    81 ; resid.=  7.32605920566306E-08
(PID.TID 0000.0001)  cg2d: iter=    82 ; resid.=  5.44441439779467E-08
(PID.TID 0000.0001)  cg2d: iter=    83 ; resid.=  4.33951731680573E-08
(PID.TID 0000.0001)  cg2d: iter=    84 ; resid.=  3.37838942473387E-08
(PID.TID 0000.0001)  cg2d: iter=    85 ; resid.=  2.48109746658967E-08
(PID.TID 0000.0001)  cg2d: iter=    86 ; resid.=  1.90115972513980E-08
(PID.TID 0000.0001)  cg2d: iter=    87 ; resid.=  1.60099700222787E-08
(PID.TID 0000.0001)  cg2d: iter=    88 ; resid.=  1.28912575446405E-08
(PID.TID 0000.0001)  cg2d: iter=    89 ; resid.=  1.05185357516684E-08
(PID.TID 0000.0001)  cg2d: iter=    90 ; resid.=  8.97889706126188E-09
(PID.TID 0000.0001)  cg2d: iter=    91 ; resid.=  7.19993447252197E-09
(PID.TID 0000.0001)  cg2d: iter=    92 ; resid.=  6.00723140072639E-09
(PID.TID 0000.0001)  cg2d: iter=    93 ; resid.=  4.54790922818717E-09
(PID.TID 0000.0001)  cg2d: iter=    94 ; resid.=  3.52879279228740E-09
(PID.TID 0000.0001)  cg2d: iter=    95 ; resid.=  3.01880108482761E-09
(PID.TID 0000.0001)  cg2d: iter=    96 ; resid.=  2.26843743057037E-09
(PID.TID 0000.0001)  cg2d: iter=    97 ; resid.=  1.83669039431978E-09
(PID.TID 0000.0001)  cg2d: iter=    98 ; resid.=  1.54483290460064E-09
(PID.TID 0000.0001)  cg2d: iter=    99 ; resid.=  1.39012116427580E-09
(PID.TID 0000.0001)  cg2d: iter=   100 ; resid.=  1.22034494019926E-09
(PID.TID 0000.0001)  cg2d: iter=   101 ; resid.=  9.68100406988985E-10
(PID.TID 0000.0001)  cg2d: iter=   102 ; resid.=  7.46723363678005E-10
(PID.TID 0000.0001)  cg2d: iter=   103 ; resid.=  5.59341248591854E-10
(PID.TID 0000.0001)  cg2d: iter=   104 ; resid.=  4.66640044248902E-10
(PID.TID 0000.0001)  cg2d: iter=   105 ; resid.=  3.72055672879568E-10
(PID.TID 0000.0001)  cg2d: iter=   106 ; resid.=  2.76534538293365E-10
(PID.TID 0000.0001)  cg2d: iter=   107 ; resid.=  2.01248994741795E-10
(PID.TID 0000.0001)  cg2d: iter=   108 ; resid.=  1.63009586815676E-10
(PID.TID 0000.0001)  cg2d: iter=   109 ; resid.=  1.20752272795026E-10
(PID.TID 0000.0001)  cg2d: iter=   110 ; resid.=  9.27442305885522E-11
(PID.TID 0000.0001)  cg2d: iter=   111 ; resid.=  7.29727539476797E-11
(PID.TID 0000.0001)  cg2d: iter=   112 ; resid.=  4.96291098767543E-11
(PID.TID 0000.0001)  cg2d: iter=   113 ; resid.=  3.43815064139954E-11
(PID.TID 0000.0001)  cg2d: iter=   114 ; resid.=  2.63856481078990E-11
(PID.TID 0000.0001)  cg2d: iter=   115 ; resid.=  1.95913075927641E-11
(PID.TID 0000.0001)  cg2d: iter=   116 ; resid.=  1.51827385738841E-11
(PID.TID 0000.0001)  cg2d: iter=   117 ; resid.=  1.22584111588826E-11
(PID.TID 0000.0001)  cg2d: iter=   118 ; resid.=  9.67782258375775E-12
(PID.TID 0000.0001)  cg2d: iter=   119 ; resid.=  7.83702765136204E-12
(PID.TID 0000.0001)  cg2d: iter=   120 ; resid.=  6.04153903799654E-12
(PID.TID 0000.0001)  cg2d: iter=   121 ; resid.=  4.41379346570276E-12
(PID.TID 0000.0001)  cg2d: iter=   122 ; resid.=  3.32428850061208E-12
(PID.TID 0000.0001)  cg2d: iter=   123 ; resid.=  2.51355039646565E-12
(PID.TID 0000.0001)  cg2d: iter=   124 ; resid.=  1.96965550331551E-12
(PID.TID 0000.0001)  cg2d: iter=   125 ; resid.=  1.51650242539251E-12
(PID.TID 0000.0001)  cg2d: iter=   126 ; resid.=  1.09267171809881E-12
(PID.TID 0000.0001)  cg2d: iter=   127 ; resid.=  7.18964709210928E-13
(PID.TID 0000.0001)  cg2d: iter=   128 ; resid.=  4.75817817212686E-13
(PID.TID 0000.0001)  cg2d: iter=   129 ; resid.=  3.02725612871526E-13
(PID.TID 0000.0001)  cg2d: iter=   130 ; resid.=  2.04267240845583E-13
(PID.TID 0000.0001)  cg2d: iter=   131 ; resid.=  1.44697940702401E-13
(PID.TID 0000.0001)  cg2d: iter=   132 ; resid.=  1.12894280642944E-13
(PID.TID 0000.0001)  cg2d: iter=   133 ; resid.=  9.20736505145228E-14
DEBUG_STATS_RL:    cg2d_x (SOLVE_FOR_PRESSURE)  min= -2.15941535798054E+01
DEBUG_STATS_RL:    cg2d_x (SOLVE_FOR_PRESSURE)  max=  1.10260839367392E+01
DEBUG_STATS_RL:    cg2d_x (SOLVE_FOR_PRESSURE) mean= -2.06016570631612E+00
DEBUG_STATS_RL:    cg2d_x (SOLVE_FOR_PRESSURE) S.D.=  8.34953953895883E+00
(PID.TID 0000.0001)      cg2d_init_res =   2.86047225339328E-01
(PID.TID 0000.0001)      cg2d_iters(min,last) =      -1     133
(PID.TID 0000.0001)      cg2d_last_res =   9.20736505145228E-14
(PID.TID 0000.0001) // =======================================================
(PID.TID 0000.0001) // Begin MONITOR dynamic field statistics
(PID.TID 0000.0001) // =======================================================
(PID.TID 0000.0001) %MON time_tsnumber                =                    85
(PID.TID 0000.0001) %MON time_secondsf                =   7.3440000000000E+06
(PID.TID 0000.0001) %MON dynstat_eta_max              =   1.1239637040510E+00
(PID.TID 0000.0001) %MON dynstat_eta_min              =  -2.2012388970242E+00
(PID.TID 0000.0001) %MON dynstat_eta_mean             =  -5.6566420808418E-03
(PID.TID 0000.0001) %MON dynstat_eta_sd               =   7.5431314927310E-01
(PID.TID 0000.0001) %MON dynstat_eta_del2             =   2.6588577430877E-03
(PID.TID 0000.0001) %MON dynstat_uvel_max             =   1.5822098331500E-01
(PID.TID 0000.0001) %MON dynstat_uvel_min             =  -1.3821287673351E-01
(PID.TID 0000.0001) %MON dynstat_uvel_mean            =   2.1983514116664E-03
(PID.TID 0000.0001) %MON dynstat_uvel_sd              =   1.9059878582561E-02
(PID.TID 0000.0001) %MON dynstat_uvel_del2            =   1.5052851252640E-04
(PID.TID 0000.0001) %MON dynstat_vvel_max             =   1.6391224802883E-01
(PID.TID 0000.0001) %MON dynstat_vvel_min             =  -1.1750106839907E-01
(PID.TID 0000.0001) %MON dynstat_vvel_mean            =   7.3723555453373E-05
(PID.TID 0000.0001) %MON dynstat_vvel_sd              =   1.0289853656359E-02
(PID.TID 0000.0001) %MON dynstat_vvel_del2            =   9.3771232102120E-05
(PID.TID 0000.0001) %MON dynstat_wvel_max             =   2.7266724475904E-04
(PID.TID 0000.0001) %MON dynstat_wvel_min             =  -1.0298838807011E-04
(PID.TID 0000.0001) %MON dynstat_wvel_mean            =   7.8925951641347E-23
(PID.TID 0000.0001) %MON dynstat_wvel_sd              =   1.4621340580879E-05
(PID.TID 0000.0001) %MON dynstat_wvel_del2            =   1.4195838336458E-07
(PID.TID 0000.0001) %MON dynstat_theta_max            =   3.1117550163849E+01
(PID.TID 0000.0001) %MON dynstat_theta_min            =  -1.9408742217683E+00
(PID.TID 0000.0001) %MON dynstat_theta_mean           =   3.6539431678461E+00
(PID.TID 0000.0001) %MON dynstat_theta_sd             =   4.4280002032322E+00
(PID.TID 0000.0001) %MON dynstat_theta_del2           =   4.8762812434843E-03
(PID.TID 0000.0001) %MON dynstat_salt_max             =   3.7494376761521E+01
(PID.TID 0000.0001) %MON dynstat_salt_min             =   2.9945945676083E+01
(PID.TID 0000.0001) %MON dynstat_salt_mean            =   3.4748026258345E+01
(PID.TID 0000.0001) %MON dynstat_salt_sd              =   2.9665393617940E-01
(PID.TID 0000.0001) %MON dynstat_salt_del2            =   9.9714117822678E-04
(PID.TID 0000.0001) %MON dynstat_sst_max              =   3.1117550163849E+01
(PID.TID 0000.0001) %MON dynstat_sst_min              =  -1.9408742217683E+00
(PID.TID 0000.0001) %MON dynstat_sst_mean             =   1.9089518581442E+01
(PID.TID 0000.0001) %MON dynstat_sst_sd               =   9.2211504307159E+00
(PID.TID 0000.0001) %MON dynstat_sst_del2             =   2.9145727357617E-02
(PID.TID 0000.0001) %MON dynstat_sss_max              =   3.7494376761521E+01
(PID.TID 0000.0001) %MON dynstat_sss_min              =   2.9945945676083E+01
(PID.TID 0000.0001) %MON dynstat_sss_mean             =   3.4868715828945E+01
(PID.TID 0000.0001) %MON dynstat_sss_sd               =   9.8914476808668E-01
(PID.TID 0000.0001) %MON dynstat_sss_del2             =   8.2502132749987E-03
(PID.TID 0000.0001) %MON forcing_qnet_max             =   2.3216057739258E+02
(PID.TID 0000.0001) %MON forcing_qnet_min             =  -1.6000362396240E+02
(PID.TID 0000.0001) %MON forcing_qnet_mean            =  -3.6917381294179E+00
(PID.TID 0000.0001) %MON forcing_qnet_sd              =   4.0304657455292E+01
(PID.TID 0000.0001) %MON forcing_qnet_del2            =   7.9840269608377E-01
(PID.TID 0000.0001) %MON forcing_qsw_max              =   0.0000000000000E+00
(PID.TID 0000.0001) %MON forcing_qsw_min              =   0.0000000000000E+00
(PID.TID 0000.0001) %MON forcing_qsw_mean             =   0.0000000000000E+00
(PID.TID 0000.0001) %MON forcing_qsw_sd               =   0.0000000000000E+00
(PID.TID 0000.0001) %MON forcing_qsw_del2             =   0.0000000000000E+00
(PID.TID 0000.0001) %MON forcing_empmr_max            =   6.8243282669300E-05
(PID.TID 0000.0001) %MON forcing_empmr_min            =  -8.3398032302284E-05
(PID.TID 0000.0001) %MON forcing_empmr_mean           =   3.4870277023059E-07
(PID.TID 0000.0001) %MON forcing_empmr_sd             =   2.5758635590810E-05
(PID.TID 0000.0001) %MON forcing_empmr_del2           =   3.6296797063557E-07
(PID.TID 0000.0001) %MON forcing_fu_max               =   3.5084198713303E-01
(PID.TID 0000.0001) %MON forcing_fu_min               =  -3.9695406854153E-01
(PID.TID 0000.0001) %MON forcing_fu_mean              =   1.9312000427992E-02
(PID.TID 0000.0001) %MON forcing_fu_sd                =   1.0042160540531E-01
(PID.TID 0000.0001) %MON forcing_fu_del2              =   7.8721937053415E-04
(PID.TID 0000.0001) %MON forcing_fv_max               =   1.8243633508682E-01
(PID.TID 0000.0001) %MON forcing_fv_min               =  -1.6266221404076E-01
(PID.TID 0000.0001) %MON forcing_fv_mean              =  -7.2012853886873E-03
(PID.TID 0000.0001) %MON forcing_fv_sd                =   3.9658030881186E-02
(PID.TID 0000.0001) %MON forcing_fv_del2              =   4.3709035920482E-04
(PID.TID 0000.0001) %MON trAdv_CFL_u_max              =   5.0788363125136E-02
(PID.TID 0000.0001) %MON trAdv_CFL_v_max              =   3.1597923529243E-02
(PID.TID 0000.0001) %MON trAdv_CFL_w_max              =   6.2145953076236E-02
(PID.TID 0000.0001) %MON advcfl_uvel_max              =   5.0534920814604E-02
(PID.TID 0000.0001) %MON advcfl_vvel_max              =   3.1845520955597E-02
(PID.TID 0000.0001) %MON advcfl_wvel_max              =   6.4543698485427E-02
(PID.TID 0000.0001) %MON advcfl_W_hf_max              =   6.9289558668179E-02
(PID.TID 0000.0001) %MON pe_b_mean                    =   7.2813009116853E-04
(PID.TID 0000.0001) %MON ke_max                       =   1.5701090899344E-02
(PID.TID 0000.0001) %MON ke_mean                      =   2.1477582725981E-04
(PID.TID 0000.0001) %MON ke_vol                       =   1.3226782436723E+18
(PID.TID 0000.0001) %MON vort_r_min                   =  -4.0975449658872E-07
(PID.TID 0000.0001) %MON vort_r_max                   =   5.9251360754193E-07
(PID.TID 0000.0001) %MON vort_a_mean                  =  -2.5274807206705E-05
(PID.TID 0000.0001) %MON vort_a_sd                    =   7.3604574160642E-05
(PID.TID 0000.0001) %MON vort_p_mean                  =  -3.1845655559137E-05
(PID.TID 0000.0001) %MON vort_p_sd                    =   1.3162532818447E-04
(PID.TID 0000.0001) %MON surfExpan_theta_mean         =  -9.4480612541674E-07
(PID.TID 0000.0001) %MON surfExpan_salt_mean          =   2.6089750546540E-07
(PID.TID 0000.0001) // =======================================================
(PID.TID 0000.0001) // End MONITOR dynamic field statistics
(PID.TID 0000.0001) // =======================================================
 EXTERNAL_FIELDS_LOAD,        85 : iP,iLd,i0,i1=    3    4    3    4 ; Wght=  0.6666666667  0.3333333333
 EXTERNAL_FIELDS_LOAD: (fu0,1),fu,fv= -2.7199E-02 -3.7252E-02 -3.0550E-02 -1.2124E-02
 EXTERNAL_FIELDS_LOAD: SST,SSS,Q,E-P= -1.1082E-01  3.4576E+01  1.7830E+02  8.6435E-06
DEBUG_STATS_RL:          Uvel (THERMODYNAMICS)  min= -1.38212876733508E-01
DEBUG_STATS_RL:          Uvel (THERMODYNAMICS)  max=  1.58220983315003E-01
DEBUG_STATS_RL:          Uvel (THERMODYNAMICS) mean=  6.14859530318784E-03
DEBUG_STATS_RL:          Uvel (THERMODYNAMICS) S.D.=  2.52691773952869E-02
DEBUG_STATS_RL:          Vvel (THERMODYNAMICS)  min= -1.17501068399071E-01
DEBUG_STATS_RL:          Vvel (THERMODYNAMICS)  max=  1.63912248028830E-01
DEBUG_STATS_RL:          Vvel (THERMODYNAMICS) mean=  1.17823941308448E-03
DEBUG_STATS_RL:          Vvel (THERMODYNAMICS) S.D.=  1.53639150061758E-02
DEBUG_STATS_RL:          Wvel (THERMODYNAMICS)  min= -1.02988388070107E-04
DEBUG_STATS_RL:          Wvel (THERMODYNAMICS)  max=  2.72667244759036E-04
DEBUG_STATS_RL:          Wvel (THERMODYNAMICS) mean=  3.01085959787477E-08
DEBUG_STATS_RL:          Wvel (THERMODYNAMICS) S.D.=  1.27653383608302E-05
DEBUG_STATS_RL:         Theta (THERMODYNAMICS)  min= -1.93971357080173E+00
DEBUG_STATS_RL:         Theta (THERMODYNAMICS)  max=  3.11378616240142E+01
DEBUG_STATS_RL:         Theta (THERMODYNAMICS) mean=  3.25061871131169E+00
DEBUG_STATS_RL:         Theta (THERMODYNAMICS) S.D.=  5.88817926854761E+00
DEBUG_STATS_RL:          Salt (THERMODYNAMICS)  min=  3.00000000000000E-02
DEBUG_STATS_RL:          Salt (THERMODYNAMICS)  max=  3.74949523516888E+01
DEBUG_STATS_RL:          Salt (THERMODYNAMICS) mean=  1.88748069562395E+01
DEBUG_STATS_RL:          Salt (THERMODYNAMICS) S.D.=  1.73003577286791E+01
DEBUG_STATS_RL:         GtNm1 (THERMODYNAMICS)  min= -3.76328888841261E-06
DEBUG_STATS_RL:         GtNm1 (THERMODYNAMICS)  max=  2.59753332680613E-06
DEBUG_STATS_RL:         GtNm1 (THERMODYNAMICS) mean= -4.97239179253301E-10
DEBUG_STATS_RL:         GtNm1 (THERMODYNAMICS) S.D.=  1.65362917030110E-07
DEBUG_STATS_RL:         GsNm1 (THERMODYNAMICS)  min= -7.51800757242693E-07
DEBUG_STATS_RL:         GsNm1 (THERMODYNAMICS)  max=  4.93180607528899E-07
DEBUG_STATS_RL:         GsNm1 (THERMODYNAMICS) mean= -1.85954791022339E-10
DEBUG_STATS_RL:         GsNm1 (THERMODYNAMICS) S.D.=  1.60891522760590E-08
DEBUG_STATS_RL:                EtaN (DYNAMICS)  min= -2.20123889702419E+00
DEBUG_STATS_RL:                EtaN (DYNAMICS)  max=  1.12396370405095E+00
DEBUG_STATS_RL:                EtaN (DYNAMICS) mean= -2.10006697891552E-01
DEBUG_STATS_RL:                EtaN (DYNAMICS) S.D.=  8.51125335265944E-01
DEBUG_STATS_RL:                Uvel (DYNAMICS)  min= -1.38212876733508E-01
DEBUG_STATS_RL:                Uvel (DYNAMICS)  max=  1.58220983315003E-01
DEBUG_STATS_RL:                Uvel (DYNAMICS) mean=  6.14859530318784E-03
DEBUG_STATS_RL:                Uvel (DYNAMICS) S.D.=  2.52691773952869E-02
DEBUG_STATS_RL:                Vvel (DYNAMICS)  min= -1.17501068399071E-01
DEBUG_STATS_RL:                Vvel (DYNAMICS)  max=  1.63912248028830E-01
DEBUG_STATS_RL:                Vvel (DYNAMICS) mean=  1.17823941308448E-03
DEBUG_STATS_RL:                Vvel (DYNAMICS) S.D.=  1.53639150061758E-02
DEBUG_STATS_RL:                Wvel (DYNAMICS)  min= -1.02988388070107E-04
DEBUG_STATS_RL:                Wvel (DYNAMICS)  max=  2.72667244759036E-04
DEBUG_STATS_RL:                Wvel (DYNAMICS) mean=  3.01085959787477E-08
DEBUG_STATS_RL:                Wvel (DYNAMICS) S.D.=  1.27653383608302E-05
DEBUG_STATS_RL:               Theta (DYNAMICS)  min= -1.93971357080173E+00
DEBUG_STATS_RL:               Theta (DYNAMICS)  max=  3.11378616240142E+01
DEBUG_STATS_RL:               Theta (DYNAMICS) mean=  3.25061871131169E+00
DEBUG_STATS_RL:               Theta (DYNAMICS) S.D.=  5.88817926854761E+00
DEBUG_STATS_RL:                Salt (DYNAMICS)  min=  3.00000000000000E-02
DEBUG_STATS_RL:                Salt (DYNAMICS)  max=  3.74949523516888E+01
DEBUG_STATS_RL:                Salt (DYNAMICS) mean=  1.88748069562395E+01
DEBUG_STATS_RL:                Salt (DYNAMICS) S.D.=  1.73003577286791E+01
DEBUG_STATS_RL:                  Gu (DYNAMICS)  min= -1.37405893796778E-01
DEBUG_STATS_RL:                  Gu (DYNAMICS)  max=  1.59388491627448E-01
DEBUG_STATS_RL:                  Gu (DYNAMICS) mean=  6.14023796325025E-03
DEBUG_STATS_RL:                  Gu (DYNAMICS) S.D.=  2.55005367421901E-02
DEBUG_STATS_RL:                  Gv (DYNAMICS)  min= -1.19479275381263E-01
DEBUG_STATS_RL:                  Gv (DYNAMICS)  max=  1.64004839022991E-01
DEBUG_STATS_RL:                  Gv (DYNAMICS) mean=  3.58461043582974E-03
DEBUG_STATS_RL:                  Gv (DYNAMICS) S.D.=  1.67489498328704E-02
DEBUG_STATS_RL:               GuNm1 (DYNAMICS)  min= -1.11896575731688E-05
DEBUG_STATS_RL:               GuNm1 (DYNAMICS)  max=  9.15647451629389E-06
DEBUG_STATS_RL:               GuNm1 (DYNAMICS) mean=  1.44775323380250E-08
DEBUG_STATS_RL:               GuNm1 (DYNAMICS) S.D.=  1.24175616788556E-06
DEBUG_STATS_RL:               GvNm1 (DYNAMICS)  min= -9.38383719346517E-06
DEBUG_STATS_RL:               GvNm1 (DYNAMICS)  max=  1.53563374868048E-05
DEBUG_STATS_RL:               GvNm1 (DYNAMICS) mean=  7.37474984924971E-07
DEBUG_STATS_RL:               GvNm1 (DYNAMICS) S.D.=  2.62239245936556E-06
DEBUG_STATS_RL:               GtNm1 (DYNAMICS)  min= -3.76328888841261E-06
DEBUG_STATS_RL:               GtNm1 (DYNAMICS)  max=  2.59753332680613E-06
DEBUG_STATS_RL:               GtNm1 (DYNAMICS) mean= -4.97239179253301E-10
DEBUG_STATS_RL:               GtNm1 (DYNAMICS) S.D.=  1.65362917030110E-07
DEBUG_STATS_RL:               GsNm1 (DYNAMICS)  min= -7.51800757242693E-07
DEBUG_STATS_RL:               GsNm1 (DYNAMICS)  max=  4.93180607528899E-07
DEBUG_STATS_RL:               GsNm1 (DYNAMICS) mean= -1.85954791022339E-10
DEBUG_STATS_RL:               GsNm1 (DYNAMICS) S.D.=  1.60891522760590E-08
DEBUG_STATS_RL:    cg2d_b (SOLVE_FOR_PRESSURE)  min= -3.24843056681854E+04
DEBUG_STATS_RL:    cg2d_b (SOLVE_FOR_PRESSURE)  max=  3.29759234477268E+04
DEBUG_STATS_RL:    cg2d_b (SOLVE_FOR_PRESSURE) mean=  5.44758309501119E+00
DEBUG_STATS_RL:    cg2d_b (SOLVE_FOR_PRESSURE) S.D.=  4.20234091141931E+03
 cg2d: Sum(rhs),rhsMax =   3.82435229901697E-01  2.16594694263200E+00
(PID.TID 0000.0001)  cg2d: iter=     1 ; resid.=  1.78362931217254E-01
(PID.TID 0000.0001)  cg2d: iter=     2 ; resid.=  1.73387649395836E-01
(PID.TID 0000.0001)  cg2d: iter=     3 ; resid.=  1.78481194190346E-01
(PID.TID 0000.0001)  cg2d: iter=     4 ; resid.=  1.63521441712396E-01
(PID.TID 0000.0001)  cg2d: iter=     5 ; resid.=  1.47304480710659E-01
(PID.TID 0000.0001)  cg2d: iter=     6 ; resid.=  1.26629999273704E-01
(PID.TID 0000.0001)  cg2d: iter=     7 ; resid.=  1.01002679649539E-01
(PID.TID 0000.0001)  cg2d: iter=     8 ; resid.=  7.31204459461902E-02
(PID.TID 0000.0001)  cg2d: iter=     9 ; resid.=  5.20764500218342E-02
(PID.TID 0000.0001)  cg2d: iter=    10 ; resid.=  4.30675837164615E-02
(PID.TID 0000.0001)  cg2d: iter=    11 ; resid.=  3.48432366746680E-02
(PID.TID 0000.0001)  cg2d: iter=    12 ; resid.=  3.07062318964769E-02
(PID.TID 0000.0001)  cg2d: iter=    13 ; resid.=  2.54764108180119E-02
(PID.TID 0000.0001)  cg2d: iter=    14 ; resid.=  2.14433025389493E-02
(PID.TID 0000.0001)  cg2d: iter=    15 ; resid.=  1.78923324198969E-02
(PID.TID 0000.0001)  cg2d: iter=    16 ; resid.=  1.58866916826222E-02
(PID.TID 0000.0001)  cg2d: iter=    17 ; resid.=  1.40075831973919E-02
(PID.TID 0000.0001)  cg2d: iter=    18 ; resid.=  1.14505227205762E-02
(PID.TID 0000.0001)  cg2d: iter=    19 ; resid.=  8.72538964094461E-03
(PID.TID 0000.0001)  cg2d: iter=    20 ; resid.=  7.83701784029439E-03
(PID.TID 0000.0001)  cg2d: iter=    21 ; resid.=  6.43433570923579E-03
(PID.TID 0000.0001)  cg2d: iter=    22 ; resid.=  5.96624192603976E-03
(PID.TID 0000.0001)  cg2d: iter=    23 ; resid.=  4.88216986127144E-03
(PID.TID 0000.0001)  cg2d: iter=    24 ; resid.=  3.97928330519695E-03
(PID.TID 0000.0001)  cg2d: iter=    25 ; resid.=  2.92718177495717E-03
(PID.TID 0000.0001)  cg2d: iter=    26 ; resid.=  2.23892343347286E-03
(PID.TID 0000.0001)  cg2d: iter=    27 ; resid.=  1.82767060775944E-03
(PID.TID 0000.0001)  cg2d: iter=    28 ; resid.=  1.53023079455248E-03
(PID.TID 0000.0001)  cg2d: iter=    29 ; resid.=  1.27336247124533E-03
(PID.TID 0000.0001)  cg2d: iter=    30 ; resid.=  1.05199445951953E-03
(PID.TID 0000.0001)  cg2d: iter=    31 ; resid.=  8.29537758056243E-04
(PID.TID 0000.0001)  cg2d: iter=    32 ; resid.=  6.14823709020004E-04
(PID.TID 0000.0001)  cg2d: iter=    33 ; resid.=  4.69720384076960E-04
(PID.TID 0000.0001)  cg2d: iter=    34 ; resid.=  4.19783864308636E-04
(PID.TID 0000.0001)  cg2d: iter=    35 ; resid.=  3.71992367733826E-04
(PID.TID 0000.0001)  cg2d: iter=    36 ; resid.=  3.09968950702294E-04
(PID.TID 0000.0001)  cg2d: iter=    37 ; resid.=  2.68159279621033E-04
(PID.TID 0000.0001)  cg2d: iter=    38 ; resid.=  2.18466716726164E-04
(PID.TID 0000.0001)  cg2d: iter=    39 ; resid.=  1.87573824394161E-04
(PID.TID 0000.0001)  cg2d: iter=    40 ; resid.=  1.48496142262825E-04
(PID.TID 0000.0001)  cg2d: iter=    41 ; resid.=  1.13468362606764E-04
(PID.TID 0000.0001)  cg2d: iter=    42 ; resid.=  9.03208968017751E-05
(PID.TID 0000.0001)  cg2d: iter=    43 ; resid.=  7.68628292859715E-05
(PID.TID 0000.0001)  cg2d: iter=    44 ; resid.=  6.19299663536727E-05
(PID.TID 0000.0001)  cg2d: iter=    45 ; resid.=  5.19198596198370E-05
(PID.TID 0000.0001)  cg2d: iter=    46 ; resid.=  3.98742959296746E-05
(PID.TID 0000.0001)  cg2d: iter=    47 ; resid.=  3.03018781308228E-05
(PID.TID 0000.0001)  cg2d: iter=    48 ; resid.=  2.48603146823915E-05
(PID.TID 0000.0001)  cg2d: iter=    49 ; resid.=  2.08661431860219E-05
(PID.TID 0000.0001)  cg2d: iter=    50 ; resid.=  1.70258952072066E-05
(PID.TID 0000.0001)  cg2d: iter=    51 ; resid.=  1.43698929032127E-05
(PID.TID 0000.0001)  cg2d: iter=    52 ; resid.=  1.25981063521300E-05
(PID.TID 0000.0001)  cg2d: iter=    53 ; resid.=  1.14458211343933E-05
(PID.TID 0000.0001)  cg2d: iter=    54 ; resid.=  8.95596969455984E-06
(PID.TID 0000.0001)  cg2d: iter=    55 ; resid.=  7.76696829038651E-06
(PID.TID 0000.0001)  cg2d: iter=    56 ; resid.=  6.49786565708930E-06
(PID.TID 0000.0001)  cg2d: iter=    57 ; resid.=  5.41693508114786E-06
(PID.TID 0000.0001)  cg2d: iter=    58 ; resid.=  4.18082290878834E-06
(PID.TID 0000.0001)  cg2d: iter=    59 ; resid.=  3.11823600523284E-06
(PID.TID 0000.0001)  cg2d: iter=    60 ; resid.=  2.68745062177432E-06
(PID.TID 0000.0001)  cg2d: iter=    61 ; resid.=  2.26788104734244E-06
(PID.TID 0000.0001)  cg2d: iter=    62 ; resid.=  1.87353080474421E-06
(PID.TID 0000.0001)  cg2d: iter=    63 ; resid.=  1.49876475969465E-06
(PID.TID 0000.0001)  cg2d: iter=    64 ; resid.=  1.16689992498323E-06
(PID.TID 0000.0001)  cg2d: iter=    65 ; resid.=  9.56606412333079E-07
(PID.TID 0000.0001)  cg2d: iter=    66 ; resid.=  7.06720712224701E-07
(PID.TID 0000.0001)  cg2d: iter=    67 ; resid.=  5.34556308902917E-07
(PID.TID 0000.0001)  cg2d: iter=    68 ; resid.=  4.65513073876755E-07
(PID.TID 0000.0001)  cg2d: iter=    69 ; resid.=  3.63493993203588E-07
(PID.TID 0000.0001)  cg2d: iter=    70 ; resid.=  2.76017278417732E-07
(PID.TID 0000.0001)  cg2d: iter=    71 ; resid.=  2.00317928375707E-07
(PID.TID 0000.0001)  cg2d: iter=    72 ; resid.=  1.61568646104639E-07
(PID.TID 0000.0001)  cg2d: iter=    73 ; resid.=  1.22519523950888E-07
(PID.TID 0000.0001)  cg2d: iter=    74 ; resid.=  9.53277663961212E-08
(PID.TID 0000.0001)  cg2d: iter=    75 ; resid.=  7.95557805686315E-08
(PID.TID 0000.0001)  cg2d: iter=    76 ; resid.=  6.47364451739290E-08
(PID.TID 0000.0001)  cg2d: iter=    77 ; resid.=  5.48639895275976E-08
(PID.TID 0000.0001)  cg2d: iter=    78 ; resid.=  5.34189181921099E-08
(PID.TID 0000.0001)  cg2d: iter=    79 ; resid.=  4.93373672998722E-08
(PID.TID 0000.0001)  cg2d: iter=    80 ; resid.=  4.37732474484111E-08
(PID.TID 0000.0001)  cg2d: iter=    81 ; resid.=  3.76492943200388E-08
(PID.TID 0000.0001)  cg2d: iter=    82 ; resid.=  3.11143136515662E-08
(PID.TID 0000.0001)  cg2d: iter=    83 ; resid.=  2.69043820549323E-08
(PID.TID 0000.0001)  cg2d: iter=    84 ; resid.=  2.27982566287375E-08
(PID.TID 0000.0001)  cg2d: iter=    85 ; resid.=  1.78921368130092E-08
(PID.TID 0000.0001)  cg2d: iter=    86 ; resid.=  1.42786952596451E-08
(PID.TID 0000.0001)  cg2d: iter=    87 ; resid.=  1.25906786241821E-08
(PID.TID 0000.0001)  cg2d: iter=    88 ; resid.=  1.05989024020140E-08
(PID.TID 0000.0001)  cg2d: iter=    89 ; resid.=  9.03272542113531E-09
(PID.TID 0000.0001)  cg2d: iter=    90 ; resid.=  7.87931884897598E-09
(PID.TID 0000.0001)  cg2d: iter=    91 ; resid.=  6.37419217241663E-09
(PID.TID 0000.0001)  cg2d: iter=    92 ; resid.=  5.40839919198763E-09
(PID.TID 0000.0001)  cg2d: iter=    93 ; resid.=  4.16171661475373E-09
(PID.TID 0000.0001)  cg2d: iter=    94 ; resid.=  3.24997840123451E-09
(PID.TID 0000.0001)  cg2d: iter=    95 ; resid.=  2.79242457577576E-09
(PID.TID 0000.0001)  cg2d: iter=    96 ; resid.=  2.10760268973680E-09
(PID.TID 0000.0001)  cg2d: iter=    97 ; resid.=  1.69568888188595E-09
(PID.TID 0000.0001)  cg2d: iter=    98 ; resid.=  1.43933143057318E-09
(PID.TID 0000.0001)  cg2d: iter=    99 ; resid.=  1.32219710007628E-09
(PID.TID 0000.0001)  cg2d: iter=   100 ; resid.=  1.18747329481441E-09
(PID.TID 0000.0001)  cg2d: iter=   101 ; resid.=  9.57991654497147E-10
(PID.TID 0000.0001)  cg2d: iter=   102 ; resid.=  7.39445700801023E-10
(PID.TID 0000.0001)  cg2d: iter=   103 ; resid.=  5.56270120339986E-10
(PID.TID 0000.0001)  cg2d: iter=   104 ; resid.=  4.64040148897985E-10
(PID.TID 0000.0001)  cg2d: iter=   105 ; resid.=  3.59329368625550E-10
(PID.TID 0000.0001)  cg2d: iter=   106 ; resid.=  2.66112582947455E-10
(PID.TID 0000.0001)  cg2d: iter=   107 ; resid.=  1.90949586686109E-10
(PID.TID 0000.0001)  cg2d: iter=   108 ; resid.=  1.48120692509065E-10
(PID.TID 0000.0001)  cg2d: iter=   109 ; resid.=  1.10684554283636E-10
(PID.TID 0000.0001)  cg2d: iter=   110 ; resid.=  8.63389756126791E-11
(PID.TID 0000.0001)  cg2d: iter=   111 ; resid.=  6.85917239610634E-11
(PID.TID 0000.0001)  cg2d: iter=   112 ; resid.=  4.74479041157993E-11
(PID.TID 0000.0001)  cg2d: iter=   113 ; resid.=  3.28792117073822E-11
(PID.TID 0000.0001)  cg2d: iter=   114 ; resid.=  2.53199170535307E-11
(PID.TID 0000.0001)  cg2d: iter=   115 ; resid.=  1.88792296194695E-11
(PID.TID 0000.0001)  cg2d: iter=   116 ; resid.=  1.45863093736305E-11
(PID.TID 0000.0001)  cg2d: iter=   117 ; resid.=  1.17480153433585E-11
(PID.TID 0000.0001)  cg2d: iter=   118 ; resid.=  9.24342946428479E-12
(PID.TID 0000.0001)  cg2d: iter=   119 ; resid.=  7.42537279902386E-12
(PID.TID 0000.0001)  cg2d: iter=   120 ; resid.=  5.82966926404886E-12
(PID.TID 0000.0001)  cg2d: iter=   121 ; resid.=  4.27303710698062E-12
(PID.TID 0000.0001)  cg2d: iter=   122 ; resid.=  3.17035987575686E-12
(PID.TID 0000.0001)  cg2d: iter=   123 ; resid.=  2.41400851900372E-12
(PID.TID 0000.0001)  cg2d: iter=   124 ; resid.=  1.87440384198483E-12
(PID.TID 0000.0001)  cg2d: iter=   125 ; resid.=  1.41728603455182E-12
(PID.TID 0000.0001)  cg2d: iter=   126 ; resid.=  1.01342397160712E-12
(PID.TID 0000.0001)  cg2d: iter=   127 ; resid.=  6.65034947940652E-13
(PID.TID 0000.0001)  cg2d: iter=   128 ; resid.=  4.61187464540628E-13
(PID.TID 0000.0001)  cg2d: iter=   129 ; resid.=  2.95331584292683E-13
(PID.TID 0000.0001)  cg2d: iter=   130 ; resid.=  1.99831251606173E-13
(PID.TID 0000.0001)  cg2d: iter=   131 ; resid.=  1.38777142879352E-13
(PID.TID 0000.0001)  cg2d: iter=   132 ; resid.=  1.02874499515939E-13
(PID.TID 0000.0001)  cg2d: iter=   133 ; resid.=  8.01488573712037E-14
DEBUG_STATS_RL:    cg2d_x (SOLVE_FOR_PRESSURE)  min= -2.14798444959357E+01
DEBUG_STATS_RL:    cg2d_x (SOLVE_FOR_PRESSURE)  max=  1.05058317176212E+01
DEBUG_STATS_RL:    cg2d_x (SOLVE_FOR_PRESSURE) mean= -2.02099890739702E+00
DEBUG_STATS_RL:    cg2d_x (SOLVE_FOR_PRESSURE) S.D.=  8.03369667165836E+00
(PID.TID 0000.0001)      cg2d_init_res =   2.81781888752811E-01
(PID.TID 0000.0001)      cg2d_iters(min,last) =      -1     133
(PID.TID 0000.0001)      cg2d_last_res =   8.01488573712037E-14
(PID.TID 0000.0001) // =======================================================
(PID.TID 0000.0001) // Begin MONITOR dynamic field statistics
(PID.TID 0000.0001) // =======================================================
(PID.TID 0000.0001) %MON time_tsnumber                =                    86
(PID.TID 0000.0001) %MON time_secondsf                =   7.4304000000000E+06
(PID.TID 0000.0001) %MON dynstat_eta_max              =   1.0709308580654E+00
(PID.TID 0000.0001) %MON dynstat_eta_min              =  -2.1895865948968E+00
(PID.TID 0000.0001) %MON dynstat_eta_mean             =  -5.6838774816406E-03
(PID.TID 0000.0001) %MON dynstat_eta_sd               =   7.1967167037406E-01
(PID.TID 0000.0001) %MON dynstat_eta_del2             =   2.6669091355022E-03
(PID.TID 0000.0001) %MON dynstat_uvel_max             =   1.5416577080048E-01
(PID.TID 0000.0001) %MON dynstat_uvel_min             =  -1.4006387280789E-01
(PID.TID 0000.0001) %MON dynstat_uvel_mean            =   2.1358182609357E-03
(PID.TID 0000.0001) %MON dynstat_uvel_sd              =   1.8945851065472E-02
(PID.TID 0000.0001) %MON dynstat_uvel_del2            =   1.5137789232808E-04
(PID.TID 0000.0001) %MON dynstat_vvel_max             =   1.6440160423455E-01
(PID.TID 0000.0001) %MON dynstat_vvel_min             =  -1.1364211593855E-01
(PID.TID 0000.0001) %MON dynstat_vvel_mean            =   9.5821527341122E-05
(PID.TID 0000.0001) %MON dynstat_vvel_sd              =   1.0239156531614E-02
(PID.TID 0000.0001) %MON dynstat_vvel_del2            =   9.3779926007494E-05
(PID.TID 0000.0001) %MON dynstat_wvel_max             =   2.6061919877589E-04
(PID.TID 0000.0001) %MON dynstat_wvel_min             =  -9.5209762918178E-05
(PID.TID 0000.0001) %MON dynstat_wvel_mean            =   1.2291896973147E-22
(PID.TID 0000.0001) %MON dynstat_wvel_sd              =   1.4469523435307E-05
(PID.TID 0000.0001) %MON dynstat_wvel_del2            =   1.3971163666671E-07
(PID.TID 0000.0001) %MON dynstat_theta_max            =   3.1137861624014E+01
(PID.TID 0000.0001) %MON dynstat_theta_min            =  -1.9397135708017E+00
(PID.TID 0000.0001) %MON dynstat_theta_mean           =   3.6539829548368E+00
(PID.TID 0000.0001) %MON dynstat_theta_sd             =   4.4281838074689E+00
(PID.TID 0000.0001) %MON dynstat_theta_del2           =   4.8740925061017E-03
(PID.TID 0000.0001) %MON dynstat_salt_max             =   3.7494952351689E+01
(PID.TID 0000.0001) %MON dynstat_salt_min             =   2.9950060455347E+01
(PID.TID 0000.0001) %MON dynstat_salt_mean            =   3.4748020591962E+01
(PID.TID 0000.0001) %MON dynstat_salt_sd              =   2.9664839853429E-01
(PID.TID 0000.0001) %MON dynstat_salt_del2            =   9.9727147830560E-04
(PID.TID 0000.0001) %MON dynstat_sst_max              =   3.1137861624014E+01
(PID.TID 0000.0001) %MON dynstat_sst_min              =  -1.9397135708017E+00
(PID.TID 0000.0001) %MON dynstat_sst_mean             =   1.9088307076362E+01
(PID.TID 0000.0001) %MON dynstat_sst_sd               =   9.2289325153419E+00
(PID.TID 0000.0001) %MON dynstat_sst_del2             =   2.9170051613017E-02
(PID.TID 0000.0001) %MON dynstat_sss_max              =   3.7494952351689E+01
(PID.TID 0000.0001) %MON dynstat_sss_min              =   2.9950060455347E+01
(PID.TID 0000.0001) %MON dynstat_sss_mean             =   3.4868610861294E+01
(PID.TID 0000.0001) %MON dynstat_sss_sd               =   9.8953052121200E-01
(PID.TID 0000.0001) %MON dynstat_sss_del2             =   8.2566450872937E-03
(PID.TID 0000.0001) %MON forcing_qnet_max             =   2.2745534261068E+02
(PID.TID 0000.0001) %MON forcing_qnet_min             =  -1.5957562764486E+02
(PID.TID 0000.0001) %MON forcing_qnet_mean            =  -3.2947017004483E+00
(PID.TID 0000.0001) %MON forcing_qnet_sd              =   3.9956383247608E+01
(PID.TID 0000.0001) %MON forcing_qnet_del2            =   7.9475318361249E-01
(PID.TID 0000.0001) %MON forcing_qsw_max              =   0.0000000000000E+00
(PID.TID 0000.0001) %MON forcing_qsw_min              =   0.0000000000000E+00
(PID.TID 0000.0001) %MON forcing_qsw_mean             =   0.0000000000000E+00
(PID.TID 0000.0001) %MON forcing_qsw_sd               =   0.0000000000000E+00
(PID.TID 0000.0001) %MON forcing_qsw_del2             =   0.0000000000000E+00
(PID.TID 0000.0001) %MON forcing_empmr_max            =   6.8147111657405E-05
(PID.TID 0000.0001) %MON forcing_empmr_min            =  -8.3412878382205E-05
(PID.TID 0000.0001) %MON forcing_empmr_mean           =   3.2625740540304E-07
(PID.TID 0000.0001) %MON forcing_empmr_sd             =   2.5717379388333E-05
(PID.TID 0000.0001) %MON forcing_empmr_del2           =   3.6294743074173E-07
(PID.TID 0000.0001) %MON forcing_fu_max               =   3.5034993290901E-01
(PID.TID 0000.0001) %MON forcing_fu_min               =  -3.9788714051247E-01
(PID.TID 0000.0001) %MON forcing_fu_mean              =   1.9184808331060E-02
(PID.TID 0000.0001) %MON forcing_fu_sd                =   1.0034993850227E-01
(PID.TID 0000.0001) %MON forcing_fu_del2              =   7.8368532274322E-04
(PID.TID 0000.0001) %MON forcing_fv_max               =   1.8234033385913E-01
(PID.TID 0000.0001) %MON forcing_fv_min               =  -1.5925450126330E-01
(PID.TID 0000.0001) %MON forcing_fv_mean              =  -7.1648087163143E-03
(PID.TID 0000.0001) %MON forcing_fv_sd                =   3.9441832348840E-02
(PID.TID 0000.0001) %MON forcing_fv_del2              =   4.3198785440953E-04
(PID.TID 0000.0001) %MON trAdv_CFL_u_max              =   5.0545184818454E-02
(PID.TID 0000.0001) %MON trAdv_CFL_v_max              =   3.1793767068176E-02
(PID.TID 0000.0001) %MON trAdv_CFL_w_max              =   6.0406281915848E-02
(PID.TID 0000.0001) %MON advcfl_uvel_max              =   4.9503196267118E-02
(PID.TID 0000.0001) %MON advcfl_vvel_max              =   3.1940595018038E-02
(PID.TID 0000.0001) %MON advcfl_wvel_max              =   6.1691777463662E-02
(PID.TID 0000.0001) %MON advcfl_W_hf_max              =   6.6227937571284E-02
(PID.TID 0000.0001) %MON pe_b_mean                    =   6.6279176442022E-04
(PID.TID 0000.0001) %MON ke_max                       =   1.5083609468232E-02
(PID.TID 0000.0001) %MON ke_mean                      =   2.1221826794777E-04
(PID.TID 0000.0001) %MON ke_vol                       =   1.3226782436723E+18
(PID.TID 0000.0001) %MON vort_r_min                   =  -4.1768730133653E-07
(PID.TID 0000.0001) %MON vort_r_max                   =   6.1042628318441E-07
(PID.TID 0000.0001) %MON vort_a_mean                  =  -2.5274807290807E-05
(PID.TID 0000.0001) %MON vort_a_sd                    =   7.3604563626784E-05
(PID.TID 0000.0001) %MON vort_p_mean                  =  -3.1845655665104E-05
(PID.TID 0000.0001) %MON vort_p_sd                    =   1.3162517377093E-04
(PID.TID 0000.0001) %MON surfExpan_theta_mean         =  -9.8783487432685E-07
(PID.TID 0000.0001) %MON surfExpan_salt_mean          =   2.7525172221298E-07
(PID.TID 0000.0001) // =======================================================
(PID.TID 0000.0001) // End MONITOR dynamic field statistics
(PID.TID 0000.0001) // =======================================================
 EXTERNAL_FIELDS_LOAD,        86 : iP,iLd,i0,i1=    3    4    3    4 ; Wght=  0.6333333333  0.3666666667
 EXTERNAL_FIELDS_LOAD: (fu0,1),fu,fv= -2.7199E-02 -3.7252E-02 -3.0885E-02 -1.3279E-02
 EXTERNAL_FIELDS_LOAD: SST,SSS,Q,E-P= -1.0352E-01  3.4575E+01  1.7459E+02  8.5998E-06
DEBUG_STATS_RL:          Uvel (THERMODYNAMICS)  min= -1.40063872807888E-01
DEBUG_STATS_RL:          Uvel (THERMODYNAMICS)  max=  1.54165770800482E-01
DEBUG_STATS_RL:          Uvel (THERMODYNAMICS) mean=  6.04055286696576E-03
DEBUG_STATS_RL:          Uvel (THERMODYNAMICS) S.D.=  2.51761337669647E-02
DEBUG_STATS_RL:          Vvel (THERMODYNAMICS)  min= -1.13642115938547E-01
DEBUG_STATS_RL:          Vvel (THERMODYNAMICS)  max=  1.64401604234546E-01
DEBUG_STATS_RL:          Vvel (THERMODYNAMICS) mean=  1.17701281770072E-03
DEBUG_STATS_RL:          Vvel (THERMODYNAMICS) S.D.=  1.52887217303651E-02
DEBUG_STATS_RL:          Wvel (THERMODYNAMICS)  min= -9.52097629181776E-05
DEBUG_STATS_RL:          Wvel (THERMODYNAMICS)  max=  2.60619198775886E-04
DEBUG_STATS_RL:          Wvel (THERMODYNAMICS) mean=  2.71868753029727E-08
DEBUG_STATS_RL:          Wvel (THERMODYNAMICS) S.D.=  1.26041691444645E-05
DEBUG_STATS_RL:         Theta (THERMODYNAMICS)  min= -1.93860169774494E+00
DEBUG_STATS_RL:         Theta (THERMODYNAMICS)  max=  3.11575036582099E+01
DEBUG_STATS_RL:         Theta (THERMODYNAMICS) mean=  3.25054008743618E+00
DEBUG_STATS_RL:         Theta (THERMODYNAMICS) S.D.=  5.88843748943631E+00
DEBUG_STATS_RL:          Salt (THERMODYNAMICS)  min=  3.00000000000000E-02
DEBUG_STATS_RL:          Salt (THERMODYNAMICS)  max=  3.74954607811809E+01
DEBUG_STATS_RL:          Salt (THERMODYNAMICS) mean=  1.88747987951103E+01
DEBUG_STATS_RL:          Salt (THERMODYNAMICS) S.D.=  1.73003508290957E+01
DEBUG_STATS_RL:         GtNm1 (THERMODYNAMICS)  min= -3.31355741718321E-06
DEBUG_STATS_RL:         GtNm1 (THERMODYNAMICS)  max=  2.26348594044037E-06
DEBUG_STATS_RL:         GtNm1 (THERMODYNAMICS) mean= -5.64363895010688E-10
DEBUG_STATS_RL:         GtNm1 (THERMODYNAMICS) S.D.=  1.64739344370850E-07
DEBUG_STATS_RL:         GsNm1 (THERMODYNAMICS)  min= -6.67839773259713E-07
DEBUG_STATS_RL:         GsNm1 (THERMODYNAMICS)  max=  4.29018715943118E-07
DEBUG_STATS_RL:         GsNm1 (THERMODYNAMICS) mean= -2.11016269860141E-10
DEBUG_STATS_RL:         GsNm1 (THERMODYNAMICS) S.D.=  1.61124786565742E-08
DEBUG_STATS_RL:                EtaN (DYNAMICS)  min= -2.18958659489683E+00
DEBUG_STATS_RL:                EtaN (DYNAMICS)  max=  1.07093085806539E+00
DEBUG_STATS_RL:                EtaN (DYNAMICS) mean= -2.06014159775434E-01
DEBUG_STATS_RL:                EtaN (DYNAMICS) S.D.=  8.18929324328074E-01
DEBUG_STATS_RL:                Uvel (DYNAMICS)  min= -1.40063872807888E-01
DEBUG_STATS_RL:                Uvel (DYNAMICS)  max=  1.54165770800482E-01
DEBUG_STATS_RL:                Uvel (DYNAMICS) mean=  6.04055286696576E-03
DEBUG_STATS_RL:                Uvel (DYNAMICS) S.D.=  2.51761337669647E-02
DEBUG_STATS_RL:                Vvel (DYNAMICS)  min= -1.13642115938547E-01
DEBUG_STATS_RL:                Vvel (DYNAMICS)  max=  1.64401604234546E-01
DEBUG_STATS_RL:                Vvel (DYNAMICS) mean=  1.17701281770072E-03
DEBUG_STATS_RL:                Vvel (DYNAMICS) S.D.=  1.52887217303651E-02
DEBUG_STATS_RL:                Wvel (DYNAMICS)  min= -9.52097629181776E-05
DEBUG_STATS_RL:                Wvel (DYNAMICS)  max=  2.60619198775886E-04
DEBUG_STATS_RL:                Wvel (DYNAMICS) mean=  2.71868753029727E-08
DEBUG_STATS_RL:                Wvel (DYNAMICS) S.D.=  1.26041691444645E-05
DEBUG_STATS_RL:               Theta (DYNAMICS)  min= -1.93860169774494E+00
DEBUG_STATS_RL:               Theta (DYNAMICS)  max=  3.11575036582099E+01
DEBUG_STATS_RL:               Theta (DYNAMICS) mean=  3.25054008743618E+00
DEBUG_STATS_RL:               Theta (DYNAMICS) S.D.=  5.88843748943631E+00
DEBUG_STATS_RL:                Salt (DYNAMICS)  min=  3.00000000000000E-02
DEBUG_STATS_RL:                Salt (DYNAMICS)  max=  3.74954607811809E+01
DEBUG_STATS_RL:                Salt (DYNAMICS) mean=  1.88747987951103E+01
DEBUG_STATS_RL:                Salt (DYNAMICS) S.D.=  1.73003508290957E+01
DEBUG_STATS_RL:                  Gu (DYNAMICS)  min= -1.39234881064714E-01
DEBUG_STATS_RL:                  Gu (DYNAMICS)  max=  1.54607524362542E-01
DEBUG_STATS_RL:                  Gu (DYNAMICS) mean=  6.01594101651585E-03
DEBUG_STATS_RL:                  Gu (DYNAMICS) S.D.=  2.54040582122125E-02
DEBUG_STATS_RL:                  Gv (DYNAMICS)  min= -1.15030850160814E-01
DEBUG_STATS_RL:                  Gv (DYNAMICS)  max=  1.64446680801977E-01
DEBUG_STATS_RL:                  Gv (DYNAMICS) mean=  3.55876709736315E-03
DEBUG_STATS_RL:                  Gv (DYNAMICS) S.D.=  1.66823935390483E-02
DEBUG_STATS_RL:               GuNm1 (DYNAMICS)  min= -1.10775612843957E-05
DEBUG_STATS_RL:               GuNm1 (DYNAMICS)  max=  9.33561426324405E-06
DEBUG_STATS_RL:               GuNm1 (DYNAMICS) mean=  1.52486444159436E-08
DEBUG_STATS_RL:               GuNm1 (DYNAMICS) S.D.=  1.24220860921988E-06
DEBUG_STATS_RL:               GvNm1 (DYNAMICS)  min= -9.34787861399352E-06
DEBUG_STATS_RL:               GvNm1 (DYNAMICS)  max=  1.53167651569999E-05
DEBUG_STATS_RL:               GvNm1 (DYNAMICS) mean=  7.37840537359778E-07
DEBUG_STATS_RL:               GvNm1 (DYNAMICS) S.D.=  2.62146678998815E-06
DEBUG_STATS_RL:               GtNm1 (DYNAMICS)  min= -3.31355741718321E-06
DEBUG_STATS_RL:               GtNm1 (DYNAMICS)  max=  2.26348594044037E-06
DEBUG_STATS_RL:               GtNm1 (DYNAMICS) mean= -5.64363895010688E-10
DEBUG_STATS_RL:               GtNm1 (DYNAMICS) S.D.=  1.64739344370850E-07
DEBUG_STATS_RL:               GsNm1 (DYNAMICS)  min= -6.67839773259713E-07
DEBUG_STATS_RL:               GsNm1 (DYNAMICS)  max=  4.29018715943118E-07
DEBUG_STATS_RL:               GsNm1 (DYNAMICS) mean= -2.11016269860141E-10
DEBUG_STATS_RL:               GsNm1 (DYNAMICS) S.D.=  1.61124786565742E-08
DEBUG_STATS_RL:    cg2d_b (SOLVE_FOR_PRESSURE)  min= -3.30091060984631E+04
DEBUG_STATS_RL:    cg2d_b (SOLVE_FOR_PRESSURE)  max=  3.33577165920917E+04
DEBUG_STATS_RL:    cg2d_b (SOLVE_FOR_PRESSURE) mean=  5.47189044028240E+00
DEBUG_STATS_RL:    cg2d_b (SOLVE_FOR_PRESSURE) S.D.=  4.20056503475361E+03
 cg2d: Sum(rhs),rhsMax =   3.79745008453479E-01  2.19102413857667E+00
(PID.TID 0000.0001)  cg2d: iter=     1 ; resid.=  1.76273900301630E-01
(PID.TID 0000.0001)  cg2d: iter=     2 ; resid.=  1.74784309527736E-01
(PID.TID 0000.0001)  cg2d: iter=     3 ; resid.=  1.78745612155490E-01
(PID.TID 0000.0001)  cg2d: iter=     4 ; resid.=  1.62933015513881E-01
(PID.TID 0000.0001)  cg2d: iter=     5 ; resid.=  1.50663269879979E-01
(PID.TID 0000.0001)  cg2d: iter=     6 ; resid.=  1.29012511262862E-01
(PID.TID 0000.0001)  cg2d: iter=     7 ; resid.=  9.98393779135457E-02
(PID.TID 0000.0001)  cg2d: iter=     8 ; resid.=  7.11327513008748E-02
(PID.TID 0000.0001)  cg2d: iter=     9 ; resid.=  5.06673515757445E-02
(PID.TID 0000.0001)  cg2d: iter=    10 ; resid.=  4.16990392878667E-02
(PID.TID 0000.0001)  cg2d: iter=    11 ; resid.=  3.41916898015400E-02
(PID.TID 0000.0001)  cg2d: iter=    12 ; resid.=  3.01525291205938E-02
(PID.TID 0000.0001)  cg2d: iter=    13 ; resid.=  2.55135316344878E-02
(PID.TID 0000.0001)  cg2d: iter=    14 ; resid.=  2.16585368215939E-02
(PID.TID 0000.0001)  cg2d: iter=    15 ; resid.=  1.80043023176762E-02
(PID.TID 0000.0001)  cg2d: iter=    16 ; resid.=  1.62563234029379E-02
(PID.TID 0000.0001)  cg2d: iter=    17 ; resid.=  1.41465875847994E-02
(PID.TID 0000.0001)  cg2d: iter=    18 ; resid.=  1.14147177046143E-02
(PID.TID 0000.0001)  cg2d: iter=    19 ; resid.=  8.71685093238973E-03
(PID.TID 0000.0001)  cg2d: iter=    20 ; resid.=  7.63307361224695E-03
(PID.TID 0000.0001)  cg2d: iter=    21 ; resid.=  6.28058423703433E-03
(PID.TID 0000.0001)  cg2d: iter=    22 ; resid.=  5.84446348468208E-03
(PID.TID 0000.0001)  cg2d: iter=    23 ; resid.=  4.80455517616467E-03
(PID.TID 0000.0001)  cg2d: iter=    24 ; resid.=  4.02955858515628E-03
(PID.TID 0000.0001)  cg2d: iter=    25 ; resid.=  2.93425596732703E-03
(PID.TID 0000.0001)  cg2d: iter=    26 ; resid.=  2.21841934544655E-03
(PID.TID 0000.0001)  cg2d: iter=    27 ; resid.=  1.78021714921358E-03
(PID.TID 0000.0001)  cg2d: iter=    28 ; resid.=  1.46060083326297E-03
(PID.TID 0000.0001)  cg2d: iter=    29 ; resid.=  1.21298408896734E-03
(PID.TID 0000.0001)  cg2d: iter=    30 ; resid.=  1.02344468402299E-03
(PID.TID 0000.0001)  cg2d: iter=    31 ; resid.=  8.27589632359061E-04
(PID.TID 0000.0001)  cg2d: iter=    32 ; resid.=  6.14313844023089E-04
(PID.TID 0000.0001)  cg2d: iter=    33 ; resid.=  4.69046143344306E-04
(PID.TID 0000.0001)  cg2d: iter=    34 ; resid.=  4.25993341518756E-04
(PID.TID 0000.0001)  cg2d: iter=    35 ; resid.=  3.69231529284818E-04
(PID.TID 0000.0001)  cg2d: iter=    36 ; resid.=  3.03021173628313E-04
(PID.TID 0000.0001)  cg2d: iter=    37 ; resid.=  2.63909588759831E-04
(PID.TID 0000.0001)  cg2d: iter=    38 ; resid.=  2.15663580916824E-04
(PID.TID 0000.0001)  cg2d: iter=    39 ; resid.=  1.85716383720297E-04
(PID.TID 0000.0001)  cg2d: iter=    40 ; resid.=  1.48809990148159E-04
(PID.TID 0000.0001)  cg2d: iter=    41 ; resid.=  1.14988323965333E-04
(PID.TID 0000.0001)  cg2d: iter=    42 ; resid.=  9.18489246090083E-05
(PID.TID 0000.0001)  cg2d: iter=    43 ; resid.=  7.67564905489627E-05
(PID.TID 0000.0001)  cg2d: iter=    44 ; resid.=  6.12036020185409E-05
(PID.TID 0000.0001)  cg2d: iter=    45 ; resid.=  5.16892779594701E-05
(PID.TID 0000.0001)  cg2d: iter=    46 ; resid.=  4.00313201370915E-05
(PID.TID 0000.0001)  cg2d: iter=    47 ; resid.=  3.10020651071289E-05
(PID.TID 0000.0001)  cg2d: iter=    48 ; resid.=  2.61903432718545E-05
(PID.TID 0000.0001)  cg2d: iter=    49 ; resid.=  2.25854762696096E-05
(PID.TID 0000.0001)  cg2d: iter=    50 ; resid.=  1.84497696962614E-05
(PID.TID 0000.0001)  cg2d: iter=    51 ; resid.=  1.58282530423784E-05
(PID.TID 0000.0001)  cg2d: iter=    52 ; resid.=  1.38956058444727E-05
(PID.TID 0000.0001)  cg2d: iter=    53 ; resid.=  1.23110667559222E-05
(PID.TID 0000.0001)  cg2d: iter=    54 ; resid.=  9.40993411274326E-06
(PID.TID 0000.0001)  cg2d: iter=    55 ; resid.=  8.08491357855969E-06
(PID.TID 0000.0001)  cg2d: iter=    56 ; resid.=  7.02835413011158E-06
(PID.TID 0000.0001)  cg2d: iter=    57 ; resid.=  5.97016312499499E-06
(PID.TID 0000.0001)  cg2d: iter=    58 ; resid.=  4.70168824485384E-06
(PID.TID 0000.0001)  cg2d: iter=    59 ; resid.=  3.62632195869565E-06
(PID.TID 0000.0001)  cg2d: iter=    60 ; resid.=  3.13086718388090E-06
(PID.TID 0000.0001)  cg2d: iter=    61 ; resid.=  2.66750960305219E-06
(PID.TID 0000.0001)  cg2d: iter=    62 ; resid.=  2.23663601086585E-06
(PID.TID 0000.0001)  cg2d: iter=    63 ; resid.=  1.83280058668927E-06
(PID.TID 0000.0001)  cg2d: iter=    64 ; resid.=  1.47210490024304E-06
(PID.TID 0000.0001)  cg2d: iter=    65 ; resid.=  1.23203982529354E-06
(PID.TID 0000.0001)  cg2d: iter=    66 ; resid.=  9.64315401180334E-07
(PID.TID 0000.0001)  cg2d: iter=    67 ; resid.=  7.80679750883903E-07
(PID.TID 0000.0001)  cg2d: iter=    68 ; resid.=  7.15069291747896E-07
(PID.TID 0000.0001)  cg2d: iter=    69 ; resid.=  5.96325234911028E-07
(PID.TID 0000.0001)  cg2d: iter=    70 ; resid.=  4.88417867422726E-07
(PID.TID 0000.0001)  cg2d: iter=    71 ; resid.=  4.02469495252892E-07
(PID.TID 0000.0001)  cg2d: iter=    72 ; resid.=  3.74010854941970E-07
(PID.TID 0000.0001)  cg2d: iter=    73 ; resid.=  3.27130416698800E-07
(PID.TID 0000.0001)  cg2d: iter=    74 ; resid.=  3.03885540785517E-07
(PID.TID 0000.0001)  cg2d: iter=    75 ; resid.=  2.82794452916821E-07
(PID.TID 0000.0001)  cg2d: iter=    76 ; resid.=  2.32575651889749E-07
(PID.TID 0000.0001)  cg2d: iter=    77 ; resid.=  1.94491222808226E-07
(PID.TID 0000.0001)  cg2d: iter=    78 ; resid.=  1.65397300626327E-07
(PID.TID 0000.0001)  cg2d: iter=    79 ; resid.=  1.28802562357485E-07
(PID.TID 0000.0001)  cg2d: iter=    80 ; resid.=  9.65448529516999E-08
(PID.TID 0000.0001)  cg2d: iter=    81 ; resid.=  7.25694167963624E-08
(PID.TID 0000.0001)  cg2d: iter=    82 ; resid.=  5.33362674134598E-08
(PID.TID 0000.0001)  cg2d: iter=    83 ; resid.=  4.15859551108947E-08
(PID.TID 0000.0001)  cg2d: iter=    84 ; resid.=  3.21112964541861E-08
(PID.TID 0000.0001)  cg2d: iter=    85 ; resid.=  2.35887976867492E-08
(PID.TID 0000.0001)  cg2d: iter=    86 ; resid.=  1.82073193390844E-08
(PID.TID 0000.0001)  cg2d: iter=    87 ; resid.=  1.57045614279095E-08
(PID.TID 0000.0001)  cg2d: iter=    88 ; resid.=  1.30105545837652E-08
(PID.TID 0000.0001)  cg2d: iter=    89 ; resid.=  1.10224514845647E-08
(PID.TID 0000.0001)  cg2d: iter=    90 ; resid.=  9.22680150211091E-09
(PID.TID 0000.0001)  cg2d: iter=    91 ; resid.=  7.10706384187038E-09
(PID.TID 0000.0001)  cg2d: iter=    92 ; resid.=  5.72473123443170E-09
(PID.TID 0000.0001)  cg2d: iter=    93 ; resid.=  4.28334775356152E-09
(PID.TID 0000.0001)  cg2d: iter=    94 ; resid.=  3.29059521767117E-09
(PID.TID 0000.0001)  cg2d: iter=    95 ; resid.=  2.77790591251703E-09
(PID.TID 0000.0001)  cg2d: iter=    96 ; resid.=  2.09740029849027E-09
(PID.TID 0000.0001)  cg2d: iter=    97 ; resid.=  1.67508730480285E-09
(PID.TID 0000.0001)  cg2d: iter=    98 ; resid.=  1.42971211052121E-09
(PID.TID 0000.0001)  cg2d: iter=    99 ; resid.=  1.32815039360532E-09
(PID.TID 0000.0001)  cg2d: iter=   100 ; resid.=  1.19447410071771E-09
(PID.TID 0000.0001)  cg2d: iter=   101 ; resid.=  9.61547463116252E-10
(PID.TID 0000.0001)  cg2d: iter=   102 ; resid.=  7.33439984110544E-10
(PID.TID 0000.0001)  cg2d: iter=   103 ; resid.=  5.50706385722429E-10
(PID.TID 0000.0001)  cg2d: iter=   104 ; resid.=  4.53793841025255E-10
(PID.TID 0000.0001)  cg2d: iter=   105 ; resid.=  3.41651378337225E-10
(PID.TID 0000.0001)  cg2d: iter=   106 ; resid.=  2.52266796078457E-10
(PID.TID 0000.0001)  cg2d: iter=   107 ; resid.=  1.78559667220140E-10
(PID.TID 0000.0001)  cg2d: iter=   108 ; resid.=  1.31083613863490E-10
(PID.TID 0000.0001)  cg2d: iter=   109 ; resid.=  9.68531742544503E-11
(PID.TID 0000.0001)  cg2d: iter=   110 ; resid.=  7.62802557689424E-11
(PID.TID 0000.0001)  cg2d: iter=   111 ; resid.=  6.11883579189320E-11
(PID.TID 0000.0001)  cg2d: iter=   112 ; resid.=  4.37682047752587E-11
(PID.TID 0000.0001)  cg2d: iter=   113 ; resid.=  3.10660244273555E-11
(PID.TID 0000.0001)  cg2d: iter=   114 ; resid.=  2.43517739758297E-11
(PID.TID 0000.0001)  cg2d: iter=   115 ; resid.=  1.86334743609528E-11
(PID.TID 0000.0001)  cg2d: iter=   116 ; resid.=  1.45296574287842E-11
(PID.TID 0000.0001)  cg2d: iter=   117 ; resid.=  1.15790406712725E-11
(PID.TID 0000.0001)  cg2d: iter=   118 ; resid.=  8.94694186792104E-12
(PID.TID 0000.0001)  cg2d: iter=   119 ; resid.=  6.92441831521796E-12
(PID.TID 0000.0001)  cg2d: iter=   120 ; resid.=  5.44890102861698E-12
(PID.TID 0000.0001)  cg2d: iter=   121 ; resid.=  4.03879864428715E-12
(PID.TID 0000.0001)  cg2d: iter=   122 ; resid.=  2.96930869262923E-12
(PID.TID 0000.0001)  cg2d: iter=   123 ; resid.=  2.29165941783868E-12
(PID.TID 0000.0001)  cg2d: iter=   124 ; resid.=  1.77158610755810E-12
(PID.TID 0000.0001)  cg2d: iter=   125 ; resid.=  1.30885626085481E-12
(PID.TID 0000.0001)  cg2d: iter=   126 ; resid.=  9.22772129904170E-13
(PID.TID 0000.0001)  cg2d: iter=   127 ; resid.=  5.97455495525140E-13
(PID.TID 0000.0001)  cg2d: iter=   128 ; resid.=  4.25568984174629E-13
(PID.TID 0000.0001)  cg2d: iter=   129 ; resid.=  2.73309692990350E-13
(PID.TID 0000.0001)  cg2d: iter=   130 ; resid.=  1.85999138318080E-13
(PID.TID 0000.0001)  cg2d: iter=   131 ; resid.=  1.27619839622257E-13
(PID.TID 0000.0001)  cg2d: iter=   132 ; resid.=  9.10203644266209E-14
DEBUG_STATS_RL:    cg2d_x (SOLVE_FOR_PRESSURE)  min= -2.12981608034532E+01
DEBUG_STATS_RL:    cg2d_x (SOLVE_FOR_PRESSURE)  max=  9.97063544075164E+00
DEBUG_STATS_RL:    cg2d_x (SOLVE_FOR_PRESSURE) mean= -1.98033218559931E+00
DEBUG_STATS_RL:    cg2d_x (SOLVE_FOR_PRESSURE) S.D.=  7.73570773227228E+00
(PID.TID 0000.0001)      cg2d_init_res =   2.77603846388107E-01
(PID.TID 0000.0001)      cg2d_iters(min,last) =      -1     132
(PID.TID 0000.0001)      cg2d_last_res =   9.10203644266209E-14
(PID.TID 0000.0001) // =======================================================
(PID.TID 0000.0001) // Begin MONITOR dynamic field statistics
(PID.TID 0000.0001) // =======================================================
(PID.TID 0000.0001) %MON time_tsnumber                =                    87
(PID.TID 0000.0001) %MON time_secondsf                =   7.5168000000000E+06
(PID.TID 0000.0001) %MON dynstat_eta_max              =   1.0163746626658E+00
(PID.TID 0000.0001) %MON dynstat_eta_min              =  -2.1710663408209E+00
(PID.TID 0000.0001) %MON dynstat_eta_mean             =  -5.7092391824188E-03
(PID.TID 0000.0001) %MON dynstat_eta_sd               =   6.8716099061219E-01
(PID.TID 0000.0001) %MON dynstat_eta_del2             =   2.6737076831994E-03
(PID.TID 0000.0001) %MON dynstat_uvel_max             =   1.4949394007209E-01
(PID.TID 0000.0001) %MON dynstat_uvel_min             =  -1.4175000839046E-01
(PID.TID 0000.0001) %MON dynstat_uvel_mean            =   2.0734188878979E-03
(PID.TID 0000.0001) %MON dynstat_uvel_sd              =   1.8824363062293E-02
(PID.TID 0000.0001) %MON dynstat_uvel_del2            =   1.5219561497740E-04
(PID.TID 0000.0001) %MON dynstat_vvel_max             =   1.6437551279278E-01
(PID.TID 0000.0001) %MON dynstat_vvel_min             =  -1.1075009413165E-01
(PID.TID 0000.0001) %MON dynstat_vvel_mean            =   1.1370097007231E-04
(PID.TID 0000.0001) %MON dynstat_vvel_sd              =   1.0182548961775E-02
(PID.TID 0000.0001) %MON dynstat_vvel_del2            =   9.3684192244620E-05
(PID.TID 0000.0001) %MON dynstat_wvel_max             =   2.4507605468860E-04
(PID.TID 0000.0001) %MON dynstat_wvel_min             =  -8.9684650276651E-05
(PID.TID 0000.0001) %MON dynstat_wvel_mean            =   9.2366988450945E-23
(PID.TID 0000.0001) %MON dynstat_wvel_sd              =   1.4300809275536E-05
(PID.TID 0000.0001) %MON dynstat_wvel_del2            =   1.3743534449490E-07
(PID.TID 0000.0001) %MON dynstat_theta_max            =   3.1157503658210E+01
(PID.TID 0000.0001) %MON dynstat_theta_min            =  -1.9386016977449E+00
(PID.TID 0000.0001) %MON dynstat_theta_mean           =   3.6540210472930E+00
(PID.TID 0000.0001) %MON dynstat_theta_sd             =   4.4283585416213E+00
(PID.TID 0000.0001) %MON dynstat_theta_del2           =   4.8722136421377E-03
(PID.TID 0000.0001) %MON dynstat_salt_max             =   3.7495460781181E+01
(PID.TID 0000.0001) %MON dynstat_salt_min             =   2.9954406821905E+01
(PID.TID 0000.0001) %MON dynstat_salt_mean            =   3.4748014691706E+01
(PID.TID 0000.0001) %MON dynstat_salt_sd              =   2.9664238892280E-01
(PID.TID 0000.0001) %MON dynstat_salt_del2            =   9.9747258645241E-04
(PID.TID 0000.0001) %MON dynstat_sst_max              =   3.1157503658210E+01
(PID.TID 0000.0001) %MON dynstat_sst_min              =  -1.9386016977449E+00
(PID.TID 0000.0001) %MON dynstat_sst_mean             =   1.9086921147738E+01
(PID.TID 0000.0001) %MON dynstat_sst_sd               =   9.2365674825170E+00
(PID.TID 0000.0001) %MON dynstat_sst_del2             =   2.9198439537604E-02
(PID.TID 0000.0001) %MON dynstat_sss_max              =   3.7495460781181E+01
(PID.TID 0000.0001) %MON dynstat_sss_min              =   2.9954406821905E+01
(PID.TID 0000.0001) %MON dynstat_sss_mean             =   3.4868502820795E+01
(PID.TID 0000.0001) %MON dynstat_sss_sd               =   9.8992464591708E-01
(PID.TID 0000.0001) %MON dynstat_sss_del2             =   8.2641213237884E-03
(PID.TID 0000.0001) %MON forcing_qnet_max             =   2.2275010782878E+02
(PID.TID 0000.0001) %MON forcing_qnet_min             =  -1.5914763132731E+02
(PID.TID 0000.0001) %MON forcing_qnet_mean            =  -2.8976652714786E+00
(PID.TID 0000.0001) %MON forcing_qnet_sd              =   3.9684988242510E+01
(PID.TID 0000.0001) %MON forcing_qnet_del2            =   7.9160338493799E-01
(PID.TID 0000.0001) %MON forcing_qsw_max              =   0.0000000000000E+00
(PID.TID 0000.0001) %MON forcing_qsw_min              =   0.0000000000000E+00
(PID.TID 0000.0001) %MON forcing_qsw_mean             =   0.0000000000000E+00
(PID.TID 0000.0001) %MON forcing_qsw_sd               =   0.0000000000000E+00
(PID.TID 0000.0001) %MON forcing_qsw_del2             =   0.0000000000000E+00
(PID.TID 0000.0001) %MON forcing_empmr_max            =   6.8050940645511E-05
(PID.TID 0000.0001) %MON forcing_empmr_min            =  -8.3427724462126E-05
(PID.TID 0000.0001) %MON forcing_empmr_mean           =   3.0381204057547E-07
(PID.TID 0000.0001) %MON forcing_empmr_sd             =   2.5679722852412E-05
(PID.TID 0000.0001) %MON forcing_empmr_del2           =   3.6300151295043E-07
(PID.TID 0000.0001) %MON forcing_fu_max               =   3.4985787868500E-01
(PID.TID 0000.0001) %MON forcing_fu_min               =  -3.9882021248341E-01
(PID.TID 0000.0001) %MON forcing_fu_mean              =   1.9057616234127E-02
(PID.TID 0000.0001) %MON forcing_fu_sd                =   1.0030231704399E-01
(PID.TID 0000.0001) %MON forcing_fu_del2              =   7.8085114246442E-04
(PID.TID 0000.0001) %MON forcing_fv_max               =   1.8224433263143E-01
(PID.TID 0000.0001) %MON forcing_fv_min               =  -1.5584678848584E-01
(PID.TID 0000.0001) %MON forcing_fv_mean              =  -7.1283320439412E-03
(PID.TID 0000.0001) %MON forcing_fv_sd                =   3.9251431709163E-02
(PID.TID 0000.0001) %MON forcing_fv_del2              =   4.2751975732847E-04
(PID.TID 0000.0001) %MON trAdv_CFL_u_max              =   4.9513250720333E-02
(PID.TID 0000.0001) %MON trAdv_CFL_v_max              =   3.1888686620589E-02
(PID.TID 0000.0001) %MON trAdv_CFL_w_max              =   5.7737176344196E-02
(PID.TID 0000.0001) %MON advcfl_uvel_max              =   4.9636416260370E-02
(PID.TID 0000.0001) %MON advcfl_vvel_max              =   3.1935525869360E-02
(PID.TID 0000.0001) %MON advcfl_wvel_max              =   5.8012523630398E-02
(PID.TID 0000.0001) %MON advcfl_W_hf_max              =   6.2278150367927E-02
(PID.TID 0000.0001) %MON pe_b_mean                    =   6.0426601965424E-04
(PID.TID 0000.0001) %MON ke_max                       =   1.4439606406851E-02
(PID.TID 0000.0001) %MON ke_mean                      =   2.0949694963494E-04
(PID.TID 0000.0001) %MON ke_vol                       =   1.3226782436723E+18
(PID.TID 0000.0001) %MON vort_r_min                   =  -4.2375411535974E-07
(PID.TID 0000.0001) %MON vort_r_max                   =   6.1612806000518E-07
(PID.TID 0000.0001) %MON vort_a_mean                  =  -2.5274807359166E-05
(PID.TID 0000.0001) %MON vort_a_sd                    =   7.3604554819078E-05
(PID.TID 0000.0001) %MON vort_p_mean                  =  -3.1845655751235E-05
(PID.TID 0000.0001) %MON vort_p_sd                    =   1.3162501807825E-04
(PID.TID 0000.0001) %MON surfExpan_theta_mean         =  -1.0001388352505E-06
(PID.TID 0000.0001) %MON surfExpan_salt_mean          =   2.8173683028980E-07
(PID.TID 0000.0001) // =======================================================
(PID.TID 0000.0001) // End MONITOR dynamic field statistics
(PID.TID 0000.0001) // =======================================================
 EXTERNAL_FIELDS_LOAD,        87 : iP,iLd,i0,i1=    3    4    3    4 ; Wght=  0.6000000000  0.4000000000
 EXTERNAL_FIELDS_LOAD: (fu0,1),fu,fv= -2.7199E-02 -3.7252E-02 -3.1220E-02 -1.4433E-02
 EXTERNAL_FIELDS_LOAD: SST,SSS,Q,E-P= -9.6208E-02  3.4575E+01  1.7088E+02  8.5561E-06
DEBUG_STATS_RL:          Uvel (THERMODYNAMICS)  min= -1.41750008390457E-01
DEBUG_STATS_RL:          Uvel (THERMODYNAMICS)  max=  1.49493940072093E-01
DEBUG_STATS_RL:          Uvel (THERMODYNAMICS) mean=  5.92636466641462E-03
DEBUG_STATS_RL:          Uvel (THERMODYNAMICS) S.D.=  2.50870295482938E-02
DEBUG_STATS_RL:          Vvel (THERMODYNAMICS)  min= -1.10750094131650E-01
DEBUG_STATS_RL:          Vvel (THERMODYNAMICS)  max=  1.64375512792781E-01
DEBUG_STATS_RL:          Vvel (THERMODYNAMICS) mean=  1.16617732838919E-03
DEBUG_STATS_RL:          Vvel (THERMODYNAMICS) S.D.=  1.52085458295100E-02
DEBUG_STATS_RL:          Wvel (THERMODYNAMICS)  min= -8.96846502766513E-05
DEBUG_STATS_RL:          Wvel (THERMODYNAMICS)  max=  2.45076054688603E-04
DEBUG_STATS_RL:          Wvel (THERMODYNAMICS) mean=  2.29978982481726E-08
DEBUG_STATS_RL:          Wvel (THERMODYNAMICS) S.D.=  1.24241504268531E-05
DEBUG_STATS_RL:         Theta (THERMODYNAMICS)  min= -1.93744424407684E+00
DEBUG_STATS_RL:         Theta (THERMODYNAMICS)  max=  3.11763673194766E+01
DEBUG_STATS_RL:         Theta (THERMODYNAMICS) mean=  3.25045616397127E+00
DEBUG_STATS_RL:         Theta (THERMODYNAMICS) S.D.=  5.88866538561625E+00
DEBUG_STATS_RL:          Salt (THERMODYNAMICS)  min=  3.00000000000000E-02
DEBUG_STATS_RL:          Salt (THERMODYNAMICS)  max=  3.74959014766824E+01
DEBUG_STATS_RL:          Salt (THERMODYNAMICS) mean=  1.88747899008116E+01
DEBUG_STATS_RL:          Salt (THERMODYNAMICS) S.D.=  1.73003432561265E+01
DEBUG_STATS_RL:         GtNm1 (THERMODYNAMICS)  min= -2.74771080381944E-06
DEBUG_STATS_RL:         GtNm1 (THERMODYNAMICS)  max=  2.16816707495229E-06
DEBUG_STATS_RL:         GtNm1 (THERMODYNAMICS) mean= -6.79950456408844E-10
DEBUG_STATS_RL:         GtNm1 (THERMODYNAMICS) S.D.=  1.61389343800616E-07
DEBUG_STATS_RL:         GsNm1 (THERMODYNAMICS)  min= -4.48869938612726E-07
DEBUG_STATS_RL:         GsNm1 (THERMODYNAMICS)  max=  3.45664629451776E-07
DEBUG_STATS_RL:         GsNm1 (THERMODYNAMICS) mean= -2.34449413075028E-10
DEBUG_STATS_RL:         GsNm1 (THERMODYNAMICS) S.D.=  1.56595502525766E-08
DEBUG_STATS_RL:                EtaN (DYNAMICS)  min= -2.17106634082087E+00
DEBUG_STATS_RL:                EtaN (DYNAMICS)  max=  1.01637466266579E+00
DEBUG_STATS_RL:                EtaN (DYNAMICS) mean= -2.01868724322050E-01
DEBUG_STATS_RL:                EtaN (DYNAMICS) S.D.=  7.88553285654670E-01
DEBUG_STATS_RL:                Uvel (DYNAMICS)  min= -1.41750008390457E-01
DEBUG_STATS_RL:                Uvel (DYNAMICS)  max=  1.49493940072093E-01
DEBUG_STATS_RL:                Uvel (DYNAMICS) mean=  5.92636466641462E-03
DEBUG_STATS_RL:                Uvel (DYNAMICS) S.D.=  2.50870295482938E-02
DEBUG_STATS_RL:                Vvel (DYNAMICS)  min= -1.10750094131650E-01
DEBUG_STATS_RL:                Vvel (DYNAMICS)  max=  1.64375512792781E-01
DEBUG_STATS_RL:                Vvel (DYNAMICS) mean=  1.16617732838919E-03
DEBUG_STATS_RL:                Vvel (DYNAMICS) S.D.=  1.52085458295100E-02
DEBUG_STATS_RL:                Wvel (DYNAMICS)  min= -8.96846502766513E-05
DEBUG_STATS_RL:                Wvel (DYNAMICS)  max=  2.45076054688603E-04
DEBUG_STATS_RL:                Wvel (DYNAMICS) mean=  2.29978982481726E-08
DEBUG_STATS_RL:                Wvel (DYNAMICS) S.D.=  1.24241504268531E-05
DEBUG_STATS_RL:               Theta (DYNAMICS)  min= -1.93744424407684E+00
DEBUG_STATS_RL:               Theta (DYNAMICS)  max=  3.11763673194766E+01
DEBUG_STATS_RL:               Theta (DYNAMICS) mean=  3.25045616397127E+00
DEBUG_STATS_RL:               Theta (DYNAMICS) S.D.=  5.88866538561625E+00
DEBUG_STATS_RL:                Salt (DYNAMICS)  min=  3.00000000000000E-02
DEBUG_STATS_RL:                Salt (DYNAMICS)  max=  3.74959014766824E+01
DEBUG_STATS_RL:                Salt (DYNAMICS) mean=  1.88747899008116E+01
DEBUG_STATS_RL:                Salt (DYNAMICS) S.D.=  1.73003432561265E+01
DEBUG_STATS_RL:                  Gu (DYNAMICS)  min= -1.40901826578859E-01
DEBUG_STATS_RL:                  Gu (DYNAMICS)  max=  1.49367113863986E-01
DEBUG_STATS_RL:                  Gu (DYNAMICS) mean=  5.88670281572896E-03
DEBUG_STATS_RL:                  Gu (DYNAMICS) S.D.=  2.53163973399498E-02
DEBUG_STATS_RL:                  Gv (DYNAMICS)  min= -1.09328108611237E-01
DEBUG_STATS_RL:                  Gv (DYNAMICS)  max=  1.64374843909032E-01
DEBUG_STATS_RL:                  Gv (DYNAMICS) mean=  3.53249366871241E-03
DEBUG_STATS_RL:                  Gv (DYNAMICS) S.D.=  1.66128557607353E-02
DEBUG_STATS_RL:               GuNm1 (DYNAMICS)  min= -1.09561483029710E-05
DEBUG_STATS_RL:               GuNm1 (DYNAMICS)  max=  9.52358517347681E-06
DEBUG_STATS_RL:               GuNm1 (DYNAMICS) mean=  1.60068708781998E-08
DEBUG_STATS_RL:               GuNm1 (DYNAMICS) S.D.=  1.24256662382502E-06
DEBUG_STATS_RL:               GvNm1 (DYNAMICS)  min= -9.31797871644051E-06
DEBUG_STATS_RL:               GvNm1 (DYNAMICS)  max=  1.52744109862264E-05
DEBUG_STATS_RL:               GvNm1 (DYNAMICS) mean=  7.38357060017879E-07
DEBUG_STATS_RL:               GvNm1 (DYNAMICS) S.D.=  2.62069880725026E-06
DEBUG_STATS_RL:               GtNm1 (DYNAMICS)  min= -2.74771080381944E-06
DEBUG_STATS_RL:               GtNm1 (DYNAMICS)  max=  2.16816707495229E-06
DEBUG_STATS_RL:               GtNm1 (DYNAMICS) mean= -6.79950456408844E-10
DEBUG_STATS_RL:               GtNm1 (DYNAMICS) S.D.=  1.61389343800616E-07
DEBUG_STATS_RL:               GsNm1 (DYNAMICS)  min= -4.48869938612726E-07
DEBUG_STATS_RL:               GsNm1 (DYNAMICS)  max=  3.45664629451776E-07
DEBUG_STATS_RL:               GsNm1 (DYNAMICS) mean= -2.34449413075028E-10
DEBUG_STATS_RL:               GsNm1 (DYNAMICS) S.D.=  1.56595502525766E-08
DEBUG_STATS_RL:    cg2d_b (SOLVE_FOR_PRESSURE)  min= -3.33213703836423E+04
DEBUG_STATS_RL:    cg2d_b (SOLVE_FOR_PRESSURE)  max=  3.36784060341004E+04
DEBUG_STATS_RL:    cg2d_b (SOLVE_FOR_PRESSURE) mean=  5.49440198038468E+00
DEBUG_STATS_RL:    cg2d_b (SOLVE_FOR_PRESSURE) S.D.=  4.19826501990300E+03
 cg2d: Sum(rhs),rhsMax =   3.77676442635397E-01  2.21208787974996E+00
(PID.TID 0000.0001)  cg2d: iter=     1 ; resid.=  1.72615644918280E-01
(PID.TID 0000.0001)  cg2d: iter=     2 ; resid.=  1.72699243663961E-01
(PID.TID 0000.0001)  cg2d: iter=     3 ; resid.=  1.75451010059161E-01
(PID.TID 0000.0001)  cg2d: iter=     4 ; resid.=  1.59258123422471E-01
(PID.TID 0000.0001)  cg2d: iter=     5 ; resid.=  1.50187492822240E-01
(PID.TID 0000.0001)  cg2d: iter=     6 ; resid.=  1.28474942894280E-01
(PID.TID 0000.0001)  cg2d: iter=     7 ; resid.=  9.71124352614152E-02
(PID.TID 0000.0001)  cg2d: iter=     8 ; resid.=  6.87050986975665E-02
(PID.TID 0000.0001)  cg2d: iter=     9 ; resid.=  4.92415445404047E-02
(PID.TID 0000.0001)  cg2d: iter=    10 ; resid.=  4.02756631746618E-02
(PID.TID 0000.0001)  cg2d: iter=    11 ; resid.=  3.35224797135003E-02
(PID.TID 0000.0001)  cg2d: iter=    12 ; resid.=  2.94345012880797E-02
(PID.TID 0000.0001)  cg2d: iter=    13 ; resid.=  2.52190686042255E-02
(PID.TID 0000.0001)  cg2d: iter=    14 ; resid.=  2.14879372485295E-02
(PID.TID 0000.0001)  cg2d: iter=    15 ; resid.=  1.77722187463825E-02
(PID.TID 0000.0001)  cg2d: iter=    16 ; resid.=  1.62968440281465E-02
(PID.TID 0000.0001)  cg2d: iter=    17 ; resid.=  1.40628759098515E-02
(PID.TID 0000.0001)  cg2d: iter=    18 ; resid.=  1.12527653122294E-02
(PID.TID 0000.0001)  cg2d: iter=    19 ; resid.=  8.67136635668972E-03
(PID.TID 0000.0001)  cg2d: iter=    20 ; resid.=  7.37365970455549E-03
(PID.TID 0000.0001)  cg2d: iter=    21 ; resid.=  6.07036798305711E-03
(PID.TID 0000.0001)  cg2d: iter=    22 ; resid.=  5.66036933622133E-03
(PID.TID 0000.0001)  cg2d: iter=    23 ; resid.=  4.64857764714361E-03
(PID.TID 0000.0001)  cg2d: iter=    24 ; resid.=  4.01001497561082E-03
(PID.TID 0000.0001)  cg2d: iter=    25 ; resid.=  2.91555408577859E-03
(PID.TID 0000.0001)  cg2d: iter=    26 ; resid.=  2.19303277166670E-03
(PID.TID 0000.0001)  cg2d: iter=    27 ; resid.=  1.74368604680700E-03
(PID.TID 0000.0001)  cg2d: iter=    28 ; resid.=  1.40747055157976E-03
(PID.TID 0000.0001)  cg2d: iter=    29 ; resid.=  1.15893423247806E-03
(PID.TID 0000.0001)  cg2d: iter=    30 ; resid.=  9.92592780059189E-04
(PID.TID 0000.0001)  cg2d: iter=    31 ; resid.=  8.19268881698651E-04
(PID.TID 0000.0001)  cg2d: iter=    32 ; resid.=  6.08107244350445E-04
(PID.TID 0000.0001)  cg2d: iter=    33 ; resid.=  4.68031938685517E-04
(PID.TID 0000.0001)  cg2d: iter=    34 ; resid.=  4.31965107012299E-04
(PID.TID 0000.0001)  cg2d: iter=    35 ; resid.=  3.66171289232342E-04
(PID.TID 0000.0001)  cg2d: iter=    36 ; resid.=  2.97608755040932E-04
(PID.TID 0000.0001)  cg2d: iter=    37 ; resid.=  2.60617356106883E-04
(PID.TID 0000.0001)  cg2d: iter=    38 ; resid.=  2.13470417941954E-04
(PID.TID 0000.0001)  cg2d: iter=    39 ; resid.=  1.84173731340106E-04
(PID.TID 0000.0001)  cg2d: iter=    40 ; resid.=  1.50392158840902E-04
(PID.TID 0000.0001)  cg2d: iter=    41 ; resid.=  1.18985244812902E-04
(PID.TID 0000.0001)  cg2d: iter=    42 ; resid.=  9.62800060696278E-05
(PID.TID 0000.0001)  cg2d: iter=    43 ; resid.=  7.98684425987637E-05
(PID.TID 0000.0001)  cg2d: iter=    44 ; resid.=  6.32640071747568E-05
(PID.TID 0000.0001)  cg2d: iter=    45 ; resid.=  5.35854019652579E-05
(PID.TID 0000.0001)  cg2d: iter=    46 ; resid.=  4.18024675828296E-05
(PID.TID 0000.0001)  cg2d: iter=    47 ; resid.=  3.32547550893782E-05
(PID.TID 0000.0001)  cg2d: iter=    48 ; resid.=  2.93691671029449E-05
(PID.TID 0000.0001)  cg2d: iter=    49 ; resid.=  2.61783983332304E-05
(PID.TID 0000.0001)  cg2d: iter=    50 ; resid.=  2.16256094110992E-05
(PID.TID 0000.0001)  cg2d: iter=    51 ; resid.=  1.89948697730812E-05
(PID.TID 0000.0001)  cg2d: iter=    52 ; resid.=  1.66055356340859E-05
(PID.TID 0000.0001)  cg2d: iter=    53 ; resid.=  1.42703573029372E-05
(PID.TID 0000.0001)  cg2d: iter=    54 ; resid.=  1.06757632051864E-05
(PID.TID 0000.0001)  cg2d: iter=    55 ; resid.=  9.13612817387171E-06
(PID.TID 0000.0001)  cg2d: iter=    56 ; resid.=  8.30953557270707E-06
(PID.TID 0000.0001)  cg2d: iter=    57 ; resid.=  7.19309525229993E-06
(PID.TID 0000.0001)  cg2d: iter=    58 ; resid.=  5.76507283939938E-06
(PID.TID 0000.0001)  cg2d: iter=    59 ; resid.=  4.58339787843569E-06
(PID.TID 0000.0001)  cg2d: iter=    60 ; resid.=  3.90044638780159E-06
(PID.TID 0000.0001)  cg2d: iter=    61 ; resid.=  3.28083093729160E-06
(PID.TID 0000.0001)  cg2d: iter=    62 ; resid.=  2.74437577546350E-06
(PID.TID 0000.0001)  cg2d: iter=    63 ; resid.=  2.27190008621458E-06
(PID.TID 0000.0001)  cg2d: iter=    64 ; resid.=  1.85119431189530E-06
(PID.TID 0000.0001)  cg2d: iter=    65 ; resid.=  1.55231680356328E-06
(PID.TID 0000.0001)  cg2d: iter=    66 ; resid.=  1.25420981479455E-06
(PID.TID 0000.0001)  cg2d: iter=    67 ; resid.=  1.04056208010766E-06
(PID.TID 0000.0001)  cg2d: iter=    68 ; resid.=  9.45380907686675E-07
(PID.TID 0000.0001)  cg2d: iter=    69 ; resid.=  7.89601091664426E-07
(PID.TID 0000.0001)  cg2d: iter=    70 ; resid.=  6.41345812914365E-07
(PID.TID 0000.0001)  cg2d: iter=    71 ; resid.=  5.35310513868845E-07
(PID.TID 0000.0001)  cg2d: iter=    72 ; resid.=  4.92100225490998E-07
(PID.TID 0000.0001)  cg2d: iter=    73 ; resid.=  4.21559324572694E-07
(PID.TID 0000.0001)  cg2d: iter=    74 ; resid.=  3.83863346349751E-07
(PID.TID 0000.0001)  cg2d: iter=    75 ; resid.=  3.37021849473585E-07
(PID.TID 0000.0001)  cg2d: iter=    76 ; resid.=  2.58356398801959E-07
(PID.TID 0000.0001)  cg2d: iter=    77 ; resid.=  2.10626018720806E-07
(PID.TID 0000.0001)  cg2d: iter=    78 ; resid.=  1.66407248651271E-07
(PID.TID 0000.0001)  cg2d: iter=    79 ; resid.=  1.27390458390951E-07
(PID.TID 0000.0001)  cg2d: iter=    80 ; resid.=  9.62672571848725E-08
(PID.TID 0000.0001)  cg2d: iter=    81 ; resid.=  7.24180963584503E-08
(PID.TID 0000.0001)  cg2d: iter=    82 ; resid.=  5.27938111433564E-08
(PID.TID 0000.0001)  cg2d: iter=    83 ; resid.=  4.11530244361584E-08
(PID.TID 0000.0001)  cg2d: iter=    84 ; resid.=  3.14992450367959E-08
(PID.TID 0000.0001)  cg2d: iter=    85 ; resid.=  2.31249746122064E-08
(PID.TID 0000.0001)  cg2d: iter=    86 ; resid.=  1.79472992612090E-08
(PID.TID 0000.0001)  cg2d: iter=    87 ; resid.=  1.54996803179169E-08
(PID.TID 0000.0001)  cg2d: iter=    88 ; resid.=  1.29721556744513E-08
(PID.TID 0000.0001)  cg2d: iter=    89 ; resid.=  1.10693549259984E-08
(PID.TID 0000.0001)  cg2d: iter=    90 ; resid.=  9.11844547915214E-09
(PID.TID 0000.0001)  cg2d: iter=    91 ; resid.=  6.88366277807976E-09
(PID.TID 0000.0001)  cg2d: iter=    92 ; resid.=  5.37158618868586E-09
(PID.TID 0000.0001)  cg2d: iter=    93 ; resid.=  3.98844612558856E-09
(PID.TID 0000.0001)  cg2d: iter=    94 ; resid.=  3.08537469416732E-09
(PID.TID 0000.0001)  cg2d: iter=    95 ; resid.=  2.60439933897325E-09
(PID.TID 0000.0001)  cg2d: iter=    96 ; resid.=  1.98475734135276E-09
(PID.TID 0000.0001)  cg2d: iter=    97 ; resid.=  1.58255375604395E-09
(PID.TID 0000.0001)  cg2d: iter=    98 ; resid.=  1.35700731312282E-09
(PID.TID 0000.0001)  cg2d: iter=    99 ; resid.=  1.27682241160280E-09
(PID.TID 0000.0001)  cg2d: iter=   100 ; resid.=  1.16034691264832E-09
(PID.TID 0000.0001)  cg2d: iter=   101 ; resid.=  9.33951826851341E-10
(PID.TID 0000.0001)  cg2d: iter=   102 ; resid.=  7.07250508212880E-10
(PID.TID 0000.0001)  cg2d: iter=   103 ; resid.=  5.30164118600619E-10
(PID.TID 0000.0001)  cg2d: iter=   104 ; resid.=  4.27681248365993E-10
(PID.TID 0000.0001)  cg2d: iter=   105 ; resid.=  3.16611896064977E-10
(PID.TID 0000.0001)  cg2d: iter=   106 ; resid.=  2.34645031831214E-10
(PID.TID 0000.0001)  cg2d: iter=   107 ; resid.=  1.66713093525013E-10
(PID.TID 0000.0001)  cg2d: iter=   108 ; resid.=  1.17298975084666E-10
(PID.TID 0000.0001)  cg2d: iter=   109 ; resid.=  8.53417517056090E-11
(PID.TID 0000.0001)  cg2d: iter=   110 ; resid.=  6.78330313813570E-11
(PID.TID 0000.0001)  cg2d: iter=   111 ; resid.=  5.45959794055115E-11
(PID.TID 0000.0001)  cg2d: iter=   112 ; resid.=  4.04413274118117E-11
(PID.TID 0000.0001)  cg2d: iter=   113 ; resid.=  2.97161646985452E-11
(PID.TID 0000.0001)  cg2d: iter=   114 ; resid.=  2.38335528049896E-11
(PID.TID 0000.0001)  cg2d: iter=   115 ; resid.=  1.89671834149250E-11
(PID.TID 0000.0001)  cg2d: iter=   116 ; resid.=  1.50814173435801E-11
(PID.TID 0000.0001)  cg2d: iter=   117 ; resid.=  1.18874794649839E-11
(PID.TID 0000.0001)  cg2d: iter=   118 ; resid.=  8.94414228288106E-12
(PID.TID 0000.0001)  cg2d: iter=   119 ; resid.=  6.49122806038978E-12
(PID.TID 0000.0001)  cg2d: iter=   120 ; resid.=  4.96525801278507E-12
(PID.TID 0000.0001)  cg2d: iter=   121 ; resid.=  3.62822797004017E-12
(PID.TID 0000.0001)  cg2d: iter=   122 ; resid.=  2.57413361995905E-12
(PID.TID 0000.0001)  cg2d: iter=   123 ; resid.=  1.96280927078522E-12
(PID.TID 0000.0001)  cg2d: iter=   124 ; resid.=  1.49988179353243E-12
(PID.TID 0000.0001)  cg2d: iter=   125 ; resid.=  1.09250842636219E-12
(PID.TID 0000.0001)  cg2d: iter=   126 ; resid.=  7.70389093425801E-13
(PID.TID 0000.0001)  cg2d: iter=   127 ; resid.=  4.96836632384528E-13
(PID.TID 0000.0001)  cg2d: iter=   128 ; resid.=  3.63542459020084E-13
(PID.TID 0000.0001)  cg2d: iter=   129 ; resid.=  2.38245821814704E-13
(PID.TID 0000.0001)  cg2d: iter=   130 ; resid.=  1.66568447271658E-13
(PID.TID 0000.0001)  cg2d: iter=   131 ; resid.=  1.16986060285856E-13
(PID.TID 0000.0001)  cg2d: iter=   132 ; resid.=  8.50463899251935E-14
DEBUG_STATS_RL:    cg2d_x (SOLVE_FOR_PRESSURE)  min= -2.10527194098506E+01
DEBUG_STATS_RL:    cg2d_x (SOLVE_FOR_PRESSURE)  max=  9.43553999208186E+00
DEBUG_STATS_RL:    cg2d_x (SOLVE_FOR_PRESSURE) mean= -1.93931153470943E+00
DEBUG_STATS_RL:    cg2d_x (SOLVE_FOR_PRESSURE) S.D.=  7.46848771026351E+00
(PID.TID 0000.0001)      cg2d_init_res =   2.73463436494990E-01
(PID.TID 0000.0001)      cg2d_iters(min,last) =      -1     132
(PID.TID 0000.0001)      cg2d_last_res =   8.50463899251935E-14
(PID.TID 0000.0001) // =======================================================
(PID.TID 0000.0001) // Begin MONITOR dynamic field statistics
(PID.TID 0000.0001) // =======================================================
(PID.TID 0000.0001) %MON time_tsnumber                =                    88
(PID.TID 0000.0001) %MON time_secondsf                =   7.6032000000000E+06
(PID.TID 0000.0001) %MON dynstat_eta_max              =   9.6182874537018E-01
(PID.TID 0000.0001) %MON dynstat_eta_min              =  -2.1460468307696E+00
(PID.TID 0000.0001) %MON dynstat_eta_mean             =  -5.7327271831766E-03
(PID.TID 0000.0001) %MON dynstat_eta_sd               =   6.5822033211915E-01
(PID.TID 0000.0001) %MON dynstat_eta_del2             =   2.6791399408063E-03
(PID.TID 0000.0001) %MON dynstat_uvel_max             =   1.4439142906906E-01
(PID.TID 0000.0001) %MON dynstat_uvel_min             =  -1.4325700780515E-01
(PID.TID 0000.0001) %MON dynstat_uvel_mean            =   2.0137789797230E-03
(PID.TID 0000.0001) %MON dynstat_uvel_sd              =   1.8697176011679E-02
(PID.TID 0000.0001) %MON dynstat_uvel_del2            =   1.5295813556597E-04
(PID.TID 0000.0001) %MON dynstat_vvel_max             =   1.6384169044953E-01
(PID.TID 0000.0001) %MON dynstat_vvel_min             =  -1.1193910719157E-01
(PID.TID 0000.0001) %MON dynstat_vvel_mean            =   1.2734571270932E-04
(PID.TID 0000.0001) %MON dynstat_vvel_sd              =   1.0121999748550E-02
(PID.TID 0000.0001) %MON dynstat_vvel_del2            =   9.3487593649023E-05
(PID.TID 0000.0001) %MON dynstat_wvel_max             =   2.2683370381454E-04
(PID.TID 0000.0001) %MON dynstat_wvel_min             =  -9.0066246948743E-05
(PID.TID 0000.0001) %MON dynstat_wvel_mean            =   3.9313885821932E-23
(PID.TID 0000.0001) %MON dynstat_wvel_sd              =   1.4118388810806E-05
(PID.TID 0000.0001) %MON dynstat_wvel_del2            =   1.3523281693243E-07
(PID.TID 0000.0001) %MON dynstat_theta_max            =   3.1176367319477E+01
(PID.TID 0000.0001) %MON dynstat_theta_min            =  -1.9374442440768E+00
(PID.TID 0000.0001) %MON dynstat_theta_mean           =   3.6540567765889E+00
(PID.TID 0000.0001) %MON dynstat_theta_sd             =   4.4285222031870E+00
(PID.TID 0000.0001) %MON dynstat_theta_del2           =   4.8703046509778E-03
(PID.TID 0000.0001) %MON dynstat_salt_max             =   3.7495901476682E+01
(PID.TID 0000.0001) %MON dynstat_salt_min             =   2.9958936786103E+01
(PID.TID 0000.0001) %MON dynstat_salt_mean            =   3.4748008735137E+01
(PID.TID 0000.0001) %MON dynstat_salt_sd              =   2.9663630159524E-01
(PID.TID 0000.0001) %MON dynstat_salt_del2            =   9.9768649065011E-04
(PID.TID 0000.0001) %MON dynstat_sst_max              =   3.1176367319477E+01
(PID.TID 0000.0001) %MON dynstat_sst_min              =  -1.9374442440768E+00
(PID.TID 0000.0001) %MON dynstat_sst_mean             =   1.9085244430718E+01
(PID.TID 0000.0001) %MON dynstat_sst_sd               =   9.2441438703857E+00
(PID.TID 0000.0001) %MON dynstat_sst_del2             =   2.9223007747657E-02
(PID.TID 0000.0001) %MON dynstat_sss_max              =   3.7495901476682E+01
(PID.TID 0000.0001) %MON dynstat_sss_min              =   2.9958936786103E+01
(PID.TID 0000.0001) %MON dynstat_sss_mean             =   3.4868371875040E+01
(PID.TID 0000.0001) %MON dynstat_sss_sd               =   9.9031990814686E-01
(PID.TID 0000.0001) %MON dynstat_sss_del2             =   8.2716772550582E-03
(PID.TID 0000.0001) %MON forcing_qnet_max             =   2.1804487304688E+02
(PID.TID 0000.0001) %MON forcing_qnet_min             =  -1.5871963500977E+02
(PID.TID 0000.0001) %MON forcing_qnet_mean            =  -2.5006288425090E+00
(PID.TID 0000.0001) %MON forcing_qnet_sd              =   3.9492057446070E+01
(PID.TID 0000.0001) %MON forcing_qnet_del2            =   7.8895928517454E-01
(PID.TID 0000.0001) %MON forcing_qsw_max              =   0.0000000000000E+00
(PID.TID 0000.0001) %MON forcing_qsw_min              =   0.0000000000000E+00
(PID.TID 0000.0001) %MON forcing_qsw_mean             =   0.0000000000000E+00
(PID.TID 0000.0001) %MON forcing_qsw_sd               =   0.0000000000000E+00
(PID.TID 0000.0001) %MON forcing_qsw_del2             =   0.0000000000000E+00
(PID.TID 0000.0001) %MON forcing_empmr_max            =   6.7954769633616E-05
(PID.TID 0000.0001) %MON forcing_empmr_min            =  -8.3442570542047E-05
(PID.TID 0000.0001) %MON forcing_empmr_mean           =   2.8136667574790E-07
(PID.TID 0000.0001) %MON forcing_empmr_sd             =   2.5645681839636E-05
(PID.TID 0000.0001) %MON forcing_empmr_del2           =   3.6313018392051E-07
(PID.TID 0000.0001) %MON forcing_fu_max               =   3.4936582446098E-01
(PID.TID 0000.0001) %MON forcing_fu_min               =  -3.9975328445435E-01
(PID.TID 0000.0001) %MON forcing_fu_mean              =   1.8930424137194E-02
(PID.TID 0000.0001) %MON forcing_fu_sd                =   1.0027877528737E-01
(PID.TID 0000.0001) %MON forcing_fu_del2              =   7.7872447127255E-04
(PID.TID 0000.0001) %MON forcing_fv_max               =   1.8214833140373E-01
(PID.TID 0000.0001) %MON forcing_fv_min               =  -1.5243907570839E-01
(PID.TID 0000.0001) %MON forcing_fv_mean              =  -7.0918553715682E-03
(PID.TID 0000.0001) %MON forcing_fv_sd                =   3.9087205962164E-02
(PID.TID 0000.0001) %MON forcing_fv_del2              =   4.2370613844542E-04
(PID.TID 0000.0001) %MON trAdv_CFL_u_max              =   4.9646497771518E-02
(PID.TID 0000.0001) %MON trAdv_CFL_v_max              =   3.1883625710059E-02
(PID.TID 0000.0001) %MON trAdv_CFL_w_max              =   5.4293772115629E-02
(PID.TID 0000.0001) %MON advcfl_uvel_max              =   5.1177979043241E-02
(PID.TID 0000.0001) %MON advcfl_vvel_max              =   3.1831812749547E-02
(PID.TID 0000.0001) %MON advcfl_wvel_max              =   5.3694334272811E-02
(PID.TID 0000.0001) %MON advcfl_W_hf_max              =   5.7642447086989E-02
(PID.TID 0000.0001) %MON pe_b_mean                    =   5.5444277517135E-04
(PID.TID 0000.0001) %MON ke_max                       =   1.3776152492502E-02
(PID.TID 0000.0001) %MON ke_mean                      =   2.0666763262814E-04
(PID.TID 0000.0001) %MON ke_vol                       =   1.3226782436723E+18
(PID.TID 0000.0001) %MON vort_r_min                   =  -4.2787492898590E-07
(PID.TID 0000.0001) %MON vort_r_max                   =   6.0952936831183E-07
(PID.TID 0000.0001) %MON vort_a_mean                  =  -2.5274807411086E-05
(PID.TID 0000.0001) %MON vort_a_sd                    =   7.3604548024963E-05
(PID.TID 0000.0001) %MON vort_p_mean                  =  -3.1845655816652E-05
(PID.TID 0000.0001) %MON vort_p_sd                    =   1.3162486741183E-04
(PID.TID 0000.0001) %MON surfExpan_theta_mean         =  -9.8309175721060E-07
(PID.TID 0000.0001) %MON surfExpan_salt_mean          =   2.8059112459063E-07
(PID.TID 0000.0001) // =======================================================
(PID.TID 0000.0001) // End MONITOR dynamic field statistics
(PID.TID 0000.0001) // =======================================================
 EXTERNAL_FIELDS_LOAD,        88 : iP,iLd,i0,i1=    3    4    3    4 ; Wght=  0.5666666667  0.4333333333
 EXTERNAL_FIELDS_LOAD: (fu0,1),fu,fv= -2.7199E-02 -3.7252E-02 -3.1555E-02 -1.5588E-02
 EXTERNAL_FIELDS_LOAD: SST,SSS,Q,E-P= -8.8900E-02  3.4575E+01  1.6717E+02  8.5124E-06
DEBUG_STATS_RL:          Uvel (THERMODYNAMICS)  min= -1.43257007805148E-01
DEBUG_STATS_RL:          Uvel (THERMODYNAMICS)  max=  1.44391429069061E-01
DEBUG_STATS_RL:          Uvel (THERMODYNAMICS) mean=  5.81083362355601E-03
DEBUG_STATS_RL:          Uvel (THERMODYNAMICS) S.D.=  2.50032655648408E-02
DEBUG_STATS_RL:          Vvel (THERMODYNAMICS)  min= -1.11939107191571E-01
DEBUG_STATS_RL:          Vvel (THERMODYNAMICS)  max=  1.63841690449531E-01
DEBUG_STATS_RL:          Vvel (THERMODYNAMICS) mean=  1.14734221875082E-03
DEBUG_STATS_RL:          Vvel (THERMODYNAMICS) S.D.=  1.51250107396089E-02
DEBUG_STATS_RL:          Wvel (THERMODYNAMICS)  min= -9.00662469487435E-05
DEBUG_STATS_RL:          Wvel (THERMODYNAMICS)  max=  2.26833703814539E-04
DEBUG_STATS_RL:          Wvel (THERMODYNAMICS) mean=  1.78263333101453E-08
DEBUG_STATS_RL:          Wvel (THERMODYNAMICS) S.D.=  1.22313143002808E-05
DEBUG_STATS_RL:         Theta (THERMODYNAMICS)  min= -1.93605750951877E+00
DEBUG_STATS_RL:         Theta (THERMODYNAMICS)  max=  3.11943614222652E+01
DEBUG_STATS_RL:         Theta (THERMODYNAMICS) mean=  3.25036632720628E+00
DEBUG_STATS_RL:         Theta (THERMODYNAMICS) S.D.=  5.88886198746799E+00
DEBUG_STATS_RL:          Salt (THERMODYNAMICS)  min=  3.00000000000000E-02
DEBUG_STATS_RL:          Salt (THERMODYNAMICS)  max=  3.74962817177734E+01
DEBUG_STATS_RL:          Salt (THERMODYNAMICS) mean=  1.88747804033905E+01
DEBUG_STATS_RL:          Salt (THERMODYNAMICS) S.D.=  1.73003351306003E+01
DEBUG_STATS_RL:         GtNm1 (THERMODYNAMICS)  min= -2.57120077308208E-06
DEBUG_STATS_RL:         GtNm1 (THERMODYNAMICS)  max=  2.24277678930888E-06
DEBUG_STATS_RL:         GtNm1 (THERMODYNAMICS) mean= -7.55057522752806E-10
DEBUG_STATS_RL:         GtNm1 (THERMODYNAMICS) S.D.=  1.60328899468944E-07
DEBUG_STATS_RL:         GsNm1 (THERMODYNAMICS)  min= -3.64207856377223E-07
DEBUG_STATS_RL:         GsNm1 (THERMODYNAMICS)  max=  3.77675965669747E-07
DEBUG_STATS_RL:         GsNm1 (THERMODYNAMICS) mean= -2.49619377705885E-10
DEBUG_STATS_RL:         GsNm1 (THERMODYNAMICS) S.D.=  1.55141078928750E-08
DEBUG_STATS_RL:                EtaN (DYNAMICS)  min= -2.14604683076961E+00
DEBUG_STATS_RL:                EtaN (DYNAMICS)  max=  9.61828745370185E-01
DEBUG_STATS_RL:                EtaN (DYNAMICS) mean= -1.97687210469872E-01
DEBUG_STATS_RL:                EtaN (DYNAMICS) S.D.=  7.61313731933081E-01
DEBUG_STATS_RL:                Uvel (DYNAMICS)  min= -1.43257007805148E-01
DEBUG_STATS_RL:                Uvel (DYNAMICS)  max=  1.44391429069061E-01
DEBUG_STATS_RL:                Uvel (DYNAMICS) mean=  5.81083362355601E-03
DEBUG_STATS_RL:                Uvel (DYNAMICS) S.D.=  2.50032655648408E-02
DEBUG_STATS_RL:                Vvel (DYNAMICS)  min= -1.11939107191571E-01
DEBUG_STATS_RL:                Vvel (DYNAMICS)  max=  1.63841690449531E-01
DEBUG_STATS_RL:                Vvel (DYNAMICS) mean=  1.14734221875082E-03
DEBUG_STATS_RL:                Vvel (DYNAMICS) S.D.=  1.51250107396089E-02
DEBUG_STATS_RL:                Wvel (DYNAMICS)  min= -9.00662469487435E-05
DEBUG_STATS_RL:                Wvel (DYNAMICS)  max=  2.26833703814539E-04
DEBUG_STATS_RL:                Wvel (DYNAMICS) mean=  1.78263333101453E-08
DEBUG_STATS_RL:                Wvel (DYNAMICS) S.D.=  1.22313143002808E-05
DEBUG_STATS_RL:               Theta (DYNAMICS)  min= -1.93605750951877E+00
DEBUG_STATS_RL:               Theta (DYNAMICS)  max=  3.11943614222652E+01
DEBUG_STATS_RL:               Theta (DYNAMICS) mean=  3.25036632720628E+00
DEBUG_STATS_RL:               Theta (DYNAMICS) S.D.=  5.88886198746799E+00
DEBUG_STATS_RL:                Salt (DYNAMICS)  min=  3.00000000000000E-02
DEBUG_STATS_RL:                Salt (DYNAMICS)  max=  3.74962817177734E+01
DEBUG_STATS_RL:                Salt (DYNAMICS) mean=  1.88747804033905E+01
DEBUG_STATS_RL:                Salt (DYNAMICS) S.D.=  1.73003351306003E+01
DEBUG_STATS_RL:                  Gu (DYNAMICS)  min= -1.42392544232657E-01
DEBUG_STATS_RL:                  Gu (DYNAMICS)  max=  1.43864782661848E-01
DEBUG_STATS_RL:                  Gu (DYNAMICS) mean=  5.75809253825107E-03
DEBUG_STATS_RL:                  Gu (DYNAMICS) S.D.=  2.52381780430815E-02
DEBUG_STATS_RL:                  Gv (DYNAMICS)  min= -1.09355412498391E-01
DEBUG_STATS_RL:                  Gv (DYNAMICS)  max=  1.63797167406253E-01
DEBUG_STATS_RL:                  Gv (DYNAMICS) mean=  3.50756310493034E-03
DEBUG_STATS_RL:                  Gv (DYNAMICS) S.D.=  1.65408957854606E-02
DEBUG_STATS_RL:               GuNm1 (DYNAMICS)  min= -1.08280001515758E-05
DEBUG_STATS_RL:               GuNm1 (DYNAMICS)  max=  9.69709032342087E-06
DEBUG_STATS_RL:               GuNm1 (DYNAMICS) mean=  1.67341105000916E-08
DEBUG_STATS_RL:               GuNm1 (DYNAMICS) S.D.=  1.24282078633875E-06
DEBUG_STATS_RL:               GvNm1 (DYNAMICS)  min= -9.29754772968208E-06
DEBUG_STATS_RL:               GvNm1 (DYNAMICS)  max=  1.52300111229827E-05
DEBUG_STATS_RL:               GvNm1 (DYNAMICS) mean=  7.39017740198421E-07
DEBUG_STATS_RL:               GvNm1 (DYNAMICS) S.D.=  2.62008359648025E-06
DEBUG_STATS_RL:               GtNm1 (DYNAMICS)  min= -2.57120077308208E-06
DEBUG_STATS_RL:               GtNm1 (DYNAMICS)  max=  2.24277678930888E-06
DEBUG_STATS_RL:               GtNm1 (DYNAMICS) mean= -7.55057522752806E-10
DEBUG_STATS_RL:               GtNm1 (DYNAMICS) S.D.=  1.60328899468944E-07
DEBUG_STATS_RL:               GsNm1 (DYNAMICS)  min= -3.64207856377223E-07
DEBUG_STATS_RL:               GsNm1 (DYNAMICS)  max=  3.77675965669747E-07
DEBUG_STATS_RL:               GsNm1 (DYNAMICS) mean= -2.49619377705885E-10
DEBUG_STATS_RL:               GsNm1 (DYNAMICS) S.D.=  1.55141078928750E-08
DEBUG_STATS_RL:    cg2d_b (SOLVE_FOR_PRESSURE)  min= -3.34252679285821E+04
DEBUG_STATS_RL:    cg2d_b (SOLVE_FOR_PRESSURE)  max=  3.39435017916067E+04
DEBUG_STATS_RL:    cg2d_b (SOLVE_FOR_PRESSURE) mean=  5.51511771531874E+00
DEBUG_STATS_RL:    cg2d_b (SOLVE_FOR_PRESSURE) S.D.=  4.19565113862173E+03
 cg2d: Sum(rhs),rhsMax =   3.76139668480507E-01  2.22950007887717E+00
(PID.TID 0000.0001)  cg2d: iter=     1 ; resid.=  1.67439720412846E-01
(PID.TID 0000.0001)  cg2d: iter=     2 ; resid.=  1.67271854126446E-01
(PID.TID 0000.0001)  cg2d: iter=     3 ; resid.=  1.68941711071879E-01
(PID.TID 0000.0001)  cg2d: iter=     4 ; resid.=  1.52852153930478E-01
(PID.TID 0000.0001)  cg2d: iter=     5 ; resid.=  1.45907782992273E-01
(PID.TID 0000.0001)  cg2d: iter=     6 ; resid.=  1.25235726564141E-01
(PID.TID 0000.0001)  cg2d: iter=     7 ; resid.=  9.32338259304920E-02
(PID.TID 0000.0001)  cg2d: iter=     8 ; resid.=  6.60028364187853E-02
(PID.TID 0000.0001)  cg2d: iter=     9 ; resid.=  4.78608194392473E-02
(PID.TID 0000.0001)  cg2d: iter=    10 ; resid.=  3.89543911988991E-02
(PID.TID 0000.0001)  cg2d: iter=    11 ; resid.=  3.29063466419288E-02
(PID.TID 0000.0001)  cg2d: iter=    12 ; resid.=  2.85714112202505E-02
(PID.TID 0000.0001)  cg2d: iter=    13 ; resid.=  2.45626772962987E-02
(PID.TID 0000.0001)  cg2d: iter=    14 ; resid.=  2.08936747476356E-02
(PID.TID 0000.0001)  cg2d: iter=    15 ; resid.=  1.72211268201347E-02
(PID.TID 0000.0001)  cg2d: iter=    16 ; resid.=  1.60176130598444E-02
(PID.TID 0000.0001)  cg2d: iter=    17 ; resid.=  1.38179847063736E-02
(PID.TID 0000.0001)  cg2d: iter=    18 ; resid.=  1.10344084462431E-02
(PID.TID 0000.0001)  cg2d: iter=    19 ; resid.=  8.62673585074520E-03
(PID.TID 0000.0001)  cg2d: iter=    20 ; resid.=  7.11204758773281E-03
(PID.TID 0000.0001)  cg2d: iter=    21 ; resid.=  5.84830397831654E-03
(PID.TID 0000.0001)  cg2d: iter=    22 ; resid.=  5.43864315925424E-03
(PID.TID 0000.0001)  cg2d: iter=    23 ; resid.=  4.43050443925686E-03
(PID.TID 0000.0001)  cg2d: iter=    24 ; resid.=  3.90967474505130E-03
(PID.TID 0000.0001)  cg2d: iter=    25 ; resid.=  2.86332773125950E-03
(PID.TID 0000.0001)  cg2d: iter=    26 ; resid.=  2.16214336860305E-03
(PID.TID 0000.0001)  cg2d: iter=    27 ; resid.=  1.72396758422624E-03
(PID.TID 0000.0001)  cg2d: iter=    28 ; resid.=  1.38371192665292E-03
(PID.TID 0000.0001)  cg2d: iter=    29 ; resid.=  1.12679672156832E-03
(PID.TID 0000.0001)  cg2d: iter=    30 ; resid.=  9.70596551337774E-04
(PID.TID 0000.0001)  cg2d: iter=    31 ; resid.=  8.08807330691406E-04
(PID.TID 0000.0001)  cg2d: iter=    32 ; resid.=  5.95910632829592E-04
(PID.TID 0000.0001)  cg2d: iter=    33 ; resid.=  4.63936803151405E-04
(PID.TID 0000.0001)  cg2d: iter=    34 ; resid.=  4.35427607617714E-04
(PID.TID 0000.0001)  cg2d: iter=    35 ; resid.=  3.62385555505857E-04
(PID.TID 0000.0001)  cg2d: iter=    36 ; resid.=  2.95145596897202E-04
(PID.TID 0000.0001)  cg2d: iter=    37 ; resid.=  2.60548680942338E-04
(PID.TID 0000.0001)  cg2d: iter=    38 ; resid.=  2.13778833727397E-04
(PID.TID 0000.0001)  cg2d: iter=    39 ; resid.=  1.84224296967965E-04
(PID.TID 0000.0001)  cg2d: iter=    40 ; resid.=  1.53109386636456E-04
(PID.TID 0000.0001)  cg2d: iter=    41 ; resid.=  1.24289181368959E-04
(PID.TID 0000.0001)  cg2d: iter=    42 ; resid.=  1.02260385031018E-04
(PID.TID 0000.0001)  cg2d: iter=    43 ; resid.=  8.49430052657113E-05
(PID.TID 0000.0001)  cg2d: iter=    44 ; resid.=  6.72376771832054E-05
(PID.TID 0000.0001)  cg2d: iter=    45 ; resid.=  5.68864057844039E-05
(PID.TID 0000.0001)  cg2d: iter=    46 ; resid.=  4.45140785422941E-05
(PID.TID 0000.0001)  cg2d: iter=    47 ; resid.=  3.63038496750640E-05
(PID.TID 0000.0001)  cg2d: iter=    48 ; resid.=  3.32248959657569E-05
(PID.TID 0000.0001)  cg2d: iter=    49 ; resid.=  3.00757627616936E-05
(PID.TID 0000.0001)  cg2d: iter=    50 ; resid.=  2.49274405355875E-05
(PID.TID 0000.0001)  cg2d: iter=    51 ; resid.=  2.21751798816147E-05
(PID.TID 0000.0001)  cg2d: iter=    52 ; resid.=  1.90722015808585E-05
(PID.TID 0000.0001)  cg2d: iter=    53 ; resid.=  1.59024989887486E-05
(PID.TID 0000.0001)  cg2d: iter=    54 ; resid.=  1.16515124687189E-05
(PID.TID 0000.0001)  cg2d: iter=    55 ; resid.=  9.91468412003353E-06
(PID.TID 0000.0001)  cg2d: iter=    56 ; resid.=  9.32362668681840E-06
(PID.TID 0000.0001)  cg2d: iter=    57 ; resid.=  8.09662126733724E-06
(PID.TID 0000.0001)  cg2d: iter=    58 ; resid.=  6.50700733490440E-06
(PID.TID 0000.0001)  cg2d: iter=    59 ; resid.=  5.23410267670713E-06
(PID.TID 0000.0001)  cg2d: iter=    60 ; resid.=  4.33716641112640E-06
(PID.TID 0000.0001)  cg2d: iter=    61 ; resid.=  3.55570856983387E-06
(PID.TID 0000.0001)  cg2d: iter=    62 ; resid.=  2.96229633461361E-06
(PID.TID 0000.0001)  cg2d: iter=    63 ; resid.=  2.46268862572304E-06
(PID.TID 0000.0001)  cg2d: iter=    64 ; resid.=  2.00785682683340E-06
(PID.TID 0000.0001)  cg2d: iter=    65 ; resid.=  1.66059870072290E-06
(PID.TID 0000.0001)  cg2d: iter=    66 ; resid.=  1.35521002776152E-06
(PID.TID 0000.0001)  cg2d: iter=    67 ; resid.=  1.12877005122460E-06
(PID.TID 0000.0001)  cg2d: iter=    68 ; resid.=  1.00318096028678E-06
(PID.TID 0000.0001)  cg2d: iter=    69 ; resid.=  8.36727992137514E-07
(PID.TID 0000.0001)  cg2d: iter=    70 ; resid.=  6.73088457839602E-07
(PID.TID 0000.0001)  cg2d: iter=    71 ; resid.=  5.63282547968108E-07
(PID.TID 0000.0001)  cg2d: iter=    72 ; resid.=  5.15927907556407E-07
(PID.TID 0000.0001)  cg2d: iter=    73 ; resid.=  4.41643194064233E-07
(PID.TID 0000.0001)  cg2d: iter=    74 ; resid.=  3.97114893912007E-07
(PID.TID 0000.0001)  cg2d: iter=    75 ; resid.=  3.38714077761496E-07
(PID.TID 0000.0001)  cg2d: iter=    76 ; resid.=  2.55071083290733E-07
(PID.TID 0000.0001)  cg2d: iter=    77 ; resid.=  2.07046015277755E-07
(PID.TID 0000.0001)  cg2d: iter=    78 ; resid.=  1.66074519836413E-07
(PID.TID 0000.0001)  cg2d: iter=    79 ; resid.=  1.27345782897424E-07
(PID.TID 0000.0001)  cg2d: iter=    80 ; resid.=  9.68679978722864E-08
(PID.TID 0000.0001)  cg2d: iter=    81 ; resid.=  7.33059144959477E-08
(PID.TID 0000.0001)  cg2d: iter=    82 ; resid.=  5.21554000439304E-08
(PID.TID 0000.0001)  cg2d: iter=    83 ; resid.=  4.01795662139406E-08
(PID.TID 0000.0001)  cg2d: iter=    84 ; resid.=  3.04318697715001E-08
(PID.TID 0000.0001)  cg2d: iter=    85 ; resid.=  2.25468529294149E-08
(PID.TID 0000.0001)  cg2d: iter=    86 ; resid.=  1.76607225289577E-08
(PID.TID 0000.0001)  cg2d: iter=    87 ; resid.=  1.52176265085103E-08
(PID.TID 0000.0001)  cg2d: iter=    88 ; resid.=  1.27762123545453E-08
(PID.TID 0000.0001)  cg2d: iter=    89 ; resid.=  1.08744975345095E-08
(PID.TID 0000.0001)  cg2d: iter=    90 ; resid.=  8.81167617281785E-09
(PID.TID 0000.0001)  cg2d: iter=    91 ; resid.=  6.55478171307936E-09
(PID.TID 0000.0001)  cg2d: iter=    92 ; resid.=  4.95765600435911E-09
(PID.TID 0000.0001)  cg2d: iter=    93 ; resid.=  3.65373804218462E-09
(PID.TID 0000.0001)  cg2d: iter=    94 ; resid.=  2.88177587941963E-09
(PID.TID 0000.0001)  cg2d: iter=    95 ; resid.=  2.46039155542801E-09
(PID.TID 0000.0001)  cg2d: iter=    96 ; resid.=  1.88970006076792E-09
(PID.TID 0000.0001)  cg2d: iter=    97 ; resid.=  1.50103824550031E-09
(PID.TID 0000.0001)  cg2d: iter=    98 ; resid.=  1.27567520677031E-09
(PID.TID 0000.0001)  cg2d: iter=    99 ; resid.=  1.19727778197585E-09
(PID.TID 0000.0001)  cg2d: iter=   100 ; resid.=  1.09547984565130E-09
(PID.TID 0000.0001)  cg2d: iter=   101 ; resid.=  8.81717603049215E-10
(PID.TID 0000.0001)  cg2d: iter=   102 ; resid.=  6.70001113465706E-10
(PID.TID 0000.0001)  cg2d: iter=   103 ; resid.=  5.09107094341410E-10
(PID.TID 0000.0001)  cg2d: iter=   104 ; resid.=  4.04540004671081E-10
(PID.TID 0000.0001)  cg2d: iter=   105 ; resid.=  3.01616031264759E-10
(PID.TID 0000.0001)  cg2d: iter=   106 ; resid.=  2.27925496897096E-10
(PID.TID 0000.0001)  cg2d: iter=   107 ; resid.=  1.66066127387063E-10
(PID.TID 0000.0001)  cg2d: iter=   108 ; resid.=  1.15845087641090E-10
(PID.TID 0000.0001)  cg2d: iter=   109 ; resid.=  8.43803752840192E-11
(PID.TID 0000.0001)  cg2d: iter=   110 ; resid.=  6.78354374487587E-11
(PID.TID 0000.0001)  cg2d: iter=   111 ; resid.=  5.40062302945085E-11
(PID.TID 0000.0001)  cg2d: iter=   112 ; resid.=  4.05711079511181E-11
(PID.TID 0000.0001)  cg2d: iter=   113 ; resid.=  3.05168269971137E-11
(PID.TID 0000.0001)  cg2d: iter=   114 ; resid.=  2.46344749052020E-11
(PID.TID 0000.0001)  cg2d: iter=   115 ; resid.=  2.00061717991099E-11
(PID.TID 0000.0001)  cg2d: iter=   116 ; resid.=  1.59532117556802E-11
(PID.TID 0000.0001)  cg2d: iter=   117 ; resid.=  1.23011016717822E-11
(PID.TID 0000.0001)  cg2d: iter=   118 ; resid.=  8.98322773392815E-12
(PID.TID 0000.0001)  cg2d: iter=   119 ; resid.=  6.13557553967770E-12
(PID.TID 0000.0001)  cg2d: iter=   120 ; resid.=  4.61626116526156E-12
(PID.TID 0000.0001)  cg2d: iter=   121 ; resid.=  3.37692476208685E-12
(PID.TID 0000.0001)  cg2d: iter=   122 ; resid.=  2.35612598795603E-12
(PID.TID 0000.0001)  cg2d: iter=   123 ; resid.=  1.78368882180939E-12
(PID.TID 0000.0001)  cg2d: iter=   124 ; resid.=  1.34316333326359E-12
(PID.TID 0000.0001)  cg2d: iter=   125 ; resid.=  9.59518950506657E-13
(PID.TID 0000.0001)  cg2d: iter=   126 ; resid.=  6.71185968405152E-13
(PID.TID 0000.0001)  cg2d: iter=   127 ; resid.=  4.32613507790612E-13
(PID.TID 0000.0001)  cg2d: iter=   128 ; resid.=  3.25946082292239E-13
(PID.TID 0000.0001)  cg2d: iter=   129 ; resid.=  2.25526769161843E-13
(PID.TID 0000.0001)  cg2d: iter=   130 ; resid.=  1.68462661218014E-13
(PID.TID 0000.0001)  cg2d: iter=   131 ; resid.=  1.27773205983860E-13
(PID.TID 0000.0001)  cg2d: iter=   132 ; resid.=  9.98114669496787E-14
DEBUG_STATS_RL:    cg2d_x (SOLVE_FOR_PRESSURE)  min= -2.07490695372856E+01
DEBUG_STATS_RL:    cg2d_x (SOLVE_FOR_PRESSURE)  max=  8.91494722742770E+00
DEBUG_STATS_RL:    cg2d_x (SOLVE_FOR_PRESSURE) mean= -1.89902077163902E+00
DEBUG_STATS_RL:    cg2d_x (SOLVE_FOR_PRESSURE) S.D.=  7.24164846348736E+00
(PID.TID 0000.0001)      cg2d_init_res =   2.69163004314592E-01
(PID.TID 0000.0001)      cg2d_iters(min,last) =      -1     132
(PID.TID 0000.0001)      cg2d_last_res =   9.98114669496787E-14
(PID.TID 0000.0001) // =======================================================
(PID.TID 0000.0001) // Begin MONITOR dynamic field statistics
(PID.TID 0000.0001) // =======================================================
(PID.TID 0000.0001) %MON time_tsnumber                =                    89
(PID.TID 0000.0001) %MON time_secondsf                =   7.6896000000000E+06
(PID.TID 0000.0001) %MON dynstat_eta_max              =   9.0876118526277E-01
(PID.TID 0000.0001) %MON dynstat_eta_min              =  -2.1150937346876E+00
(PID.TID 0000.0001) %MON dynstat_eta_mean             =  -5.7543414839147E-03
(PID.TID 0000.0001) %MON dynstat_eta_sd               =   6.3391740156257E-01
(PID.TID 0000.0001) %MON dynstat_eta_del2             =   2.6832347590026E-03
(PID.TID 0000.0001) %MON dynstat_uvel_max             =   1.4247684443859E-01
(PID.TID 0000.0001) %MON dynstat_uvel_min             =  -1.4457345987638E-01
(PID.TID 0000.0001) %MON dynstat_uvel_mean            =   1.9597148779396E-03
(PID.TID 0000.0001) %MON dynstat_uvel_sd              =   1.8566467340653E-02
(PID.TID 0000.0001) %MON dynstat_uvel_del2            =   1.5363831908764E-04
(PID.TID 0000.0001) %MON dynstat_vvel_max             =   1.6281077273010E-01
(PID.TID 0000.0001) %MON dynstat_vvel_min             =  -1.1276989089859E-01
(PID.TID 0000.0001) %MON dynstat_vvel_mean            =   1.3688249586482E-04
(PID.TID 0000.0001) %MON dynstat_vvel_sd              =   1.0059043830585E-02
(PID.TID 0000.0001) %MON dynstat_vvel_del2            =   9.3196364484458E-05
(PID.TID 0000.0001) %MON dynstat_wvel_max             =   2.0674441381524E-04
(PID.TID 0000.0001) %MON dynstat_wvel_min             =  -8.9911531607465E-05
(PID.TID 0000.0001) %MON dynstat_wvel_mean            =  -4.0506605811862E-23
(PID.TID 0000.0001) %MON dynstat_wvel_sd              =   1.3925743510313E-05
(PID.TID 0000.0001) %MON dynstat_wvel_del2            =   1.3318239070109E-07
(PID.TID 0000.0001) %MON dynstat_theta_max            =   3.1194361422265E+01
(PID.TID 0000.0001) %MON dynstat_theta_min            =  -1.9360575095188E+00
(PID.TID 0000.0001) %MON dynstat_theta_mean           =   3.6540895249801E+00
(PID.TID 0000.0001) %MON dynstat_theta_sd             =   4.4286727939182E+00
(PID.TID 0000.0001) %MON dynstat_theta_del2           =   4.8684242110334E-03
(PID.TID 0000.0001) %MON dynstat_salt_max             =   3.7496281717773E+01
(PID.TID 0000.0001) %MON dynstat_salt_min             =   2.9963603351497E+01
(PID.TID 0000.0001) %MON dynstat_salt_mean            =   3.4748002891044E+01
(PID.TID 0000.0001) %MON dynstat_salt_sd              =   2.9663050802566E-01
(PID.TID 0000.0001) %MON dynstat_salt_del2            =   9.9794463757172E-04
(PID.TID 0000.0001) %MON dynstat_sst_max              =   3.1194361422265E+01
(PID.TID 0000.0001) %MON dynstat_sst_min              =  -1.9360575095188E+00
(PID.TID 0000.0001) %MON dynstat_sst_mean             =   1.9083368437564E+01
(PID.TID 0000.0001) %MON dynstat_sst_sd               =   9.2515729401518E+00
(PID.TID 0000.0001) %MON dynstat_sst_del2             =   2.9247207219170E-02
(PID.TID 0000.0001) %MON dynstat_sss_max              =   3.7496281717773E+01
(PID.TID 0000.0001) %MON dynstat_sss_min              =   2.9963603351497E+01
(PID.TID 0000.0001) %MON dynstat_sss_mean             =   3.4868231805192E+01
(PID.TID 0000.0001) %MON dynstat_sss_sd               =   9.9071999319976E-01
(PID.TID 0000.0001) %MON dynstat_sss_del2             =   8.2798535594965E-03
(PID.TID 0000.0001) %MON forcing_qnet_max             =   2.1333963826497E+02
(PID.TID 0000.0001) %MON forcing_qnet_min             =  -1.5829163869222E+02
(PID.TID 0000.0001) %MON forcing_qnet_mean            =  -2.1035924135394E+00
(PID.TID 0000.0001) %MON forcing_qnet_sd              =   3.9378744149303E+01
(PID.TID 0000.0001) %MON forcing_qnet_del2            =   7.8682598248639E-01
(PID.TID 0000.0001) %MON forcing_qsw_max              =   0.0000000000000E+00
(PID.TID 0000.0001) %MON forcing_qsw_min              =   0.0000000000000E+00
(PID.TID 0000.0001) %MON forcing_qsw_mean             =   0.0000000000000E+00
(PID.TID 0000.0001) %MON forcing_qsw_sd               =   0.0000000000000E+00
(PID.TID 0000.0001) %MON forcing_qsw_del2             =   0.0000000000000E+00
(PID.TID 0000.0001) %MON forcing_empmr_max            =   6.7858598621721E-05
(PID.TID 0000.0001) %MON forcing_empmr_min            =  -8.3457416621968E-05
(PID.TID 0000.0001) %MON forcing_empmr_mean           =   2.5892131092034E-07
(PID.TID 0000.0001) %MON forcing_empmr_sd             =   2.5615270764388E-05
(PID.TID 0000.0001) %MON forcing_empmr_del2           =   3.6333336440731E-07
(PID.TID 0000.0001) %MON forcing_fu_max               =   3.4887377023697E-01
(PID.TID 0000.0001) %MON forcing_fu_min               =  -4.0068635642529E-01
(PID.TID 0000.0001) %MON forcing_fu_mean              =   1.8803232040261E-02
(PID.TID 0000.0001) %MON forcing_fu_sd                =   1.0027933019138E-01
(PID.TID 0000.0001) %MON forcing_fu_del2              =   7.7731111628185E-04
(PID.TID 0000.0001) %MON forcing_fv_max               =   1.8205233017604E-01
(PID.TID 0000.0001) %MON forcing_fv_min               =  -1.4903136293093E-01
(PID.TID 0000.0001) %MON forcing_fv_mean              =  -7.0553786991952E-03
(PID.TID 0000.0001) %MON forcing_fv_sd                =   3.8949486198953E-02
(PID.TID 0000.0001) %MON forcing_fv_del2              =   4.2056480226922E-04
(PID.TID 0000.0001) %MON trAdv_CFL_u_max              =   5.1188373656816E-02
(PID.TID 0000.0001) %MON trAdv_CFL_v_max              =   3.1780081140076E-02
(PID.TID 0000.0001) %MON trAdv_CFL_w_max              =   5.0252389768144E-02
(PID.TID 0000.0001) %MON advcfl_uvel_max              =   5.2236194622233E-02
(PID.TID 0000.0001) %MON advcfl_vvel_max              =   3.1631521970594E-02
(PID.TID 0000.0001) %MON advcfl_wvel_max              =   4.8938951653800E-02
(PID.TID 0000.0001) %MON advcfl_W_hf_max              =   5.4039853217778E-02
(PID.TID 0000.0001) %MON pe_b_mean                    =   5.1425951016596E-04
(PID.TID 0000.0001) %MON ke_max                       =   1.3100057154307E-02
(PID.TID 0000.0001) %MON ke_mean                      =   2.0378795180141E-04
(PID.TID 0000.0001) %MON ke_vol                       =   1.3226782436723E+18
(PID.TID 0000.0001) %MON vort_r_min                   =  -4.3001019629093E-07
(PID.TID 0000.0001) %MON vort_r_max                   =   5.9089914811096E-07
(PID.TID 0000.0001) %MON vort_a_mean                  =  -2.5274807446703E-05
(PID.TID 0000.0001) %MON vort_a_sd                    =   7.3604543500322E-05
(PID.TID 0000.0001) %MON vort_p_mean                  =  -3.1845655861529E-05
(PID.TID 0000.0001) %MON vort_p_sd                    =   1.3162472750030E-04
(PID.TID 0000.0001) %MON surfExpan_theta_mean         =  -9.3878264295001E-07
(PID.TID 0000.0001) %MON surfExpan_salt_mean          =   2.7227253375569E-07
(PID.TID 0000.0001) // =======================================================
(PID.TID 0000.0001) // End MONITOR dynamic field statistics
(PID.TID 0000.0001) // =======================================================
 EXTERNAL_FIELDS_LOAD,        89 : iP,iLd,i0,i1=    3    4    3    4 ; Wght=  0.5333333333  0.4666666667
 EXTERNAL_FIELDS_LOAD: (fu0,1),fu,fv= -2.7199E-02 -3.7252E-02 -3.1890E-02 -1.6742E-02
 EXTERNAL_FIELDS_LOAD: SST,SSS,Q,E-P= -8.1592E-02  3.4574E+01  1.6346E+02  8.4686E-06
DEBUG_STATS_RL:          Uvel (THERMODYNAMICS)  min= -1.44573459876381E-01
DEBUG_STATS_RL:          Uvel (THERMODYNAMICS)  max=  1.42476844438591E-01
DEBUG_STATS_RL:          Uvel (THERMODYNAMICS) mean=  5.69910861618525E-03
DEBUG_STATS_RL:          Uvel (THERMODYNAMICS) S.D.=  2.49258794183273E-02
DEBUG_STATS_RL:          Vvel (THERMODYNAMICS)  min= -1.12769890898591E-01
DEBUG_STATS_RL:          Vvel (THERMODYNAMICS)  max=  1.62810772730099E-01
DEBUG_STATS_RL:          Vvel (THERMODYNAMICS) mean=  1.12221452944199E-03
DEBUG_STATS_RL:          Vvel (THERMODYNAMICS) S.D.=  1.50387654711693E-02
DEBUG_STATS_RL:          Wvel (THERMODYNAMICS)  min= -8.99115316074652E-05
DEBUG_STATS_RL:          Wvel (THERMODYNAMICS)  max=  2.06744413815241E-04
DEBUG_STATS_RL:          Wvel (THERMODYNAMICS) mean=  1.19457082082103E-08
DEBUG_STATS_RL:          Wvel (THERMODYNAMICS) S.D.=  1.20315127914390E-05
DEBUG_STATS_RL:         Theta (THERMODYNAMICS)  min= -1.93465902390643E+00
DEBUG_STATS_RL:         Theta (THERMODYNAMICS)  max=  3.12114149713962E+01
DEBUG_STATS_RL:         Theta (THERMODYNAMICS) mean=  3.25026871050322E+00
DEBUG_STATS_RL:         Theta (THERMODYNAMICS) S.D.=  5.88902659957510E+00
DEBUG_STATS_RL:          Salt (THERMODYNAMICS)  min=  3.00000000000000E-02
DEBUG_STATS_RL:          Salt (THERMODYNAMICS)  max=  3.74966068063362E+01
DEBUG_STATS_RL:          Salt (THERMODYNAMICS) mean=  1.88747705743112E+01
DEBUG_STATS_RL:          Salt (THERMODYNAMICS) S.D.=  1.73003267095500E+01
DEBUG_STATS_RL:         GtNm1 (THERMODYNAMICS)  min= -2.50334975381014E-06
DEBUG_STATS_RL:         GtNm1 (THERMODYNAMICS)  max=  2.27814100921036E-06
DEBUG_STATS_RL:         GtNm1 (THERMODYNAMICS) mean= -8.87878739863309E-10
DEBUG_STATS_RL:         GtNm1 (THERMODYNAMICS) S.D.=  1.58065810185544E-07
DEBUG_STATS_RL:         GsNm1 (THERMODYNAMICS)  min= -3.75995543687033E-07
DEBUG_STATS_RL:         GsNm1 (THERMODYNAMICS)  max=  4.02931411918702E-07
DEBUG_STATS_RL:         GsNm1 (THERMODYNAMICS) mean= -2.60430363058297E-10
DEBUG_STATS_RL:         GsNm1 (THERMODYNAMICS) S.D.=  1.55786128026664E-08
DEBUG_STATS_RL:                EtaN (DYNAMICS)  min= -2.11509373468755E+00
DEBUG_STATS_RL:                EtaN (DYNAMICS)  max=  9.08761185262766E-01
DEBUG_STATS_RL:                EtaN (DYNAMICS) mean= -1.93580099045773E-01
DEBUG_STATS_RL:                EtaN (DYNAMICS) S.D.=  7.38190465187298E-01
DEBUG_STATS_RL:                Uvel (DYNAMICS)  min= -1.44573459876381E-01
DEBUG_STATS_RL:                Uvel (DYNAMICS)  max=  1.42476844438591E-01
DEBUG_STATS_RL:                Uvel (DYNAMICS) mean=  5.69910861618525E-03
DEBUG_STATS_RL:                Uvel (DYNAMICS) S.D.=  2.49258794183273E-02
DEBUG_STATS_RL:                Vvel (DYNAMICS)  min= -1.12769890898591E-01
DEBUG_STATS_RL:                Vvel (DYNAMICS)  max=  1.62810772730099E-01
DEBUG_STATS_RL:                Vvel (DYNAMICS) mean=  1.12221452944199E-03
DEBUG_STATS_RL:                Vvel (DYNAMICS) S.D.=  1.50387654711693E-02
DEBUG_STATS_RL:                Wvel (DYNAMICS)  min= -8.99115316074652E-05
DEBUG_STATS_RL:                Wvel (DYNAMICS)  max=  2.06744413815241E-04
DEBUG_STATS_RL:                Wvel (DYNAMICS) mean=  1.19457082082103E-08
DEBUG_STATS_RL:                Wvel (DYNAMICS) S.D.=  1.20315127914390E-05
DEBUG_STATS_RL:               Theta (DYNAMICS)  min= -1.93465902390643E+00
DEBUG_STATS_RL:               Theta (DYNAMICS)  max=  3.12114149713962E+01
DEBUG_STATS_RL:               Theta (DYNAMICS) mean=  3.25026871050322E+00
DEBUG_STATS_RL:               Theta (DYNAMICS) S.D.=  5.88902659957510E+00
DEBUG_STATS_RL:                Salt (DYNAMICS)  min=  3.00000000000000E-02
DEBUG_STATS_RL:                Salt (DYNAMICS)  max=  3.74966068063362E+01
DEBUG_STATS_RL:                Salt (DYNAMICS) mean=  1.88747705743112E+01
DEBUG_STATS_RL:                Salt (DYNAMICS) S.D.=  1.73003267095500E+01
DEBUG_STATS_RL:                  Gu (DYNAMICS)  min= -1.43695663716538E-01
DEBUG_STATS_RL:                  Gu (DYNAMICS)  max=  1.38298708785247E-01
DEBUG_STATS_RL:                  Gu (DYNAMICS) mean=  5.63586791203496E-03
DEBUG_STATS_RL:                  Gu (DYNAMICS) S.D.=  2.51690821212165E-02
DEBUG_STATS_RL:                  Gv (DYNAMICS)  min= -1.10139336247284E-01
DEBUG_STATS_RL:                  Gv (DYNAMICS)  max=  1.62724422162175E-01
DEBUG_STATS_RL:                  Gv (DYNAMICS) mean=  3.48555197264880E-03
DEBUG_STATS_RL:                  Gv (DYNAMICS) S.D.=  1.64662260100768E-02
DEBUG_STATS_RL:               GuNm1 (DYNAMICS)  min= -1.06958044664705E-05
DEBUG_STATS_RL:               GuNm1 (DYNAMICS)  max=  9.85316086401169E-06
DEBUG_STATS_RL:               GuNm1 (DYNAMICS) mean=  1.74204507968007E-08
DEBUG_STATS_RL:               GuNm1 (DYNAMICS) S.D.=  1.24297668889166E-06
DEBUG_STATS_RL:               GvNm1 (DYNAMICS)  min= -9.28449949324957E-06
DEBUG_STATS_RL:               GvNm1 (DYNAMICS)  max=  1.51843918493168E-05
DEBUG_STATS_RL:               GvNm1 (DYNAMICS) mean=  7.39810222605672E-07
DEBUG_STATS_RL:               GvNm1 (DYNAMICS) S.D.=  2.61961011391828E-06
DEBUG_STATS_RL:               GtNm1 (DYNAMICS)  min= -2.50334975381014E-06
DEBUG_STATS_RL:               GtNm1 (DYNAMICS)  max=  2.27814100921036E-06
DEBUG_STATS_RL:               GtNm1 (DYNAMICS) mean= -8.87878739863309E-10
DEBUG_STATS_RL:               GtNm1 (DYNAMICS) S.D.=  1.58065810185544E-07
DEBUG_STATS_RL:               GsNm1 (DYNAMICS)  min= -3.75995543687033E-07
DEBUG_STATS_RL:               GsNm1 (DYNAMICS)  max=  4.02931411918702E-07
DEBUG_STATS_RL:               GsNm1 (DYNAMICS) mean= -2.60430363058297E-10
DEBUG_STATS_RL:               GsNm1 (DYNAMICS) S.D.=  1.55786128026664E-08
DEBUG_STATS_RL:    cg2d_b (SOLVE_FOR_PRESSURE)  min= -3.33305542283845E+04
DEBUG_STATS_RL:    cg2d_b (SOLVE_FOR_PRESSURE)  max=  3.41587542828062E+04
DEBUG_STATS_RL:    cg2d_b (SOLVE_FOR_PRESSURE) mean=  5.53403764508491E+00
DEBUG_STATS_RL:    cg2d_b (SOLVE_FOR_PRESSURE) S.D.=  4.19275630716174E+03
 cg2d: Sum(rhs),rhsMax =   3.75051649785143E-01  2.24363843882171E+00
(PID.TID 0000.0001)  cg2d: iter=     1 ; resid.=  1.61031736703333E-01
(PID.TID 0000.0001)  cg2d: iter=     2 ; resid.=  1.58920021011813E-01
(PID.TID 0000.0001)  cg2d: iter=     3 ; resid.=  1.59735455237340E-01
(PID.TID 0000.0001)  cg2d: iter=     4 ; resid.=  1.44117795692600E-01
(PID.TID 0000.0001)  cg2d: iter=     5 ; resid.=  1.38092855373130E-01
(PID.TID 0000.0001)  cg2d: iter=     6 ; resid.=  1.19595243253729E-01
(PID.TID 0000.0001)  cg2d: iter=     7 ; resid.=  8.85205124022746E-02
(PID.TID 0000.0001)  cg2d: iter=     8 ; resid.=  6.31565986016075E-02
(PID.TID 0000.0001)  cg2d: iter=     9 ; resid.=  4.65601677089280E-02
(PID.TID 0000.0001)  cg2d: iter=    10 ; resid.=  3.77999815872280E-02
(PID.TID 0000.0001)  cg2d: iter=    11 ; resid.=  3.23505161116605E-02
(PID.TID 0000.0001)  cg2d: iter=    12 ; resid.=  2.75857918521148E-02
(PID.TID 0000.0001)  cg2d: iter=    13 ; resid.=  2.35672087474791E-02
(PID.TID 0000.0001)  cg2d: iter=    14 ; resid.=  1.99188623498234E-02
(PID.TID 0000.0001)  cg2d: iter=    15 ; resid.=  1.64120205276245E-02
(PID.TID 0000.0001)  cg2d: iter=    16 ; resid.=  1.54684198422288E-02
(PID.TID 0000.0001)  cg2d: iter=    17 ; resid.=  1.34396047761741E-02
(PID.TID 0000.0001)  cg2d: iter=    18 ; resid.=  1.07764417523102E-02
(PID.TID 0000.0001)  cg2d: iter=    19 ; resid.=  8.57292686453060E-03
(PID.TID 0000.0001)  cg2d: iter=    20 ; resid.=  6.85351417839905E-03
(PID.TID 0000.0001)  cg2d: iter=    21 ; resid.=  5.63618367235986E-03
(PID.TID 0000.0001)  cg2d: iter=    22 ; resid.=  5.19785359647270E-03
(PID.TID 0000.0001)  cg2d: iter=    23 ; resid.=  4.17947366210738E-03
(PID.TID 0000.0001)  cg2d: iter=    24 ; resid.=  3.74056903998796E-03
(PID.TID 0000.0001)  cg2d: iter=    25 ; resid.=  2.77355378246671E-03
(PID.TID 0000.0001)  cg2d: iter=    26 ; resid.=  2.11971607091711E-03
(PID.TID 0000.0001)  cg2d: iter=    27 ; resid.=  1.70925060361722E-03
(PID.TID 0000.0001)  cg2d: iter=    28 ; resid.=  1.38043752256722E-03
(PID.TID 0000.0001)  cg2d: iter=    29 ; resid.=  1.11315387097048E-03
(PID.TID 0000.0001)  cg2d: iter=    30 ; resid.=  9.58440910968096E-04
(PID.TID 0000.0001)  cg2d: iter=    31 ; resid.=  7.99125733981451E-04
(PID.TID 0000.0001)  cg2d: iter=    32 ; resid.=  5.81036739761692E-04
(PID.TID 0000.0001)  cg2d: iter=    33 ; resid.=  4.57922145473324E-04
(PID.TID 0000.0001)  cg2d: iter=    34 ; resid.=  4.34850531614083E-04
(PID.TID 0000.0001)  cg2d: iter=    35 ; resid.=  3.56464348134725E-04
(PID.TID 0000.0001)  cg2d: iter=    36 ; resid.=  2.94543274165585E-04
(PID.TID 0000.0001)  cg2d: iter=    37 ; resid.=  2.62491172208933E-04
(PID.TID 0000.0001)  cg2d: iter=    38 ; resid.=  2.16248252735353E-04
(PID.TID 0000.0001)  cg2d: iter=    39 ; resid.=  1.86540594787076E-04
(PID.TID 0000.0001)  cg2d: iter=    40 ; resid.=  1.57018469693376E-04
(PID.TID 0000.0001)  cg2d: iter=    41 ; resid.=  1.30084407117767E-04
(PID.TID 0000.0001)  cg2d: iter=    42 ; resid.=  1.08579257936391E-04
(PID.TID 0000.0001)  cg2d: iter=    43 ; resid.=  9.05677887925088E-05
(PID.TID 0000.0001)  cg2d: iter=    44 ; resid.=  7.18070076757378E-05
(PID.TID 0000.0001)  cg2d: iter=    45 ; resid.=  6.05255767916515E-05
(PID.TID 0000.0001)  cg2d: iter=    46 ; resid.=  4.73757521411868E-05
(PID.TID 0000.0001)  cg2d: iter=    47 ; resid.=  3.94613831604307E-05
(PID.TID 0000.0001)  cg2d: iter=    48 ; resid.=  3.67544942094582E-05
(PID.TID 0000.0001)  cg2d: iter=    49 ; resid.=  3.30817824340944E-05
(PID.TID 0000.0001)  cg2d: iter=    50 ; resid.=  2.73221943294796E-05
(PID.TID 0000.0001)  cg2d: iter=    51 ; resid.=  2.43718255735344E-05
(PID.TID 0000.0001)  cg2d: iter=    52 ; resid.=  2.05925200677252E-05
(PID.TID 0000.0001)  cg2d: iter=    53 ; resid.=  1.69267917096635E-05
(PID.TID 0000.0001)  cg2d: iter=    54 ; resid.=  1.23003758572112E-05
(PID.TID 0000.0001)  cg2d: iter=    55 ; resid.=  1.04363641061621E-05
(PID.TID 0000.0001)  cg2d: iter=    56 ; resid.=  9.98140837948900E-06
(PID.TID 0000.0001)  cg2d: iter=    57 ; resid.=  8.54184684004888E-06
(PID.TID 0000.0001)  cg2d: iter=    58 ; resid.=  6.78907272736537E-06
(PID.TID 0000.0001)  cg2d: iter=    59 ; resid.=  5.47124136326781E-06
(PID.TID 0000.0001)  cg2d: iter=    60 ; resid.=  4.47042106785115E-06
(PID.TID 0000.0001)  cg2d: iter=    61 ; resid.=  3.63129818226327E-06
(PID.TID 0000.0001)  cg2d: iter=    62 ; resid.=  3.06545811002473E-06
(PID.TID 0000.0001)  cg2d: iter=    63 ; resid.=  2.58033725479826E-06
(PID.TID 0000.0001)  cg2d: iter=    64 ; resid.=  2.09516204818498E-06
(PID.TID 0000.0001)  cg2d: iter=    65 ; resid.=  1.68557742194751E-06
(PID.TID 0000.0001)  cg2d: iter=    66 ; resid.=  1.36104516970388E-06
(PID.TID 0000.0001)  cg2d: iter=    67 ; resid.=  1.12866560351062E-06
(PID.TID 0000.0001)  cg2d: iter=    68 ; resid.=  9.79876851333636E-07
(PID.TID 0000.0001)  cg2d: iter=    69 ; resid.=  8.23486577467378E-07
(PID.TID 0000.0001)  cg2d: iter=    70 ; resid.=  6.69240573569011E-07
(PID.TID 0000.0001)  cg2d: iter=    71 ; resid.=  5.66925670895953E-07
(PID.TID 0000.0001)  cg2d: iter=    72 ; resid.=  5.22299030742412E-07
(PID.TID 0000.0001)  cg2d: iter=    73 ; resid.=  4.47797747112003E-07
(PID.TID 0000.0001)  cg2d: iter=    74 ; resid.=  3.90467370776021E-07
(PID.TID 0000.0001)  cg2d: iter=    75 ; resid.=  3.25479377430541E-07
(PID.TID 0000.0001)  cg2d: iter=    76 ; resid.=  2.44778850948187E-07
(PID.TID 0000.0001)  cg2d: iter=    77 ; resid.=  1.99168920128853E-07
(PID.TID 0000.0001)  cg2d: iter=    78 ; resid.=  1.62761646667764E-07
(PID.TID 0000.0001)  cg2d: iter=    79 ; resid.=  1.26873683264697E-07
(PID.TID 0000.0001)  cg2d: iter=    80 ; resid.=  9.86211688700762E-08
(PID.TID 0000.0001)  cg2d: iter=    81 ; resid.=  7.52335757388610E-08
(PID.TID 0000.0001)  cg2d: iter=    82 ; resid.=  5.30928400540749E-08
(PID.TID 0000.0001)  cg2d: iter=    83 ; resid.=  4.04988561499255E-08
(PID.TID 0000.0001)  cg2d: iter=    84 ; resid.=  3.00310269052732E-08
(PID.TID 0000.0001)  cg2d: iter=    85 ; resid.=  2.22965770848264E-08
(PID.TID 0000.0001)  cg2d: iter=    86 ; resid.=  1.74890646489383E-08
(PID.TID 0000.0001)  cg2d: iter=    87 ; resid.=  1.48285174129102E-08
(PID.TID 0000.0001)  cg2d: iter=    88 ; resid.=  1.23692866021177E-08
(PID.TID 0000.0001)  cg2d: iter=    89 ; resid.=  1.05389590061391E-08
(PID.TID 0000.0001)  cg2d: iter=    90 ; resid.=  8.46689093589035E-09
(PID.TID 0000.0001)  cg2d: iter=    91 ; resid.=  6.28407143793581E-09
(PID.TID 0000.0001)  cg2d: iter=    92 ; resid.=  4.66803727714569E-09
(PID.TID 0000.0001)  cg2d: iter=    93 ; resid.=  3.43042781407791E-09
(PID.TID 0000.0001)  cg2d: iter=    94 ; resid.=  2.76171376278603E-09
(PID.TID 0000.0001)  cg2d: iter=    95 ; resid.=  2.38200268688980E-09
(PID.TID 0000.0001)  cg2d: iter=    96 ; resid.=  1.81197610526602E-09
(PID.TID 0000.0001)  cg2d: iter=    97 ; resid.=  1.41598602645561E-09
(PID.TID 0000.0001)  cg2d: iter=    98 ; resid.=  1.17773932514942E-09
(PID.TID 0000.0001)  cg2d: iter=    99 ; resid.=  1.08661693409107E-09
(PID.TID 0000.0001)  cg2d: iter=   100 ; resid.=  1.00269253098653E-09
(PID.TID 0000.0001)  cg2d: iter=   101 ; resid.=  8.15646237477008E-10
(PID.TID 0000.0001)  cg2d: iter=   102 ; resid.=  6.33524846081104E-10
(PID.TID 0000.0001)  cg2d: iter=   103 ; resid.=  4.97036295669036E-10
(PID.TID 0000.0001)  cg2d: iter=   104 ; resid.=  3.94917196521252E-10
(PID.TID 0000.0001)  cg2d: iter=   105 ; resid.=  3.01374137356996E-10
(PID.TID 0000.0001)  cg2d: iter=   106 ; resid.=  2.33338275750582E-10
(PID.TID 0000.0001)  cg2d: iter=   107 ; resid.=  1.74822163327652E-10
(PID.TID 0000.0001)  cg2d: iter=   108 ; resid.=  1.23462237017300E-10
(PID.TID 0000.0001)  cg2d: iter=   109 ; resid.=  9.07333726401077E-11
(PID.TID 0000.0001)  cg2d: iter=   110 ; resid.=  7.32718756803717E-11
(PID.TID 0000.0001)  cg2d: iter=   111 ; resid.=  5.72039966990327E-11
(PID.TID 0000.0001)  cg2d: iter=   112 ; resid.=  4.27476728189878E-11
(PID.TID 0000.0001)  cg2d: iter=   113 ; resid.=  3.23471980106927E-11
(PID.TID 0000.0001)  cg2d: iter=   114 ; resid.=  2.59506997521333E-11
(PID.TID 0000.0001)  cg2d: iter=   115 ; resid.=  2.10460591002289E-11
(PID.TID 0000.0001)  cg2d: iter=   116 ; resid.=  1.66085243847061E-11
(PID.TID 0000.0001)  cg2d: iter=   117 ; resid.=  1.25497686966816E-11
(PID.TID 0000.0001)  cg2d: iter=   118 ; resid.=  9.06395666359983E-12
(PID.TID 0000.0001)  cg2d: iter=   119 ; resid.=  6.07658734947272E-12
(PID.TID 0000.0001)  cg2d: iter=   120 ; resid.=  4.73572593645703E-12
(PID.TID 0000.0001)  cg2d: iter=   121 ; resid.=  3.64561153539383E-12
(PID.TID 0000.0001)  cg2d: iter=   122 ; resid.=  2.63328286190377E-12
(PID.TID 0000.0001)  cg2d: iter=   123 ; resid.=  2.03351138577979E-12
(PID.TID 0000.0001)  cg2d: iter=   124 ; resid.=  1.50442471562658E-12
(PID.TID 0000.0001)  cg2d: iter=   125 ; resid.=  1.04231395251578E-12
(PID.TID 0000.0001)  cg2d: iter=   126 ; resid.=  7.20183327987756E-13
(PID.TID 0000.0001)  cg2d: iter=   127 ; resid.=  4.67542940747525E-13
(PID.TID 0000.0001)  cg2d: iter=   128 ; resid.=  3.62214386584608E-13
(PID.TID 0000.0001)  cg2d: iter=   129 ; resid.=  2.64013741241548E-13
(PID.TID 0000.0001)  cg2d: iter=   130 ; resid.=  2.05550404422008E-13
(PID.TID 0000.0001)  cg2d: iter=   131 ; resid.=  1.56105076529529E-13
(PID.TID 0000.0001)  cg2d: iter=   132 ; resid.=  1.19099772086983E-13
(PID.TID 0000.0001)  cg2d: iter=   133 ; resid.=  9.13318270024383E-14
DEBUG_STATS_RL:    cg2d_x (SOLVE_FOR_PRESSURE)  min= -2.03945477480698E+01
DEBUG_STATS_RL:    cg2d_x (SOLVE_FOR_PRESSURE)  max=  8.42223841806184E+00
DEBUG_STATS_RL:    cg2d_x (SOLVE_FOR_PRESSURE) mean= -1.86045958432162E+00
DEBUG_STATS_RL:    cg2d_x (SOLVE_FOR_PRESSURE) S.D.=  7.06072836504087E+00
(PID.TID 0000.0001)      cg2d_init_res =   2.64771762339210E-01
(PID.TID 0000.0001)      cg2d_iters(min,last) =      -1     133
(PID.TID 0000.0001)      cg2d_last_res =   9.13318270024383E-14
(PID.TID 0000.0001) // =======================================================
(PID.TID 0000.0001) // Begin MONITOR dynamic field statistics
(PID.TID 0000.0001) // =======================================================
(PID.TID 0000.0001) %MON time_tsnumber                =                    90
(PID.TID 0000.0001) %MON time_secondsf                =   7.7760000000000E+06
(PID.TID 0000.0001) %MON dynstat_eta_max              =   8.5853602630608E-01
(PID.TID 0000.0001) %MON dynstat_eta_min              =  -2.0789549182538E+00
(PID.TID 0000.0001) %MON dynstat_eta_mean             =  -5.7740820846323E-03
(PID.TID 0000.0001) %MON dynstat_eta_sd               =   6.1484069725399E-01
(PID.TID 0000.0001) %MON dynstat_eta_del2             =   2.6858592208851E-03
(PID.TID 0000.0001) %MON dynstat_uvel_max             =   1.4400231658726E-01
(PID.TID 0000.0001) %MON dynstat_uvel_min             =  -1.4569097075777E-01
(PID.TID 0000.0001) %MON dynstat_uvel_mean            =   1.9140833139627E-03
(PID.TID 0000.0001) %MON dynstat_uvel_sd              =   1.8434413866674E-02
(PID.TID 0000.0001) %MON dynstat_uvel_del2            =   1.5420946765598E-04
(PID.TID 0000.0001) %MON dynstat_vvel_max             =   1.6129642296866E-01
(PID.TID 0000.0001) %MON dynstat_vvel_min             =  -1.1323539359027E-01
(PID.TID 0000.0001) %MON dynstat_vvel_mean            =   1.4254266674982E-04
(PID.TID 0000.0001) %MON dynstat_vvel_sd              =   9.9946585340160E-03
(PID.TID 0000.0001) %MON dynstat_vvel_del2            =   9.2818678789512E-05
(PID.TID 0000.0001) %MON dynstat_wvel_max             =   1.8746283103950E-04
(PID.TID 0000.0001) %MON dynstat_wvel_min             =  -8.9219659180065E-05
(PID.TID 0000.0001) %MON dynstat_wvel_mean            =   1.6537521398841E-22
(PID.TID 0000.0001) %MON dynstat_wvel_sd              =   1.3726355152016E-05
(PID.TID 0000.0001) %MON dynstat_wvel_del2            =   1.3132277916445E-07
(PID.TID 0000.0001) %MON dynstat_theta_max            =   3.1211414971396E+01
(PID.TID 0000.0001) %MON dynstat_theta_min            =  -1.9346590239064E+00
(PID.TID 0000.0001) %MON dynstat_theta_mean           =   3.6541186757009E+00
(PID.TID 0000.0001) %MON dynstat_theta_sd             =   4.4288085775815E+00
(PID.TID 0000.0001) %MON dynstat_theta_del2           =   4.8664543355107E-03
(PID.TID 0000.0001) %MON dynstat_salt_max             =   3.7496606806336E+01
(PID.TID 0000.0001) %MON dynstat_salt_min             =   2.9968361121381E+01
(PID.TID 0000.0001) %MON dynstat_salt_mean            =   3.4747997314911E+01
(PID.TID 0000.0001) %MON dynstat_salt_sd              =   2.9662534610167E-01
(PID.TID 0000.0001) %MON dynstat_salt_del2            =   9.9823521120308E-04
(PID.TID 0000.0001) %MON dynstat_sst_max              =   3.1211414971396E+01
(PID.TID 0000.0001) %MON dynstat_sst_min              =  -1.9346590239064E+00
(PID.TID 0000.0001) %MON dynstat_sst_mean             =   1.9081246103319E+01
(PID.TID 0000.0001) %MON dynstat_sst_sd               =   9.2589258576243E+00
(PID.TID 0000.0001) %MON dynstat_sst_del2             =   2.9270110180446E-02
(PID.TID 0000.0001) %MON dynstat_sss_max              =   3.7496606806336E+01
(PID.TID 0000.0001) %MON dynstat_sss_min              =   2.9968361121381E+01
(PID.TID 0000.0001) %MON dynstat_sss_mean             =   3.4868079606672E+01
(PID.TID 0000.0001) %MON dynstat_sss_sd               =   9.9112301733955E-01
(PID.TID 0000.0001) %MON dynstat_sss_del2             =   8.2884735719256E-03
(PID.TID 0000.0001) %MON forcing_qnet_max             =   2.0863440348307E+02
(PID.TID 0000.0001) %MON forcing_qnet_min             =  -1.5786364237467E+02
(PID.TID 0000.0001) %MON forcing_qnet_mean            =  -1.7065559845698E+00
(PID.TID 0000.0001) %MON forcing_qnet_sd              =   3.9345736238707E+01
(PID.TID 0000.0001) %MON forcing_qnet_del2            =   7.8520764018377E-01
(PID.TID 0000.0001) %MON forcing_qsw_max              =   0.0000000000000E+00
(PID.TID 0000.0001) %MON forcing_qsw_min              =   0.0000000000000E+00
(PID.TID 0000.0001) %MON forcing_qsw_mean             =   0.0000000000000E+00
(PID.TID 0000.0001) %MON forcing_qsw_sd               =   0.0000000000000E+00
(PID.TID 0000.0001) %MON forcing_qsw_del2             =   0.0000000000000E+00
(PID.TID 0000.0001) %MON forcing_empmr_max            =   6.7762427609826E-05
(PID.TID 0000.0001) %MON forcing_empmr_min            =  -8.3472262701889E-05
(PID.TID 0000.0001) %MON forcing_empmr_mean           =   2.3647594609277E-07
(PID.TID 0000.0001) %MON forcing_empmr_sd             =   2.5588502568847E-05
(PID.TID 0000.0001) %MON forcing_empmr_del2           =   3.6361092950638E-07
(PID.TID 0000.0001) %MON forcing_fu_max               =   3.4838171601295E-01
(PID.TID 0000.0001) %MON forcing_fu_min               =  -4.0161942839622E-01
(PID.TID 0000.0001) %MON forcing_fu_mean              =   1.8676039943328E-02
(PID.TID 0000.0001) %MON forcing_fu_sd                =   1.0030398135610E-01
(PID.TID 0000.0001) %MON forcing_fu_del2              =   7.7661497197637E-04
(PID.TID 0000.0001) %MON forcing_fv_max               =   1.8195632894834E-01
(PID.TID 0000.0001) %MON forcing_fv_min               =  -1.4562365015348E-01
(PID.TID 0000.0001) %MON forcing_fv_mean              =  -7.0189020268222E-03
(PID.TID 0000.0001) %MON forcing_fv_sd                =   3.8838554387626E-02
(PID.TID 0000.0001) %MON forcing_fv_del2              =   4.1811090198709E-04
(PID.TID 0000.0001) %MON trAdv_CFL_u_max              =   5.2246804166960E-02
(PID.TID 0000.0001) %MON trAdv_CFL_v_max              =   3.1580115864557E-02
(PID.TID 0000.0001) %MON trAdv_CFL_w_max              =   4.5801839368300E-02
(PID.TID 0000.0001) %MON advcfl_uvel_max              =   5.2795477503341E-02
(PID.TID 0000.0001) %MON advcfl_vvel_max              =   3.1337308099197E-02
(PID.TID 0000.0001) %MON advcfl_wvel_max              =   4.4633910677852E-02
(PID.TID 0000.0001) %MON advcfl_W_hf_max              =   5.0506793661779E-02
(PID.TID 0000.0001) %MON pe_b_mean                    =   4.8377643919288E-04
(PID.TID 0000.0001) %MON ke_max                       =   1.2417763633844E-02
(PID.TID 0000.0001) %MON ke_mean                      =   2.0090886692904E-04
(PID.TID 0000.0001) %MON ke_vol                       =   1.3226782436723E+18
(PID.TID 0000.0001) %MON vort_r_min                   =  -4.3016354359647E-07
(PID.TID 0000.0001) %MON vort_r_max                   =   5.6085097616857E-07
(PID.TID 0000.0001) %MON vort_a_mean                  =  -2.5274807466660E-05
(PID.TID 0000.0001) %MON vort_a_sd                    =   7.3604541461353E-05
(PID.TID 0000.0001) %MON vort_p_mean                  =  -3.1845655886674E-05
(PID.TID 0000.0001) %MON vort_p_sd                    =   1.3162460326504E-04
(PID.TID 0000.0001) %MON surfExpan_theta_mean         =  -8.6997644414223E-07
(PID.TID 0000.0001) %MON surfExpan_salt_mean          =   2.5743753558704E-07
(PID.TID 0000.0001) // =======================================================
(PID.TID 0000.0001) // End MONITOR dynamic field statistics
(PID.TID 0000.0001) // =======================================================
(PID.TID 0000.0001) // =======================================================
(PID.TID 0000.0001) // Field Current uVel   at iteration         90
(PID.TID 0000.0001) // CMIN =         -1.456909707577692E-01
(PID.TID 0000.0001) // CMAX =          1.440023165872627E-01
(PID.TID 0000.0001) // CINT =          1.072938101277896E-02
(PID.TID 0000.0001) // SYMBOLS (CMIN->CMAX): -abcdefghijklmnopqrstuvwxyz+
(PID.TID 0000.0001) //                  0.0: .
(PID.TID 0000.0001) // RANGE I (Lo:Hi:Step):(     1:    90:     1)
(PID.TID 0000.0001) // RANGE J (Lo:Hi:Step):(    40:     1:    -1)
(PID.TID 0000.0001) // RANGE K (Lo:Hi:Step):(   1:   1:   1)
(PID.TID 0000.0001) // =======================================================
(PID.TID 0000.0001) K =   1
(PID.TID 0000.0001)                I=10      I=20      I=30      I=40      I=50      I=60      I=70      I=80      I=90
(PID.TID 0000.0001) |--J--|123456789|123456789|123456789|123456789|123456789|123456789|123456789|123456789|123456789|
(PID.TID 0000.0001)     40 nnnmn..nmmmmnnnnnnn...................................................................mmmm
(PID.TID 0000.0001)     39 nnnnoppppppppn....n......................................................nnn.........llklm
(PID.TID 0000.0001)     38 nopoonmmmnnnn............................................................mnnm.......mmmmnn
(PID.TID 0000.0001)     37 opp...................................................................m....mm....lllm..noo
(PID.TID 0000.0001)     36 pp..........................................llm.....................nmmmmllklm..jklmnoopqq
(PID.TID 0000.0001)     35 po..................................nmm...mlmmnl....lllm............mm.....nommlkmonnnoqpp
(PID.TID 0000.0001)     34 ....................................nmm..mnnoonn..mllmnnn...................orqqpppppooo..
(PID.TID 0000.0001)     33 .....................................nponopqqqqqonooppppooo..................ttssrqqponnm.
(PID.TID 0000.0001)     32 .....................................moooopqrrrqqqqqqqqqqpp.................vvwtsrqpommmm.
(PID.TID 0000.0001)     31 .....................................nppqqqqqqqqqqqrrrqqqpo...............osstwusrqponmn..
(PID.TID 0000.0001)     30 ....................................qsttttttsrrrrrqqqppooon.............oqsssssssrqonooo..
(PID.TID 0000.0001)     29 ..................................oruuvvutttsrrqqqpoonnnnnnm............sssqppppppponooo..
(PID.TID 0000.0001)     28 ................................qsttsrrrrqpppqqpooooonmnnnnmm..........rtrponnnoooooonnn..
(PID.TID 0000.0001)     27 ...............n...............surpoooooooonnoonnnnnnmmmmllkll....mmn..qpooonnnnnnnmml....
(PID.TID 0000.0001)     26 ...............mo............kjllkjjjkkkkklkkkjjjjjjjiiiiihhikmm..mlmmnmkjlllkkkjjjihi....
(PID.TID 0000.0001)     25 ...............pon....nn....khilkhhhhihgghihhgghhhhihgghhiijkmnnn....kjkffjjkjjkkkkjjj....
(PID.TID 0000.0001)     24 .............ortsqn..oqp....oo..onkjkkjjkllllllmnmmmmmnooppqqqpoooon..nnllnppqppqqrrqp....
(PID.TID 0000.0001)     23 .............qqponm..nnn....on...mkijjkklllmmnnoponnnoqrrrrrqonmmnnnn.....poqpmmoprrrp....
(PID.TID 0000.0001)     22 o............igddedeighk....m..iiigfefffffefghijjjijklnpqpponmlkjkjjjk.......mgeegjmooqpoo
(PID.TID 0000.0001)     21 opp.........iggeec-bdgimm......kjomkihhghhgfghiiiiiijjlnonnllnnoonmlll.........hcbfkmmprqp
(PID.TID 0000.0001)     20 non........mlnooolgiknoqp.........oonnnmopponoonmlklkjkllkjiklnoomllkl..........iegikklonn
(PID.TID 0000.0001)     19 jlm........kjkmnomijklmnnnl....hn......poprrrrqqomkkkjkkjihhggiihgghhj............ihhhijii
(PID.TID 0000.0001)     18 ikm........liehigihiihikkkiihhhgl....lmomlnpponnmljiihijiihihhiihggghik...........ljjiiiih
(PID.TID 0000.0001)     17 lll..........jhhhjhjjhjklkkjjjk......nomllmmnmkklmmkjiijjjjjjjkkkjkklml..........nmllkjjkl
(PID.TID 0000.0001)     16 jjj.......n..plkkkjkjlklmmmnml........nnnnnmmnllmopnmmllkkkkkjkkkkklmllm.........pnlkjjiij
(PID.TID 0000.0001)     15 ffgk.....nn..onnmmnnmnnnnmmlm..........mmnnmoonnnopponmmmlllkjkkjjjiihhim.......oonlkjjihh
(PID.TID 0000.0001)     14 hggh.....kjjjklmmmnnmmmmmmlkl..........kklmmnpoooopponnnmmmllkkkjjjjiihhk......jjmmlkkjjih
(PID.TID 0000.0001)     13 lkji.....nmkkkklmmnnmmmmnnmll..........mmnnpopopppppooopppppoonmmmnnmmmlm.....kmnnmmmmmmml
(PID.TID 0000.0001)     12 qpnmotpmmrqpooopooopoopqqpoonmmmll.....pppnlnppqqqppoppqqqrrsrqpopqqppon......rsssrrrrrrrq
(PID.TID 0000.0001)     11 tsrqqportwwwwwvuttttsssttsrrrqqqpnm...pppol..ooppoooooooopqrrrqqpqqrqpom.....pruvvwvvvuutu
(PID.TID 0000.0001)     10 utsrrrtuvxz+zzzyxyyxwuuvuttsrrrrqpnm..onnml..nnnmmmnnnnnnmnoppppppppponm...rqoqsuvwwwwvvvv
(PID.TID 0000.0001)      9 utttttuuuvvvuuvvttvwvuuuutttsssrrrqpoonnnn..pmmmnnnnnnnooonoooooooonnnlj..liloqsttuvvwvvvv
(PID.TID 0000.0001)      8 tuuvutttttssssssrqqsuuutttuutttttuuutsssqpmnooopqqrrrrrrrrrrqqqqqqppponm..mkmprrrstttuvvut
(PID.TID 0000.0001)      7 stttsssstsssssrstsrrsssssssttttuuvwwwwvwwwwutsssttuvwwwvvvutttttttssssssrrsrsttsrsssssstss
(PID.TID 0000.0001)      6 qpppppqqrrrrqqqqrsrpooppppqqrsstttttttuvxyyxwvuvvwwwxyyxxvuuuuuuuuuvvvwxyzzz+zwutsrqqqqqqq
(PID.TID 0000.0001)      5 nmmmmnnnooonnnnnnoonmmmmmmmnooppppqqqqrstuvvvvuvvwwvvutttsttttttttuuuuvvvutuvusrqppooooonn
(PID.TID 0000.0001)      4 lkkkkllllllmmmmmnnnnnnmmlmmmmmmmmmmmnnnnooppqrrrrrrqpoooopqqrqqqqqqqqqqqpo...mnnnnmmmmmlll
(PID.TID 0000.0001)      3 mmmmmmmmmm.............................mmmmlmnnnnnmmmllmmnnoooooooonnnnnn...mkklllmmmnnmmm
(PID.TID 0000.0001)      2 ...........................................mmmmmmmmlllllmmmmmnnn...mmm......nnmmmmmmmmm...
(PID.TID 0000.0001)      1 ..........................................................................................
(PID.TID 0000.0001) // =======================================================
(PID.TID 0000.0001) // END OF FIELD                                          =
(PID.TID 0000.0001) // =======================================================
(PID.TID 0000.0001) 
(PID.TID 0000.0001) // =======================================================
(PID.TID 0000.0001) // Field Current vVel   at iteration         90
(PID.TID 0000.0001) // CMIN =         -1.132353935902749E-01
(PID.TID 0000.0001) // CMAX =          1.612964229686631E-01
(PID.TID 0000.0001) // CINT =          1.016784505773844E-02
(PID.TID 0000.0001) // SYMBOLS (CMIN->CMAX): -abcdefghijklmnopqrstuvwxyz+
(PID.TID 0000.0001) //                  0.0: .
(PID.TID 0000.0001) // RANGE I (Lo:Hi:Step):(     1:    90:     1)
(PID.TID 0000.0001) // RANGE J (Lo:Hi:Step):(    40:     1:    -1)
(PID.TID 0000.0001) // RANGE K (Lo:Hi:Step):(   1:   1:   1)
(PID.TID 0000.0001) // =======================================================
(PID.TID 0000.0001) K =   1
(PID.TID 0000.0001)                I=10      I=20      I=30      I=40      I=50      I=60      I=70      I=80      I=90
(PID.TID 0000.0001) |--J--|123456789|123456789|123456789|123456789|123456789|123456789|123456789|123456789|123456789|
(PID.TID 0000.0001)     40 kkmnl.ljjkkllm...kk..................................................................kkkkk
(PID.TID 0000.0001)     39 kllmmlkjjjjjk...........................................................kjkk........ikkkkk
(PID.TID 0000.0001)     38 lmn.......................................................................kjl......mk.mmkk
(PID.TID 0000.0001)     37 mo...................................................................kk...jkk...gmpol.nmkk
(PID.TID 0000.0001)     36 ll.........................................lmml....................ljj....hjkk.ehnpnnlkkkj
(PID.TID 0000.0001)     35 ...................................kkkk..klmmnnm...gilnn...................hjiijlnnmmlml..
(PID.TID 0000.0001)     34 ....................................ljh.jklllkkk.hhijkllk...................jhijklmmlkkj..
(PID.TID 0000.0001)     33 ....................................nhfhjjjiiiihhhghhiijiji.................tklkjjjjihgjk.
(PID.TID 0000.0001)     32 ....................................nkihiihhggffggfghhhhhii................xuljihhhhgggj..
(PID.TID 0000.0001)     31 ....................................mljiiihgghgggghhiijjihi..............mnljihhhiiiihik..
(PID.TID 0000.0001)     30 ...................................molkkkkkjjjkkjjjkkllkjih............lpnnljjiijjkjjjll..
(PID.TID 0000.0001)     29 .................................mnnmlklmmlkkllllkkllllkkjii...........nomljjiijkjjjjlml..
(PID.TID 0000.0001)     28 ...............................pnmlkkjjklkjjjjjkllllllkkkjihi.........nmkjiiihiklkkkkk....
(PID.TID 0000.0001)     27 ..............kk..............qomlkjkkllmlkkkkklnnnnnmmllkkjii...lmnn.nliiiijjklmmmmlj....
(PID.TID 0000.0001)     26 ..............jll...........hknolklllnoppommnnoooonnnnmmlkkjjjkk....nmlijkjkklmmnmllki....
(PID.TID 0000.0001)     25 ..............lnml...mmk...ghk.liilnopqponnmmmnmnnmlllkkkkjkkklkj....llkjggghijklkjjjj....
(PID.TID 0000.0001)     24 ............nqstqnn.oppl...mlm..hfjlnooooppopppppoommmmmnnnnnnmljkkk.....liklmoppoonmk....
(PID.TID 0000.0001)     23 ............twxwtqq.pqpm...nm...hinqstuvvuvwwwvvvuusstuuvvutsrponmnml.......stvvwxwuql....
(PID.TID 0000.0001)     22 k...........rvwuqnnjknqo......khilruwy+zwuttuusssttssssttsssqponlmnnkh........rsvxxvtqolkk
(PID.TID 0000.0001)     21 jkl........noppmjhhhhjkkg......b.knruvvtqomllllllmmmmmnnnnnnmlkjjklkji.........nqvtqpnmlkk
(PID.TID 0000.0001)     20 hjl.......mmnmjgeeefghgfe......-......nlkllkiiiihhhiiihhhgfffedefgghhh...........sojhhgggg
(PID.TID 0000.0001)     19 gik.......mnpokijihijlkihkl...fgk.....mllnonnoonliijkkkjhgggfeddddefhi...........nmifeeeff
(PID.TID 0000.0001)     18 ijk.......m.qtonlkjlmmmlkllkjjj.....kkklllnpqpqqpmklmnnnmlllkkjihgghjkk..........mpmlkjjjj
(PID.TID 0000.0001)     17 nmm.......m.nqljhiijjijjiiiiij.......jihhilnnlllmmlkkklllkllllmmkjjkmnl.........kkmnnnmmnn
(PID.TID 0000.0001)     16 mml......jn.kjhhhggigghihhhgi.........ieegjkjjiijjjiijkjjklkkkkkkjklmnmk........mkjjklkkkl
(PID.TID 0000.0001)     15 kjkj....kjm.jijjihiljhijjjigi.........jgghjjllkjjjkkkkkjkllkklmlkkkkllmlk......kkllklmllll
(PID.TID 0000.0001)     14 llnj....gilljkllkjkmljjlllkjj.........igijkjkmmlkkkkkkkkkkkjkmlllkllkkllk.....eiklmllmmnnm
(PID.TID 0000.0001)     13 lmnk....bgjihijkjjjkjjjlmllll.........hhijklklllkjjjiijiiiiijkjkllllkkmm.....gfhijjjjklmmm
(PID.TID 0000.0001)     12 nnmljfceehkjijlmllllkklmnmmlkjjjkn....ijjif.kklkkjiiiijjiiijjiikmnmlllml.....ihiijjjjkklmn
(PID.TID 0000.0001)     11 ppoomlkjklnnmlnoppoooopppppomllkklm..kikjih.mmlklkkjjkklmllllkkmpponnnlk....nkmmmlmllmnopq
(PID.TID 0000.0001)     10 qqqqqonmorsrqpoqsrpoqrrrrrqqponnmmop.mklkj..spmllmmmmmmmnooonmmoqqqponlk..suoorqpooonnprrr
(PID.TID 0000.0001)      9 popqqpmmorsrqponsvolnpqrqqppponmmlnqpmkllm.ppnllllllmnmnnooonmnoqqpoonkm.hprqrtspooonnprrq
(PID.TID 0000.0001)      8 ooooonmmnnoponmlovtnnnnooooonnnmllmooljijlqronmlmllklmmmmmmmllmnoonnmljo.glorstspnonnnnoqp
(PID.TID 0000.0001)      7 oonmmmmmmmnonmlllosrpnmnnnmmmmmmmmnonkihiknoonmmnnmmmllllllllllmmmmllkkknpoqsssqooommmnnop
(PID.TID 0000.0001)      6 nmlllmmnmmllllkklmnonmmmllllmmmmllmnmlkkklmmmnnoooopomlkjjklmmllmmmmllmnpppqpoonmmnmmmnnmn
(PID.TID 0000.0001)      5 kkkkkkkllkjjjjjjkkkkkkkjjjkkkkkjjkkkkkkklllkkmnooooonmlkjjklllllmmmmlmmmmn..ommlllllllllll
(PID.TID 0000.0001)      4 hhhhihhhii............................kjjkkkklmmnmmllkkkkkkkkkkkklllllklk...mllkkkkkkjjjii
(PID.TID 0000.0001)      3 ..........................................jkkkkkkkkjjjjjjjjjijjk..kjjj.....kkllkjjkkjii...
(PID.TID 0000.0001)      2 ..........................................................................................
(PID.TID 0000.0001)      1 ..........................................................................................
(PID.TID 0000.0001) // =======================================================
(PID.TID 0000.0001) // END OF FIELD                                          =
(PID.TID 0000.0001) // =======================================================
(PID.TID 0000.0001) 
(PID.TID 0000.0001) // =======================================================
(PID.TID 0000.0001) // Field Current theta  at iteration         90
(PID.TID 0000.0001) // CMIN =         -1.934659023906427E+00
(PID.TID 0000.0001) // CMAX =          3.121141497139624E+01
(PID.TID 0000.0001) // CINT =          1.227632370196395E+00
(PID.TID 0000.0001) // SYMBOLS (CMIN->CMAX): -abcdefghijklmnopqrstuvwxyz+
(PID.TID 0000.0001) //                  0.0: .
(PID.TID 0000.0001) // RANGE I (Lo:Hi:Step):(     1:    90:     1)
(PID.TID 0000.0001) // RANGE J (Lo:Hi:Step):(    40:     1:    -1)
(PID.TID 0000.0001) // RANGE K (Lo:Hi:Step):(   1:   1:   1)
(PID.TID 0000.0001) // =======================================================
(PID.TID 0000.0001) K =   1
(PID.TID 0000.0001)                I=10      I=20      I=30      I=40      I=50      I=60      I=70      I=80      I=90
(PID.TID 0000.0001) |--J--|123456789|123456789|123456789|123456789|123456789|123456789|123456789|123456789|123456789|
(PID.TID 0000.0001)     40 -bbccb--------abcddbbbbbbbbbbbbbbbbbbbbbbbbbbbbbbbbbbbbbbbbbbbbbbbbbbbbbbbbbbbbbbbbbbaa---
(PID.TID 0000.0001)     39 bbccccbba-----bbbddbbbbbbbbbbbbbbbbbbbbbbbbbbbbbbbbbbbbbbbbbbbbbbbbbbbbb----bbbbbbbbaaaaaa
(PID.TID 0000.0001)     38 deeeeecbcbaa-bbbbbbbbbbbbbbbbbbbbbbbbbbbbbbbbbbbbbbbbbbbbbbbbbbbbbbbbbbb-----bbbbbba--abcc
(PID.TID 0000.0001)     37 ffgbbbbbbbbbbbbbbbbbbbbbbbbbbbbbbbbbbbbbbbbbbbbbbbbbbbbbbbbbbbbbbbbbbbbbbba-abbbbbeeebcdde
(PID.TID 0000.0001)     36 ggbbbbbbbbbbbbbbbbbbbbbbbbbbbbbbbbbbbbbbbbbba--bbbbbbbbbbbbbbbbbbbbcccbbaaabacbceffghhhggg
(PID.TID 0000.0001)     35 ffbbbbbbbbbbbbbbbbbbbbbbbbbbbbbbbbb----bbabcccb-bbbddeefbbbbbbbbbbbbbbbbbbbcddddeffhhiiihg
(PID.TID 0000.0001)     34 bbbbbbbbbbbbbbbbbbbbbbbbbbbbbbbbbbb----bacccccccbccedefffbbbbbbbbbbbbbbbbbbbabdeefghiijibb
(PID.TID 0000.0001)     33 bbbbbbbbbbbbbbbbbbbbbbbbbbbbbbbbbbbb--abbccdccddeeeeefffgghbbbbbbbbbbbbbbbbbaacfhijjjjjjjb
(PID.TID 0000.0001)     32 bbbbbbbbbbbbbbbbbbbbbbbbbbbbbbbbbbbb-abbccddddeefffgggghhhibbbbbbbbbbbbbbbbedbaikklllkkkjb
(PID.TID 0000.0001)     31 bbbbbbbbbbbbbbbbbbbbbbbbbbbbbbbbbbbbdeefgggghihhhhhiijjjjjjbbbbbbbbbbbbbbhilkgjlmmmmmllmbb
(PID.TID 0000.0001)     30 bbbbbbbbbbbbbbbbbbbbbbbbbbbbbbbbbbbkkjjjjkkkkkkkkkkkllmmmllbbbbbbbbbbbbmmmoooooooooonnnnbb
(PID.TID 0000.0001)     29 bbbbbbbbbbbbbbbbbbbbbbbbbbbbbbbbbnnnnnmmmnnmnnnnnnnnnooonnmmbbbbbbbbbbbopqqppppppppooooobb
(PID.TID 0000.0001)     28 bbbbbbbbbbbbbbbbbbbbbbbbbbbbbbbmooppppoooppppppppppppqqpponnnbbbbbbbbbqrrrqqrqqqqqppppppbb
(PID.TID 0000.0001)     27 bbbbbbbbbbbbbbuubbbbbbbbbbbbbbqqrrrrrrrrrssrrssrsssrrrrqqqpoopbbbrrrsbsttttttssssrrqqqbbbb
(PID.TID 0000.0001)     26 bbbbbbbbbbbbbbuttbbbbbbbbbbbsstttttuuuuuuuuuutttttttsssrrrqpqqsubstuvuuuuuuuuttttsrrqqbbbb
(PID.TID 0000.0001)     25 bbbbbbbbbbbbbbuuvvbbbwwwbbbuuvvvvvvvwwwvvvvvvuuuuuuutttsssrrsstvwbbbvvvvvvvuuuuttsrrqqbbbb
(PID.TID 0000.0001)     24 bbbbbbbbbbbbwvvwxxybwwxxbbbwwwbwwwwwwwwwwwvvvvvvvvuuvvvvvvvvvvvwwvvwbwvvvvuuuuuuttttttbbbb
(PID.TID 0000.0001)     23 bbbbbbbbbbbbwwxxxyzbwxxxbbbxwwbbwxxxxxxxxxxwwwwwwwwwwwwwwwwwwwwwwwwxwbbbbwvvvvvvvvvwwwbbbb
(PID.TID 0000.0001)     22 wbbbbbbbbbbbwwwxxyyxxxyzbbbxxbzyxxxyyyyyyyxxxxxxxxxxxxxwwwwwwwwwwwwvvvbbbbbbwwwwwxxxxyyyxw
(PID.TID 0000.0001)     21 vvwbbbbbbbbxxxxxxxyxyyzz+bbbbbzyyzzzzzzzzzzyyyyyyzyyyyyxxxxxxxxxxxwvvvbbbbbbbbxxxyyyyyzyxw
(PID.TID 0000.0001)     20 wvvbbbbbbbyyyyyyyyyyyzzz+bbbbbbzbzzzzz+zz++zzzzzzzzzyyyxxxxxxxxxwxxwwvbbbbbbbbbyyyxxxxyxww
(PID.TID 0000.0001)     19 vvwbbbbbbbzzzyyyyyyyyyzyzzybbbzzzbbbbbz+zz++zzzzzzzzyyyxxxxxwwwvvwvvvvbbbbbbbbbbbxxxwwwvvv
(PID.TID 0000.0001)     18 uuubbbbbbbzzxxxyyyyyyyyyzyzzzz+zzbbb++zzzzzzzzzzzzzzyyyyxxxxwwwvvvvuuutbbbbbbbbbbyxxwwvvwv
(PID.TID 0000.0001)     17 uutbbbbbbbzbyxxxxxxxxxxxyyyyyzzbbbbbyyyyzzzzzzzzyyyyyxxxxxxxwwwvvvvuttvbbbbbbbbbxxyxxvuvvv
(PID.TID 0000.0001)     16 ttsbbbbbbyzbxxxxxwwwwwwwwwxxyzbbbbbbbxxxyyyyyyyyyyyyyyxxxxxxxwwvvvvuutstbbbbbbbbxyyxxwvvvu
(PID.TID 0000.0001)     15 tsrrbbbbwxxbwwwwwvvvvwvvuuvvwbbbbbbbbbvwwxxxxxxxxxxxxxxxxxyxxwvvvvuutsssrbbbbbbxxxxxxwwvuu
(PID.TID 0000.0001)     14 tsqqbbbbwxwvvwwvvwvvuuuutttttbbbbbbbbbvvvvwwwwwwwwwxxxwwxxxxwwvvvvuutssssbbbbbvwxxwxxwwwvu
(PID.TID 0000.0001)     13 utsqbbbbvwvvvvuuuvvuuuutsssssbbbbbbbbbuuuvvvvvvvvvuuvvvvvwwwwwvvuuuutssspbbbbuvwwwvwwwwvvu
(PID.TID 0000.0001)     12 sssrssqsuvuttutssssssttrrrrrqqqrrqbbbbsttttttttsssssttttttuuuttttsstssrrbbbbbtvvvutuuuttst
(PID.TID 0000.0001)     11 qpppqqrrrsrqqrrqqppopqqpppppppqqqqqbbssssssbrrrqqrrrrrrrrrssqqrrqqqrrrqpbbbboqssssrrsrrrqq
(PID.TID 0000.0001)     10 mmlllmnoppoooponmmmnmmnmlmlllmnooooobqqqqqqbppqqqqqppppppppooopoonnoopoobbnppppoooonoppoon
(PID.TID 0000.0001)      9 jjjiiijkkjjkkkkjjiijjjjiiiijiijkkmnmmmooopbnnonoooooooooonmmmmmmmllllmmmbmmnnmlllllkkllkkj
(PID.TID 0000.0001)      8 fgggggghhggghiiihgghhhhggghhhhiijjjjjjklllmlllllllllmllllkkkjjjkkjjjjklkbjkkkjjjiiihhhhggf
(PID.TID 0000.0001)      7 eeeeeffffgfffggggfffffeeeefgggggghhgghiijjjjijjkkjjjiiiiiiiiiihhiiiiiiijiiiiihhggfffffeeee
(PID.TID 0000.0001)      6 cdddeeeeeeeeeeeeefeeeeeeeeeeddeeefeefggghhhhhhhhihhgffggfggfffffgggggghhhhhhggffeeeeeddddd
(PID.TID 0000.0001)      5 ddddddddddeeeeeeeeddddddddddddeeeeeeeeeeffffffeeffeeddeeeeeeedeeeeeefffeeeeeeeedddddcccccc
(PID.TID 0000.0001)      4 cdddcccccccccccbbccccccbbbbbcccccbbbbcccccdddcccccccccccccccccdddcccdddddcbbbbabcccccccccc
(PID.TID 0000.0001)      3 cccbbbbaaabbbbbbbbbbbbbbbbbbbbbbbbbbbbbbaaaabbbbbbbbbbbbbbaabbbbbbaabbbbbbbbaaaaabbcccbbbb
(PID.TID 0000.0001)      2 bbbbbbbbbbbbbbbbbbbbbbbbbbbbbbbbbbbbbbbbbbaaabbbbbbbbaaaaaaaaaaabbaaaabbbbbaaaaaaabbbbbbbb
(PID.TID 0000.0001)      1 bbbbbbbbbbbbbbbbbbbbbbbbbbbbbbbbbbbbbbbbbbbbbbbbbbbbbbbbbbbbbbbbbbbbbbbbbbbbbbbbbbbbbbbbbb
(PID.TID 0000.0001) // =======================================================
(PID.TID 0000.0001) // END OF FIELD                                          =
(PID.TID 0000.0001) // =======================================================
(PID.TID 0000.0001) 
(PID.TID 0000.0001) // =======================================================
(PID.TID 0000.0001) // Field Current etaN   at iteration         90
(PID.TID 0000.0001) // CMIN =         -2.078954918253780E+00
(PID.TID 0000.0001) // CMAX =          8.585360263060767E-01
(PID.TID 0000.0001) // CINT =          1.087959609096243E-01
(PID.TID 0000.0001) // SYMBOLS (CMIN->CMAX): -abcdefghijklmnopqrstuvwxyz+
(PID.TID 0000.0001) //                  0.0: .
(PID.TID 0000.0001) // RANGE I (Lo:Hi:Step):(    -1:    92:     1)
(PID.TID 0000.0001) // RANGE J (Lo:Hi:Step):(    42:    -1:    -1)
(PID.TID 0000.0001) // RANGE K (Lo:Hi:Step):(   1:   1:   1)
(PID.TID 0000.0001) // =======================================================
(PID.TID 0000.0001) K =   1
(PID.TID 0000.0001)                I=8       I=18      I=28      I=38      I=48      I=58      I=68      I=78      I=88
(PID.TID 0000.0001) |--J--|101234567|901234567|901234567|901234567|901234567|901234567|901234567|901234567|901234567|9012
(PID.TID 0000.0001)     42 ............................................ddcdddddddeeeeeeeeefff..ggff.....cdddcdddcccc.....
(PID.TID 0000.0001)     41 ..............................................................................................
(PID.TID 0000.0001)     40 mmmmmnn.jiihhhhgggggg..................................................................mmmmmmm
(PID.TID 0000.0001)     39 mmllllmmlkkjjjii...gg.....................................................cccc........nnmmmmll
(PID.TID 0000.0001)     38 mmmmmmmmmmmmmll...........................................................eeddd......omlmmmmmm
(PID.TID 0000.0001)     37 nnnno..................................................................hg...ffe...lllml.mnnnnn
(PID.TID 0000.0001)     36 nnnp.........................................noon....................jjiihgfefgg.kiiklmnnnnnnp
(PID.TID 0000.0001)     35 pppo.................................sssr..mnnnooo...trrst...........kkk....gffgghhiklmnnopppo
(PID.TID 0000.0001)     34 .....................................srrr.nnnnooop.qqqqrstu..................hiihiijkmnops....
(PID.TID 0000.0001)     33 r.....................................ssqpooooooppqqqqqrsstuv.................lkkkklmoppppr...
(PID.TID 0000.0001)     32 r.....................................tsqppppppqqqqrrrrssttuu................mqonnoopqqqqqr...
(PID.TID 0000.0001)     31 ......................................qrrqqqqrrrrrrssstttuuuu..............qrrrqpppqqqqqqq....
(PID.TID 0000.0001)     30 .....................................qrsssssssssttttttuuuvvvu............mpqrttssssrrrrrrr....
(PID.TID 0000.0001)     29 ...................................sttvvvvvvvvuuuvvvvuvvvvvvut...........ortuuutttsssrrrrr....
(PID.TID 0000.0001)     28 .................................uvvwxxxxxxxxxwwwwwwvvvvvvvvvut.........stuuuuutttsssrrrrr....
(PID.TID 0000.0001)     27 ................tt..............yyyyyyyyyyyyyyxxxwwwwwwwwvvvvuut...wvvv.uuvvuuutsssssrrq......
(PID.TID 0000.0001)     26 ................ttt...........+zzzzzyzzzzzzzzyyyxxxxxxwwwwvvvuuuuu.vvvvwvvvvvuuttssssrrr......
(PID.TID 0000.0001)     25 ................tttt...uuv...zzyyzzyyyyyzzzzzyyyxxxxxxwwwwwvvvvvvvv...vvvvvvuuutttsssrrr......
(PID.TID 0000.0001)     24 ..............ttttuuu.uvvv...zzz.+zyyyyyyzzzyyyyxxxxxxwwwwwwwwvvvvvvvv.vvuvvuuuutttsssss......
(PID.TID 0000.0001)     23 ..............ttuuuuv.vvvv...zzz..zyyyyyyyyyyyyyxxxxxxxwwwwwwwwvvvvvvvv....uuvutttttssst......
(PID.TID 0000.0001)     22 tts...........tutuuuuvvvvv...zz.zyyxxxyyxxxxxyxxxxxxxxxxxwwwwwwwvvvvvvvv......ttttttttttuttts.
(PID.TID 0000.0001)     21 tssss........vuuutttuuuuuvv.....zyyyyyyyxxxxxxxxxxxxxxxxxwwwwwwwvvvvvuuu........uuuuuttuuttsss
(PID.TID 0000.0001)     20 sssss.......vvvuuttttttuuuu......y.zyyyyxwxxxxxxwwxxxxwwwwwwvvvvvuuuuuuu.........uuuuttttsssss
(PID.TID 0000.0001)     19 rrrss.......wvvutttttuuuuuuuu...xxx.....xxxyxxxxxxxxxxxwwwwwvvvuuuuuuuuu...........utttsssrrrs
(PID.TID 0000.0001)     18 rrrrr.......wwvuttuuuuuvvvuuuvvwxxy...yyyxyyyyyyyyyxxxxxxwwwwvvvvuuuuuutt..........vuttssrrrrr
(PID.TID 0000.0001)     17 srrrr.......x.xvvuuvvvvvvvvvvvvvv.....yxxxxxxyyyyyyyxxxxxxxxwwwwvvvvuuutu.........vvuutssssrrr
(PID.TID 0000.0001)     16 ssrrr......xx.xwvvvwwvvvvvuuuuuv.......wwwxxxyyyxyyyyyyxxxxxxxxwwwvvvvuutt........vvuuuuttssrr
(PID.TID 0000.0001)     15 tssrqp....uvw.vwwwwwwvvvvuutttu.........vwwwxxxxxxxyyyyyyyyyyyyxxwwwvvuutts......uvvvvvvuutssr
(PID.TID 0000.0001)     14 utsrqp....vwvuvvvvwwwvuuuutssrs.........uvvwwwxwwwwxxxxyyyyzyyyyxxwwwvvuutt.....wvvwvwwvvvutsr
(PID.TID 0000.0001)     13 uutsrp....vxwvvvvvvvvuuuuutssrq.........uvvvvvvvvvvvvwwxxxyyyyyyxxwwwvvutts....uvvvvvwwwwvuuts
(PID.TID 0000.0001)     12 uttsrqpmprvwvvvvvuuuuuuuuutsssrrrsss....uuuutttuuuuuuvvvwwwwxxxxxxxwvvuuts.....tuvvvvvvvvvutts
(PID.TID 0000.0001)     11 tssrqqpprtuvvuuuuuuuuttttttssrrrssstt..stttts.tuttttuuvvvvvvwwwwxxwvvuutsr....psttttttuuuutssr
(PID.TID 0000.0001)     10 rqpppooppqrrrqpqrrrrrrrrrrrrqqqqrrssst.qssttu.sssttuuuvvvwvvvvvvwwwvutttss..wrrsrqqqrrrsssrqpp
(PID.TID 0000.0001)      9 nmmmnmmmmnonmllllmmllmnooooooooopqrstsrqrsss.usrsttuuuvvvwwvvuuuvvuttssssr.wvtrqponnnnnooonmmm
(PID.TID 0000.0001)      8 ihiiiiihijjjjjiijkmjgijjkkkkklllmnooqqpqrstuvsrqrrssttuuuututttttttssssstw.wusqomkjjjjjjjjihii
(PID.TID 0000.0001)      7 gfeeeeefggghhggghhijhfffggggghiiijjkkkkkmnqrrqppppppppqqqqqqqqqqqqqqqqrrsuvttspnljhggggggfgfee
(PID.TID 0000.0001)      6 ddccccddeeeeeeffffgggfeeeeeeffggggggggggijklmmmmmmmmllkkklllmmmnnnnnnnnooooonmkjhgffeeeeeeddcc
(PID.TID 0000.0001)      5 cccccddddddddeeeeeffffeeedddeeedddddeeeeefggghiiiihhhgffffghijjjjjjjjjjjjjihfeccccdddddddccccc
(PID.TID 0000.0001)      4 ccdddddddeeeefffffffffeeeefeeeedddddccccdddddeeeeeedddddeefffggggghhgggggggg..-bbbccccccccccdd
(PID.TID 0000.0001)      3 eeeffffffffe............................ccdddddddddddddddeeeeeefffffffffggg..ccbbcccccddddeeef
(PID.TID 0000.0001)      2 ............................................ddcdddddddeeeeeeeeefff..ggff.....cdddcdddcccc.....
(PID.TID 0000.0001)      1 ..............................................................................................
(PID.TID 0000.0001)      0 mmmmmnn.jiihhhhgggggg..................................................................mmmmmmm
(PID.TID 0000.0001)     -1 mmllllmmlkkjjjii...gg.....................................................cccc........nnmmmmll
(PID.TID 0000.0001) // =======================================================
(PID.TID 0000.0001) // END OF FIELD                                          =
(PID.TID 0000.0001) // =======================================================
(PID.TID 0000.0001) 
(PID.TID 0000.0001)  MDS_WRITE_FIELD: it,rec,kS,kL,kH=      90     1  15   1  15 file=U.0000000090
(PID.TID 0000.0001)  MDS_WRITE_FIELD: it,rec,kS,kL,kH=      90     1  15   1  15 file=V.0000000090
(PID.TID 0000.0001)  MDS_WRITE_FIELD: it,rec,kS,kL,kH=      90     1  15   1  15 file=T.0000000090
(PID.TID 0000.0001)  MDS_WRITE_FIELD: it,rec,kS,kL,kH=      90     1  15   1  15 file=S.0000000090
(PID.TID 0000.0001)  MDS_WRITE_FIELD: it,rec,kS,kL,kH=      90     1   1   1   1 file=Eta.0000000090
(PID.TID 0000.0001)  MDS_WRITE_FIELD: it,rec,kS,kL,kH=      90     1  15   1  15 file=W.0000000090
(PID.TID 0000.0001)  MDS_WRITE_FIELD: it,rec,kS,kL,kH=      90     1  15   1  15 file=PH.0000000090
(PID.TID 0000.0001)  MDS_WRITE_FIELD: it,rec,kS,kL,kH=      90     1   1   1   1 file=PHL.0000000090
(PID.TID 0000.0001)  MDS_WRITE_FIELD: it,rec,kS,kL,kH=      90     1   1   1   1 file=ETAtave.0000000090
(PID.TID 0000.0001)  MDS_WRITE_FIELD: it,rec,kS,kL,kH=      90     1  15   1  15 file=Ttave.0000000090
(PID.TID 0000.0001)  MDS_WRITE_FIELD: it,rec,kS,kL,kH=      90     1  15   1  15 file=Stave.0000000090
(PID.TID 0000.0001)  MDS_WRITE_FIELD: it,rec,kS,kL,kH=      90     1  15   1  15 file=uVeltave.0000000090
(PID.TID 0000.0001)  MDS_WRITE_FIELD: it,rec,kS,kL,kH=      90     1  15   1  15 file=vVeltave.0000000090
(PID.TID 0000.0001)  MDS_WRITE_FIELD: it,rec,kS,kL,kH=      90     1  15   1  15 file=wVeltave.0000000090
(PID.TID 0000.0001)  MDS_WRITE_FIELD: it,rec,kS,kL,kH=      90     1   1   1   1 file=Eta2tave.0000000090
(PID.TID 0000.0001)  MDS_WRITE_FIELD: it,rec,kS,kL,kH=      90     1  15   1  15 file=UTtave.0000000090
(PID.TID 0000.0001)  MDS_WRITE_FIELD: it,rec,kS,kL,kH=      90     1  15   1  15 file=VTtave.0000000090
(PID.TID 0000.0001)  MDS_WRITE_FIELD: it,rec,kS,kL,kH=      90     1  15   1  15 file=WTtave.0000000090
(PID.TID 0000.0001)  MDS_WRITE_FIELD: it,rec,kS,kL,kH=      90     1  15   1  15 file=UStave.0000000090
(PID.TID 0000.0001)  MDS_WRITE_FIELD: it,rec,kS,kL,kH=      90     1  15   1  15 file=VStave.0000000090
(PID.TID 0000.0001)  MDS_WRITE_FIELD: it,rec,kS,kL,kH=      90     1  15   1  15 file=WStave.0000000090
(PID.TID 0000.0001)  MDS_WRITE_FIELD: it,rec,kS,kL,kH=      90     1  15   1  15 file=TTtave.0000000090
(PID.TID 0000.0001)  MDS_WRITE_FIELD: it,rec,kS,kL,kH=      90     1  15   1  15 file=UUtave.0000000090
(PID.TID 0000.0001)  MDS_WRITE_FIELD: it,rec,kS,kL,kH=      90     1  15   1  15 file=VVtave.0000000090
(PID.TID 0000.0001)  MDS_WRITE_FIELD: it,rec,kS,kL,kH=      90     1  15   1  15 file=UVtave.0000000090
(PID.TID 0000.0001)  MDS_WRITE_FIELD: it,rec,kS,kL,kH=      90     1  15   1  15 file=Tdiftave.0000000090
(PID.TID 0000.0001)  MDS_WRITE_FIELD: it,rec,kS,kL,kH=      90     1  15   1  15 file=PhHytave.0000000090
(PID.TID 0000.0001)  MDS_WRITE_FIELD: it,rec,kS,kL,kH=      90     1   1   1   1 file=PHLtave.0000000090
(PID.TID 0000.0001)  MDS_WRITE_FIELD: it,rec,kS,kL,kH=      90     1   1   1   1 file=uFluxtave.0000000090
(PID.TID 0000.0001)  MDS_WRITE_FIELD: it,rec,kS,kL,kH=      90     1   1   1   1 file=vFluxtave.0000000090
(PID.TID 0000.0001)  MDS_WRITE_FIELD: it,rec,kS,kL,kH=      90     1   1   1   1 file=tFluxtave.0000000090
(PID.TID 0000.0001)  MDS_WRITE_FIELD: it,rec,kS,kL,kH=      90     1   1   1   1 file=sFluxtave.0000000090
(PID.TID 0000.0001)  MDS_WRITE_FIELD: it,rec,kS,kL,kH=      90     1   1   1   1 file=PHL2tave.0000000090
(PID.TID 0000.0001)  MDS_WRITE_FIELD: it,rec,kS,kL,kH=      90     1  15   1  15 file=Convtave.0000000090
(PID.TID 0000.0001) // Time-average data written, t-step        90
(PID.TID 0000.0001) 
(PID.TID 0000.0001)  MDS_WRITE_FIELD: it,rec,kS,kL,kH=      90     1  15   1  15 file=GM_Kwx-T.0000000090
(PID.TID 0000.0001)  MDS_WRITE_FIELD: it,rec,kS,kL,kH=      90     1  15   1  15 file=GM_Kwy-T.0000000090
(PID.TID 0000.0001)  MDS_WRITE_FIELD: it,rec,kS,kL,kH=      90     1  15   1  15 file=GM_Kwz-T.0000000090
(PID.TID 0000.0001)  MDS_WRITE_FIELD: it,rec,kS,kL,kH=      90     1  15   1  15 file=pickup_cd.0000000090
(PID.TID 0000.0001)  MDS_WRITE_FIELD: it,rec,kS,kL,kH=      90     2  15   1  15 file=pickup_cd.0000000090
(PID.TID 0000.0001)  MDS_WRITE_FIELD: it,rec,kS,kL,kH=      90     3  15   1  15 file=pickup_cd.0000000090
(PID.TID 0000.0001)  MDS_WRITE_FIELD: it,rec,kS,kL,kH=      90     4  15   1  15 file=pickup_cd.0000000090
(PID.TID 0000.0001)  MDS_WRITE_FIELD: it,rec,kS,kL,kH=      90    61   1   1   1 file=pickup_cd.0000000090
(PID.TID 0000.0001)  MDS_WRITE_FIELD: it,rec,kS,kL,kH=      90    -1  15   1  15 file=pickup.0000000090
(PID.TID 0000.0001)  MDS_WRITE_FIELD: it,rec,kS,kL,kH=      90    -2  15   1  15 file=pickup.0000000090
(PID.TID 0000.0001)  MDS_WRITE_FIELD: it,rec,kS,kL,kH=      90    -3  15   1  15 file=pickup.0000000090
(PID.TID 0000.0001)  MDS_WRITE_FIELD: it,rec,kS,kL,kH=      90    -4  15   1  15 file=pickup.0000000090
(PID.TID 0000.0001)  MDS_WRITE_FIELD: it,rec,kS,kL,kH=      90    -5  15   1  15 file=pickup.0000000090
(PID.TID 0000.0001)  MDS_WRITE_FIELD: it,rec,kS,kL,kH=      90    -6  15   1  15 file=pickup.0000000090
(PID.TID 0000.0001)  MDS_WRITE_FIELD: it,rec,kS,kL,kH=      90    -7  15   1  15 file=pickup.0000000090
(PID.TID 0000.0001)  MDS_WRITE_FIELD: it,rec,kS,kL,kH=      90    -8  15   1  15 file=pickup.0000000090
(PID.TID 0000.0001)  MDS_WRITE_FIELD: it,rec,kS,kL,kH=      90  -121   1   1   1 file=pickup.0000000090
(PID.TID 0000.0001)  MDS_WRITE_FIELD: it,rec,kS,kL,kH=      90  -122   1   1   1 file=pickup.0000000090
(PID.TID 0000.0001)  MDS_WRITE_FIELD: it,rec,kS,kL,kH=      90  -123   1   1   1 file=pickup.0000000090
(PID.TID 0000.0001) %CHECKPOINT        90 0000000090
 EXTERNAL_FIELDS_LOAD,        90 : iP,iLd,i0,i1=    3    4    3    4 ; Wght=  0.5000000000  0.5000000000
 EXTERNAL_FIELDS_LOAD: (fu0,1),fu,fv= -2.7199E-02 -3.7252E-02 -3.2225E-02 -1.7897E-02
 EXTERNAL_FIELDS_LOAD: SST,SSS,Q,E-P= -7.4284E-02  3.4574E+01  1.5975E+02  8.4249E-06
DEBUG_STATS_RL:          Uvel (THERMODYNAMICS)  min= -1.45690970757769E-01
DEBUG_STATS_RL:          Uvel (THERMODYNAMICS)  max=  1.44002316587263E-01
DEBUG_STATS_RL:          Uvel (THERMODYNAMICS) mean=  5.59639901360996E-03
DEBUG_STATS_RL:          Uvel (THERMODYNAMICS) S.D.=  2.48551519840304E-02
DEBUG_STATS_RL:          Vvel (THERMODYNAMICS)  min= -1.13235393590275E-01
DEBUG_STATS_RL:          Vvel (THERMODYNAMICS)  max=  1.61296422968663E-01
DEBUG_STATS_RL:          Vvel (THERMODYNAMICS) mean=  1.09249501455842E-03
DEBUG_STATS_RL:          Vvel (THERMODYNAMICS) S.D.=  1.49496540484500E-02
DEBUG_STATS_RL:          Wvel (THERMODYNAMICS)  min= -8.92196591800655E-05
DEBUG_STATS_RL:          Wvel (THERMODYNAMICS)  max=  1.87462831039496E-04
DEBUG_STATS_RL:          Wvel (THERMODYNAMICS) mean=  5.60885571415818E-09
DEBUG_STATS_RL:          Wvel (THERMODYNAMICS) S.D.=  1.18297180571735E-05
DEBUG_STATS_RL:         Theta (THERMODYNAMICS)  min= -1.93319046693451E+00
DEBUG_STATS_RL:         Theta (THERMODYNAMICS)  max=  3.12274789404741E+01
DEBUG_STATS_RL:         Theta (THERMODYNAMICS) mean=  3.25016351282420E+00
DEBUG_STATS_RL:         Theta (THERMODYNAMICS) S.D.=  5.88915875729212E+00
DEBUG_STATS_RL:          Salt (THERMODYNAMICS)  min=  3.00000000000000E-02
DEBUG_STATS_RL:          Salt (THERMODYNAMICS)  max=  3.74968832683506E+01
DEBUG_STATS_RL:          Salt (THERMODYNAMICS) mean=  1.88747607009631E+01
DEBUG_STATS_RL:          Salt (THERMODYNAMICS) S.D.=  1.73003182573704E+01
DEBUG_STATS_RL:         GtNm1 (THERMODYNAMICS)  min= -2.47074981891462E-06
DEBUG_STATS_RL:         GtNm1 (THERMODYNAMICS)  max=  2.49844298780981E-06
DEBUG_STATS_RL:         GtNm1 (THERMODYNAMICS) mean= -9.78774919756052E-10
DEBUG_STATS_RL:         GtNm1 (THERMODYNAMICS) S.D.=  1.58222090406959E-07
DEBUG_STATS_RL:         GsNm1 (THERMODYNAMICS)  min= -4.08218529775004E-07
DEBUG_STATS_RL:         GsNm1 (THERMODYNAMICS)  max=  4.20880350082550E-07
DEBUG_STATS_RL:         GsNm1 (THERMODYNAMICS) mean= -2.62276052708469E-10
DEBUG_STATS_RL:         GsNm1 (THERMODYNAMICS) S.D.=  1.56928641535482E-08
DEBUG_STATS_RL:                EtaN (DYNAMICS)  min= -2.07895491825378E+00
DEBUG_STATS_RL:                EtaN (DYNAMICS)  max=  8.58536026306077E-01
DEBUG_STATS_RL:                EtaN (DYNAMICS) mean= -1.89649295037884E-01
DEBUG_STATS_RL:                EtaN (DYNAMICS) S.D.=  7.19748049443516E-01
DEBUG_STATS_RL:                Uvel (DYNAMICS)  min= -1.45690970757769E-01
DEBUG_STATS_RL:                Uvel (DYNAMICS)  max=  1.44002316587263E-01
DEBUG_STATS_RL:                Uvel (DYNAMICS) mean=  5.59639901360996E-03
DEBUG_STATS_RL:                Uvel (DYNAMICS) S.D.=  2.48551519840304E-02
DEBUG_STATS_RL:                Vvel (DYNAMICS)  min= -1.13235393590275E-01
DEBUG_STATS_RL:                Vvel (DYNAMICS)  max=  1.61296422968663E-01
DEBUG_STATS_RL:                Vvel (DYNAMICS) mean=  1.09249501455842E-03
DEBUG_STATS_RL:                Vvel (DYNAMICS) S.D.=  1.49496540484500E-02
DEBUG_STATS_RL:                Wvel (DYNAMICS)  min= -8.92196591800655E-05
DEBUG_STATS_RL:                Wvel (DYNAMICS)  max=  1.87462831039496E-04
DEBUG_STATS_RL:                Wvel (DYNAMICS) mean=  5.60885571415818E-09
DEBUG_STATS_RL:                Wvel (DYNAMICS) S.D.=  1.18297180571735E-05
DEBUG_STATS_RL:               Theta (DYNAMICS)  min= -1.93319046693451E+00
DEBUG_STATS_RL:               Theta (DYNAMICS)  max=  3.12274789404741E+01
DEBUG_STATS_RL:               Theta (DYNAMICS) mean=  3.25016351282420E+00
DEBUG_STATS_RL:               Theta (DYNAMICS) S.D.=  5.88915875729212E+00
DEBUG_STATS_RL:                Salt (DYNAMICS)  min=  3.00000000000000E-02
DEBUG_STATS_RL:                Salt (DYNAMICS)  max=  3.74968832683506E+01
DEBUG_STATS_RL:                Salt (DYNAMICS) mean=  1.88747607009631E+01
DEBUG_STATS_RL:                Salt (DYNAMICS) S.D.=  1.73003182573704E+01
DEBUG_STATS_RL:                  Gu (DYNAMICS)  min= -1.44802781223494E-01
DEBUG_STATS_RL:                  Gu (DYNAMICS)  max=  1.32860810211413E-01
DEBUG_STATS_RL:                  Gu (DYNAMICS) mean=  5.52563272369052E-03
DEBUG_STATS_RL:                  Gu (DYNAMICS) S.D.=  2.51078597833794E-02
DEBUG_STATS_RL:                  Gv (DYNAMICS)  min= -1.10563156428231E-01
DEBUG_STATS_RL:                  Gv (DYNAMICS)  max=  1.61170415334980E-01
DEBUG_STATS_RL:                  Gv (DYNAMICS) mean=  3.46776783384976E-03
DEBUG_STATS_RL:                  Gv (DYNAMICS) S.D.=  1.63879625883867E-02
DEBUG_STATS_RL:               GuNm1 (DYNAMICS)  min= -1.05622643671657E-05
DEBUG_STATS_RL:               GuNm1 (DYNAMICS)  max=  9.98960124603298E-06
DEBUG_STATS_RL:               GuNm1 (DYNAMICS) mean=  1.80553600095361E-08
DEBUG_STATS_RL:               GuNm1 (DYNAMICS) S.D.=  1.24304313929617E-06
DEBUG_STATS_RL:               GvNm1 (DYNAMICS)  min= -9.27813015138631E-06
DEBUG_STATS_RL:               GvNm1 (DYNAMICS)  max=  1.51384378548063E-05
DEBUG_STATS_RL:               GvNm1 (DYNAMICS) mean=  7.40718734179130E-07
DEBUG_STATS_RL:               GvNm1 (DYNAMICS) S.D.=  2.61926509284731E-06
DEBUG_STATS_RL:               GtNm1 (DYNAMICS)  min= -2.47074981891462E-06
DEBUG_STATS_RL:               GtNm1 (DYNAMICS)  max=  2.49844298780981E-06
DEBUG_STATS_RL:               GtNm1 (DYNAMICS) mean= -9.78774919756052E-10
DEBUG_STATS_RL:               GtNm1 (DYNAMICS) S.D.=  1.58222090406959E-07
DEBUG_STATS_RL:               GsNm1 (DYNAMICS)  min= -4.08218529775004E-07
DEBUG_STATS_RL:               GsNm1 (DYNAMICS)  max=  4.20880350082550E-07
DEBUG_STATS_RL:               GsNm1 (DYNAMICS) mean= -2.62276052708469E-10
DEBUG_STATS_RL:               GsNm1 (DYNAMICS) S.D.=  1.56928641535482E-08
DEBUG_STATS_RL:    cg2d_b (SOLVE_FOR_PRESSURE)  min= -3.30520574848936E+04
DEBUG_STATS_RL:    cg2d_b (SOLVE_FOR_PRESSURE)  max=  3.43299336777319E+04
DEBUG_STATS_RL:    cg2d_b (SOLVE_FOR_PRESSURE) mean=  5.55116176968317E+00
DEBUG_STATS_RL:    cg2d_b (SOLVE_FOR_PRESSURE) S.D.=  4.18963797066368E+03
 cg2d: Sum(rhs),rhsMax =   3.74336275084425E-01  2.25488195980054E+00
(PID.TID 0000.0001)  cg2d: iter=     1 ; resid.=  1.53719731812887E-01
(PID.TID 0000.0001)  cg2d: iter=     2 ; resid.=  1.48213955067108E-01
(PID.TID 0000.0001)  cg2d: iter=     3 ; resid.=  1.48246897203459E-01
(PID.TID 0000.0001)  cg2d: iter=     4 ; resid.=  1.33388338700146E-01
(PID.TID 0000.0001)  cg2d: iter=     5 ; resid.=  1.27191060046663E-01
(PID.TID 0000.0001)  cg2d: iter=     6 ; resid.=  1.11725738531472E-01
(PID.TID 0000.0001)  cg2d: iter=     7 ; resid.=  8.30791504400026E-02
(PID.TID 0000.0001)  cg2d: iter=     8 ; resid.=  6.01748163764310E-02
(PID.TID 0000.0001)  cg2d: iter=     9 ; resid.=  4.52886001799846E-02
(PID.TID 0000.0001)  cg2d: iter=    10 ; resid.=  3.68049533794989E-02
(PID.TID 0000.0001)  cg2d: iter=    11 ; resid.=  3.17923377701055E-02
(PID.TID 0000.0001)  cg2d: iter=    12 ; resid.=  2.64540751319181E-02
(PID.TID 0000.0001)  cg2d: iter=    13 ; resid.=  2.22942740357230E-02
(PID.TID 0000.0001)  cg2d: iter=    14 ; resid.=  1.86753302867547E-02
(PID.TID 0000.0001)  cg2d: iter=    15 ; resid.=  1.54410464015333E-02
(PID.TID 0000.0001)  cg2d: iter=    16 ; resid.=  1.46897192320854E-02
(PID.TID 0000.0001)  cg2d: iter=    17 ; resid.=  1.29174893517803E-02
(PID.TID 0000.0001)  cg2d: iter=    18 ; resid.=  1.04447333163118E-02
(PID.TID 0000.0001)  cg2d: iter=    19 ; resid.=  8.46029986628010E-03
(PID.TID 0000.0001)  cg2d: iter=    20 ; resid.=  6.58174482421297E-03
(PID.TID 0000.0001)  cg2d: iter=    21 ; resid.=  5.43620557221980E-03
(PID.TID 0000.0001)  cg2d: iter=    22 ; resid.=  4.95033022556279E-03
(PID.TID 0000.0001)  cg2d: iter=    23 ; resid.=  3.92495028808922E-03
(PID.TID 0000.0001)  cg2d: iter=    24 ; resid.=  3.52400710760730E-03
(PID.TID 0000.0001)  cg2d: iter=    25 ; resid.=  2.64978765301529E-03
(PID.TID 0000.0001)  cg2d: iter=    26 ; resid.=  2.05850447663106E-03
(PID.TID 0000.0001)  cg2d: iter=    27 ; resid.=  1.68253869143021E-03
(PID.TID 0000.0001)  cg2d: iter=    28 ; resid.=  1.37631368223256E-03
(PID.TID 0000.0001)  cg2d: iter=    29 ; resid.=  1.10173287949675E-03
(PID.TID 0000.0001)  cg2d: iter=    30 ; resid.=  9.45333493852932E-04
(PID.TID 0000.0001)  cg2d: iter=    31 ; resid.=  7.88216027619298E-04
(PID.TID 0000.0001)  cg2d: iter=    32 ; resid.=  5.67100948010243E-04
(PID.TID 0000.0001)  cg2d: iter=    33 ; resid.=  4.52251940740269E-04
(PID.TID 0000.0001)  cg2d: iter=    34 ; resid.=  4.31191959290691E-04
(PID.TID 0000.0001)  cg2d: iter=    35 ; resid.=  3.48187722956009E-04
(PID.TID 0000.0001)  cg2d: iter=    36 ; resid.=  2.93144334661618E-04
(PID.TID 0000.0001)  cg2d: iter=    37 ; resid.=  2.63029785565926E-04
(PID.TID 0000.0001)  cg2d: iter=    38 ; resid.=  2.18558081679241E-04
(PID.TID 0000.0001)  cg2d: iter=    39 ; resid.=  1.89779669574823E-04
(PID.TID 0000.0001)  cg2d: iter=    40 ; resid.=  1.61406092444286E-04
(PID.TID 0000.0001)  cg2d: iter=    41 ; resid.=  1.35566068530453E-04
(PID.TID 0000.0001)  cg2d: iter=    42 ; resid.=  1.14443041158372E-04
(PID.TID 0000.0001)  cg2d: iter=    43 ; resid.=  9.57088150912612E-05
(PID.TID 0000.0001)  cg2d: iter=    44 ; resid.=  7.58082347990631E-05
(PID.TID 0000.0001)  cg2d: iter=    45 ; resid.=  6.34730552009823E-05
(PID.TID 0000.0001)  cg2d: iter=    46 ; resid.=  4.95520894840491E-05
(PID.TID 0000.0001)  cg2d: iter=    47 ; resid.=  4.19348309282522E-05
(PID.TID 0000.0001)  cg2d: iter=    48 ; resid.=  3.91420376466751E-05
(PID.TID 0000.0001)  cg2d: iter=    49 ; resid.=  3.46042340886509E-05
(PID.TID 0000.0001)  cg2d: iter=    50 ; resid.=  2.84563916099238E-05
(PID.TID 0000.0001)  cg2d: iter=    51 ; resid.=  2.52988107687893E-05
(PID.TID 0000.0001)  cg2d: iter=    52 ; resid.=  2.10971781259973E-05
(PID.TID 0000.0001)  cg2d: iter=    53 ; resid.=  1.74006867682104E-05
(PID.TID 0000.0001)  cg2d: iter=    54 ; resid.=  1.27045470575049E-05
(PID.TID 0000.0001)  cg2d: iter=    55 ; resid.=  1.07595542522991E-05
(PID.TID 0000.0001)  cg2d: iter=    56 ; resid.=  1.02751268767694E-05
(PID.TID 0000.0001)  cg2d: iter=    57 ; resid.=  8.57658438775549E-06
(PID.TID 0000.0001)  cg2d: iter=    58 ; resid.=  6.70241701660108E-06
(PID.TID 0000.0001)  cg2d: iter=    59 ; resid.=  5.38964970444371E-06
(PID.TID 0000.0001)  cg2d: iter=    60 ; resid.=  4.41396292227869E-06
(PID.TID 0000.0001)  cg2d: iter=    61 ; resid.=  3.60846847082794E-06
(PID.TID 0000.0001)  cg2d: iter=    62 ; resid.=  3.10998632173618E-06
(PID.TID 0000.0001)  cg2d: iter=    63 ; resid.=  2.65994422721961E-06
(PID.TID 0000.0001)  cg2d: iter=    64 ; resid.=  2.14814157575413E-06
(PID.TID 0000.0001)  cg2d: iter=    65 ; resid.=  1.67399754509374E-06
(PID.TID 0000.0001)  cg2d: iter=    66 ; resid.=  1.32460509449280E-06
(PID.TID 0000.0001)  cg2d: iter=    67 ; resid.=  1.09290351976434E-06
(PID.TID 0000.0001)  cg2d: iter=    68 ; resid.=  9.22233183437268E-07
(PID.TID 0000.0001)  cg2d: iter=    69 ; resid.=  7.77538932339707E-07
(PID.TID 0000.0001)  cg2d: iter=    70 ; resid.=  6.41981639500281E-07
(PID.TID 0000.0001)  cg2d: iter=    71 ; resid.=  5.51970191996334E-07
(PID.TID 0000.0001)  cg2d: iter=    72 ; resid.=  5.12450000099849E-07
(PID.TID 0000.0001)  cg2d: iter=    73 ; resid.=  4.42837654524606E-07
(PID.TID 0000.0001)  cg2d: iter=    74 ; resid.=  3.72450866398486E-07
(PID.TID 0000.0001)  cg2d: iter=    75 ; resid.=  3.02851575602492E-07
(PID.TID 0000.0001)  cg2d: iter=    76 ; resid.=  2.28963370135413E-07
(PID.TID 0000.0001)  cg2d: iter=    77 ; resid.=  1.88467926473393E-07
(PID.TID 0000.0001)  cg2d: iter=    78 ; resid.=  1.56942634821394E-07
(PID.TID 0000.0001)  cg2d: iter=    79 ; resid.=  1.25875303018902E-07
(PID.TID 0000.0001)  cg2d: iter=    80 ; resid.=  9.90497592278559E-08
(PID.TID 0000.0001)  cg2d: iter=    81 ; resid.=  7.53334130609752E-08
(PID.TID 0000.0001)  cg2d: iter=    82 ; resid.=  5.32461381718898E-08
(PID.TID 0000.0001)  cg2d: iter=    83 ; resid.=  4.01853420326035E-08
(PID.TID 0000.0001)  cg2d: iter=    84 ; resid.=  2.92495441005597E-08
(PID.TID 0000.0001)  cg2d: iter=    85 ; resid.=  2.20001575161598E-08
(PID.TID 0000.0001)  cg2d: iter=    86 ; resid.=  1.73972806456645E-08
(PID.TID 0000.0001)  cg2d: iter=    87 ; resid.=  1.44459075930015E-08
(PID.TID 0000.0001)  cg2d: iter=    88 ; resid.=  1.18426821111163E-08
(PID.TID 0000.0001)  cg2d: iter=    89 ; resid.=  1.00923337050601E-08
(PID.TID 0000.0001)  cg2d: iter=    90 ; resid.=  8.01662207452271E-09
(PID.TID 0000.0001)  cg2d: iter=    91 ; resid.=  5.91567629082700E-09
(PID.TID 0000.0001)  cg2d: iter=    92 ; resid.=  4.35300904236338E-09
(PID.TID 0000.0001)  cg2d: iter=    93 ; resid.=  3.20377970954213E-09
(PID.TID 0000.0001)  cg2d: iter=    94 ; resid.=  2.60466406711031E-09
(PID.TID 0000.0001)  cg2d: iter=    95 ; resid.=  2.27609093780618E-09
(PID.TID 0000.0001)  cg2d: iter=    96 ; resid.=  1.71382999143491E-09
(PID.TID 0000.0001)  cg2d: iter=    97 ; resid.=  1.31433216914022E-09
(PID.TID 0000.0001)  cg2d: iter=    98 ; resid.=  1.06822841759491E-09
(PID.TID 0000.0001)  cg2d: iter=    99 ; resid.=  9.56181084956379E-10
(PID.TID 0000.0001)  cg2d: iter=   100 ; resid.=  8.83197912279900E-10
(PID.TID 0000.0001)  cg2d: iter=   101 ; resid.=  7.29200685256036E-10
(PID.TID 0000.0001)  cg2d: iter=   102 ; resid.=  5.80296475784295E-10
(PID.TID 0000.0001)  cg2d: iter=   103 ; resid.=  4.71106473746352E-10
(PID.TID 0000.0001)  cg2d: iter=   104 ; resid.=  3.76689966004122E-10
(PID.TID 0000.0001)  cg2d: iter=   105 ; resid.=  2.94814072070822E-10
(PID.TID 0000.0001)  cg2d: iter=   106 ; resid.=  2.32517240278874E-10
(PID.TID 0000.0001)  cg2d: iter=   107 ; resid.=  1.78340334094015E-10
(PID.TID 0000.0001)  cg2d: iter=   108 ; resid.=  1.28886855288862E-10
(PID.TID 0000.0001)  cg2d: iter=   109 ; resid.=  9.58821396093437E-11
(PID.TID 0000.0001)  cg2d: iter=   110 ; resid.=  7.74743479708915E-11
(PID.TID 0000.0001)  cg2d: iter=   111 ; resid.=  5.99405980042724E-11
(PID.TID 0000.0001)  cg2d: iter=   112 ; resid.=  4.44269130358700E-11
(PID.TID 0000.0001)  cg2d: iter=   113 ; resid.=  3.34247394834129E-11
(PID.TID 0000.0001)  cg2d: iter=   114 ; resid.=  2.67518357361540E-11
(PID.TID 0000.0001)  cg2d: iter=   115 ; resid.=  2.15710037713090E-11
(PID.TID 0000.0001)  cg2d: iter=   116 ; resid.=  1.68242481486835E-11
(PID.TID 0000.0001)  cg2d: iter=   117 ; resid.=  1.26157103272304E-11
(PID.TID 0000.0001)  cg2d: iter=   118 ; resid.=  9.13634309980302E-12
(PID.TID 0000.0001)  cg2d: iter=   119 ; resid.=  6.15159261137903E-12
(PID.TID 0000.0001)  cg2d: iter=   120 ; resid.=  4.98786193690834E-12
(PID.TID 0000.0001)  cg2d: iter=   121 ; resid.=  3.96164642960923E-12
(PID.TID 0000.0001)  cg2d: iter=   122 ; resid.=  2.92514481186083E-12
(PID.TID 0000.0001)  cg2d: iter=   123 ; resid.=  2.23796594431642E-12
(PID.TID 0000.0001)  cg2d: iter=   124 ; resid.=  1.60276846827748E-12
(PID.TID 0000.0001)  cg2d: iter=   125 ; resid.=  1.08751516710375E-12
(PID.TID 0000.0001)  cg2d: iter=   126 ; resid.=  7.50217880095663E-13
(PID.TID 0000.0001)  cg2d: iter=   127 ; resid.=  4.91216983538799E-13
(PID.TID 0000.0001)  cg2d: iter=   128 ; resid.=  3.83906834950094E-13
(PID.TID 0000.0001)  cg2d: iter=   129 ; resid.=  2.87107034799968E-13
(PID.TID 0000.0001)  cg2d: iter=   130 ; resid.=  2.25235138401745E-13
(PID.TID 0000.0001)  cg2d: iter=   131 ; resid.=  1.66066607745093E-13
(PID.TID 0000.0001)  cg2d: iter=   132 ; resid.=  1.23528889605591E-13
(PID.TID 0000.0001)  cg2d: iter=   133 ; resid.=  9.25905073229816E-14
DEBUG_STATS_RL:    cg2d_x (SOLVE_FOR_PRESSURE)  min= -1.99980604982287E+01
DEBUG_STATS_RL:    cg2d_x (SOLVE_FOR_PRESSURE)  max=  7.96942372930707E+00
DEBUG_STATS_RL:    cg2d_x (SOLVE_FOR_PRESSURE) mean= -1.82452526192558E+00
DEBUG_STATS_RL:    cg2d_x (SOLVE_FOR_PRESSURE) S.D.=  6.92694845897309E+00
(PID.TID 0000.0001)      cg2d_init_res =   2.60280081987215E-01
(PID.TID 0000.0001)      cg2d_iters(min,last) =      -1     133
(PID.TID 0000.0001)      cg2d_last_res =   9.25905073229816E-14
(PID.TID 0000.0001) // =======================================================
(PID.TID 0000.0001) // Begin MONITOR dynamic field statistics
(PID.TID 0000.0001) // =======================================================
(PID.TID 0000.0001) %MON time_tsnumber                =                    91
(PID.TID 0000.0001) %MON time_secondsf                =   7.8624000000000E+06
(PID.TID 0000.0001) %MON dynstat_eta_max              =   8.1237754631061E-01
(PID.TID 0000.0001) %MON dynstat_eta_min              =  -2.0385382770876E+00
(PID.TID 0000.0001) %MON dynstat_eta_mean             =  -5.7919489853288E-03
(PID.TID 0000.0001) %MON dynstat_eta_sd               =   6.0105563314077E-01
(PID.TID 0000.0001) %MON dynstat_eta_del2             =   2.6869685750739E-03
(PID.TID 0000.0001) %MON dynstat_uvel_max             =   1.4417779628230E-01
(PID.TID 0000.0001) %MON dynstat_uvel_min             =  -1.4660421376614E-01
(PID.TID 0000.0001) %MON dynstat_uvel_mean            =   1.8796255892685E-03
(PID.TID 0000.0001) %MON dynstat_uvel_sd              =   1.8302902835292E-02
(PID.TID 0000.0001) %MON dynstat_uvel_del2            =   1.5465067914427E-04
(PID.TID 0000.0001) %MON dynstat_vvel_max             =   1.5931546455437E-01
(PID.TID 0000.0001) %MON dynstat_vvel_min             =  -1.1333571122825E-01
(PID.TID 0000.0001) %MON dynstat_vvel_mean            =   1.4462411143611E-04
(PID.TID 0000.0001) %MON dynstat_vvel_sd              =   9.9292254320872E-03
(PID.TID 0000.0001) %MON dynstat_vvel_del2            =   9.2364175237047E-05
(PID.TID 0000.0001) %MON dynstat_wvel_max             =   1.6788716314262E-04
(PID.TID 0000.0001) %MON dynstat_wvel_min             =  -9.6168496669867E-05
(PID.TID 0000.0001) %MON dynstat_wvel_mean            =   2.2019445967943E-22
(PID.TID 0000.0001) %MON dynstat_wvel_sd              =   1.3523602327121E-05
(PID.TID 0000.0001) %MON dynstat_wvel_del2            =   1.2965998392198E-07
(PID.TID 0000.0001) %MON dynstat_theta_max            =   3.1227478940474E+01
(PID.TID 0000.0001) %MON dynstat_theta_min            =  -1.9331904669345E+00
(PID.TID 0000.0001) %MON dynstat_theta_mean           =   3.6541437234011E+00
(PID.TID 0000.0001) %MON dynstat_theta_sd             =   4.4289280558163E+00
(PID.TID 0000.0001) %MON dynstat_theta_del2           =   4.8644523577924E-03
(PID.TID 0000.0001) %MON dynstat_salt_max             =   3.7496883268351E+01
(PID.TID 0000.0001) %MON dynstat_salt_min             =   2.9973166622683E+01
(PID.TID 0000.0001) %MON dynstat_salt_mean            =   3.4747992144741E+01
(PID.TID 0000.0001) %MON dynstat_salt_sd              =   2.9662109518992E-01
(PID.TID 0000.0001) %MON dynstat_salt_del2            =   9.9857055519919E-04
(PID.TID 0000.0001) %MON dynstat_sst_max              =   3.1227478940474E+01
(PID.TID 0000.0001) %MON dynstat_sst_min              =  -1.9331904669345E+00
(PID.TID 0000.0001) %MON dynstat_sst_mean             =   1.9078926749822E+01
(PID.TID 0000.0001) %MON dynstat_sst_sd               =   9.2661444299192E+00
(PID.TID 0000.0001) %MON dynstat_sst_del2             =   2.9292800892688E-02
(PID.TID 0000.0001) %MON dynstat_sss_max              =   3.7496883268351E+01
(PID.TID 0000.0001) %MON dynstat_sss_min              =   2.9973166622683E+01
(PID.TID 0000.0001) %MON dynstat_sss_mean             =   3.4867920220603E+01
(PID.TID 0000.0001) %MON dynstat_sss_sd               =   9.9152610946081E-01
(PID.TID 0000.0001) %MON dynstat_sss_del2             =   8.2978441568757E-03
(PID.TID 0000.0001) %MON forcing_qnet_max             =   2.0392916870117E+02
(PID.TID 0000.0001) %MON forcing_qnet_min             =  -1.5743564605713E+02
(PID.TID 0000.0001) %MON forcing_qnet_mean            =  -1.3095195556001E+00
(PID.TID 0000.0001) %MON forcing_qnet_sd              =   3.9393235580396E+01
(PID.TID 0000.0001) %MON forcing_qnet_del2            =   7.8410744679858E-01
(PID.TID 0000.0001) %MON forcing_qsw_max              =   0.0000000000000E+00
(PID.TID 0000.0001) %MON forcing_qsw_min              =   0.0000000000000E+00
(PID.TID 0000.0001) %MON forcing_qsw_mean             =   0.0000000000000E+00
(PID.TID 0000.0001) %MON forcing_qsw_sd               =   0.0000000000000E+00
(PID.TID 0000.0001) %MON forcing_qsw_del2             =   0.0000000000000E+00
(PID.TID 0000.0001) %MON forcing_empmr_max            =   6.7666256597931E-05
(PID.TID 0000.0001) %MON forcing_empmr_min            =  -8.3487108781810E-05
(PID.TID 0000.0001) %MON forcing_empmr_mean           =   2.1403058126522E-07
(PID.TID 0000.0001) %MON forcing_empmr_sd             =   2.5565388695829E-05
(PID.TID 0000.0001) %MON forcing_empmr_del2           =   3.6396270903626E-07
(PID.TID 0000.0001) %MON forcing_fu_max               =   3.4788966178894E-01
(PID.TID 0000.0001) %MON forcing_fu_min               =  -4.0255250036716E-01
(PID.TID 0000.0001) %MON forcing_fu_mean              =   1.8548847846395E-02
(PID.TID 0000.0001) %MON forcing_fu_sd                =   1.0035271102414E-01
(PID.TID 0000.0001) %MON forcing_fu_del2              =   7.7663796698736E-04
(PID.TID 0000.0001) %MON forcing_fv_max               =   1.8186032772064E-01
(PID.TID 0000.0001) %MON forcing_fv_min               =  -1.4296149462461E-01
(PID.TID 0000.0001) %MON forcing_fv_mean              =  -6.9824253544491E-03
(PID.TID 0000.0001) %MON forcing_fv_sd                =   3.8754640563461E-02
(PID.TID 0000.0001) %MON forcing_fv_del2              =   4.1635659249550E-04
(PID.TID 0000.0001) %MON trAdv_CFL_u_max              =   5.2806200642421E-02
(PID.TID 0000.0001) %MON trAdv_CFL_v_max              =   3.1286380136118E-02
(PID.TID 0000.0001) %MON trAdv_CFL_w_max              =   4.1134747994670E-02
(PID.TID 0000.0001) %MON advcfl_uvel_max              =   5.2859813512032E-02
(PID.TID 0000.0001) %MON advcfl_vvel_max              =   3.0952439650054E-02
(PID.TID 0000.0001) %MON advcfl_wvel_max              =   4.1215292916471E-02
(PID.TID 0000.0001) %MON advcfl_W_hf_max              =   4.6638357773901E-02
(PID.TID 0000.0001) %MON pe_b_mean                    =   4.6232871660084E-04
(PID.TID 0000.0001) %MON ke_max                       =   1.2337375614032E-02
(PID.TID 0000.0001) %MON ke_mean                      =   1.9806950518564E-04
(PID.TID 0000.0001) %MON ke_vol                       =   1.3226782436723E+18
(PID.TID 0000.0001) %MON vort_r_min                   =  -4.2838322696033E-07
(PID.TID 0000.0001) %MON vort_r_max                   =   5.6866965835477E-07
(PID.TID 0000.0001) %MON vort_a_mean                  =  -2.5274807472214E-05
(PID.TID 0000.0001) %MON vort_a_sd                    =   7.3604542072198E-05
(PID.TID 0000.0001) %MON vort_p_mean                  =  -3.1845655893672E-05
(PID.TID 0000.0001) %MON vort_p_sd                    =   1.3162449860841E-04
(PID.TID 0000.0001) %MON surfExpan_theta_mean         =  -7.7984442170095E-07
(PID.TID 0000.0001) %MON surfExpan_salt_mean          =   2.3689317459760E-07
(PID.TID 0000.0001) // =======================================================
(PID.TID 0000.0001) // End MONITOR dynamic field statistics
(PID.TID 0000.0001) // =======================================================
 EXTERNAL_FIELDS_LOAD,        91 : iP,iLd,i0,i1=    3    4    3    4 ; Wght=  0.4666666667  0.5333333333
 EXTERNAL_FIELDS_LOAD: (fu0,1),fu,fv= -2.7199E-02 -3.7252E-02 -3.2561E-02 -1.9052E-02
 EXTERNAL_FIELDS_LOAD: SST,SSS,Q,E-P= -6.6976E-02  3.4574E+01  1.5604E+02  8.3812E-06
DEBUG_STATS_RL:          Uvel (THERMODYNAMICS)  min= -1.46604213766140E-01
DEBUG_STATS_RL:          Uvel (THERMODYNAMICS)  max=  1.44177796282298E-01
DEBUG_STATS_RL:          Uvel (THERMODYNAMICS) mean=  5.50770461867141E-03
DEBUG_STATS_RL:          Uvel (THERMODYNAMICS) S.D.=  2.47904519214512E-02
DEBUG_STATS_RL:          Vvel (THERMODYNAMICS)  min= -1.13335711228252E-01
DEBUG_STATS_RL:          Vvel (THERMODYNAMICS)  max=  1.59315464554372E-01
DEBUG_STATS_RL:          Vvel (THERMODYNAMICS) mean=  1.05978829411694E-03
DEBUG_STATS_RL:          Vvel (THERMODYNAMICS) S.D.=  1.48569623650558E-02
DEBUG_STATS_RL:          Wvel (THERMODYNAMICS)  min= -9.61684966698666E-05
DEBUG_STATS_RL:          Wvel (THERMODYNAMICS)  max=  1.67887163142620E-04
DEBUG_STATS_RL:          Wvel (THERMODYNAMICS) mean= -9.58579226880376E-10
DEBUG_STATS_RL:          Wvel (THERMODYNAMICS) S.D.=  1.16298649053149E-05
DEBUG_STATS_RL:         Theta (THERMODYNAMICS)  min= -1.93165332701473E+00
DEBUG_STATS_RL:         Theta (THERMODYNAMICS)  max=  3.12496371731133E+01
DEBUG_STATS_RL:         Theta (THERMODYNAMICS) mean=  3.25004855112578E+00
DEBUG_STATS_RL:         Theta (THERMODYNAMICS) S.D.=  5.88925766947732E+00
DEBUG_STATS_RL:          Salt (THERMODYNAMICS)  min=  3.00000000000000E-02
DEBUG_STATS_RL:          Salt (THERMODYNAMICS)  max=  3.74971178539010E+01
DEBUG_STATS_RL:          Salt (THERMODYNAMICS) mean=  1.88747509326913E+01
DEBUG_STATS_RL:          Salt (THERMODYNAMICS) S.D.=  1.73003099181982E+01
DEBUG_STATS_RL:         GtNm1 (THERMODYNAMICS)  min= -2.42281588112625E-06
DEBUG_STATS_RL:         GtNm1 (THERMODYNAMICS)  max=  2.25433779625854E-06
DEBUG_STATS_RL:         GtNm1 (THERMODYNAMICS) mean= -1.17047273504616E-09
DEBUG_STATS_RL:         GtNm1 (THERMODYNAMICS) S.D.=  1.54367396265993E-07
DEBUG_STATS_RL:         GsNm1 (THERMODYNAMICS)  min= -4.34619548452794E-07
DEBUG_STATS_RL:         GsNm1 (THERMODYNAMICS)  max=  4.31208755880479E-07
DEBUG_STATS_RL:         GsNm1 (THERMODYNAMICS) mean= -2.66816083240601E-10
DEBUG_STATS_RL:         GsNm1 (THERMODYNAMICS) S.D.=  1.54866644110871E-08
DEBUG_STATS_RL:                EtaN (DYNAMICS)  min= -2.03853827708759E+00
DEBUG_STATS_RL:                EtaN (DYNAMICS)  max=  8.12377546310607E-01
DEBUG_STATS_RL:                EtaN (DYNAMICS) mean= -1.85986265231967E-01
DEBUG_STATS_RL:                EtaN (DYNAMICS) S.D.=  7.06110954023763E-01
DEBUG_STATS_RL:                Uvel (DYNAMICS)  min= -1.46604213766140E-01
DEBUG_STATS_RL:                Uvel (DYNAMICS)  max=  1.44177796282298E-01
DEBUG_STATS_RL:                Uvel (DYNAMICS) mean=  5.50770461867141E-03
DEBUG_STATS_RL:                Uvel (DYNAMICS) S.D.=  2.47904519214512E-02
DEBUG_STATS_RL:                Vvel (DYNAMICS)  min= -1.13335711228252E-01
DEBUG_STATS_RL:                Vvel (DYNAMICS)  max=  1.59315464554372E-01
DEBUG_STATS_RL:                Vvel (DYNAMICS) mean=  1.05978829411694E-03
DEBUG_STATS_RL:                Vvel (DYNAMICS) S.D.=  1.48569623650558E-02
DEBUG_STATS_RL:                Wvel (DYNAMICS)  min= -9.61684966698666E-05
DEBUG_STATS_RL:                Wvel (DYNAMICS)  max=  1.67887163142620E-04
DEBUG_STATS_RL:                Wvel (DYNAMICS) mean= -9.58579226880376E-10
DEBUG_STATS_RL:                Wvel (DYNAMICS) S.D.=  1.16298649053149E-05
DEBUG_STATS_RL:               Theta (DYNAMICS)  min= -1.93165332701473E+00
DEBUG_STATS_RL:               Theta (DYNAMICS)  max=  3.12496371731133E+01
DEBUG_STATS_RL:               Theta (DYNAMICS) mean=  3.25004855112578E+00
DEBUG_STATS_RL:               Theta (DYNAMICS) S.D.=  5.88925766947732E+00
DEBUG_STATS_RL:                Salt (DYNAMICS)  min=  3.00000000000000E-02
DEBUG_STATS_RL:                Salt (DYNAMICS)  max=  3.74971178539010E+01
DEBUG_STATS_RL:                Salt (DYNAMICS) mean=  1.88747509326913E+01
DEBUG_STATS_RL:                Salt (DYNAMICS) S.D.=  1.73003099181982E+01
DEBUG_STATS_RL:                  Gu (DYNAMICS)  min= -1.45708508723428E-01
DEBUG_STATS_RL:                  Gu (DYNAMICS)  max=  1.31274454730619E-01
DEBUG_STATS_RL:                  Gu (DYNAMICS) mean=  5.43257421746346E-03
DEBUG_STATS_RL:                  Gu (DYNAMICS) S.D.=  2.50524958601102E-02
DEBUG_STATS_RL:                  Gv (DYNAMICS)  min= -1.10627385984852E-01
DEBUG_STATS_RL:                  Gv (DYNAMICS)  max=  1.59152116261584E-01
DEBUG_STATS_RL:                  Gv (DYNAMICS) mean=  3.45516755189875E-03
DEBUG_STATS_RL:                  Gv (DYNAMICS) S.D.=  1.63050463905321E-02
DEBUG_STATS_RL:               GuNm1 (DYNAMICS)  min= -1.04300027260555E-05
DEBUG_STATS_RL:               GuNm1 (DYNAMICS)  max=  1.01050293823417E-05
DEBUG_STATS_RL:               GuNm1 (DYNAMICS) mean=  1.86312448493325E-08
DEBUG_STATS_RL:               GuNm1 (DYNAMICS) S.D.=  1.24303885130248E-06
DEBUG_STATS_RL:               GvNm1 (DYNAMICS)  min= -9.27796342448102E-06
DEBUG_STATS_RL:               GvNm1 (DYNAMICS)  max=  1.50930558198278E-05
DEBUG_STATS_RL:               GvNm1 (DYNAMICS) mean=  7.41723262519592E-07
DEBUG_STATS_RL:               GvNm1 (DYNAMICS) S.D.=  2.61903302177143E-06
DEBUG_STATS_RL:               GtNm1 (DYNAMICS)  min= -2.42281588112625E-06
DEBUG_STATS_RL:               GtNm1 (DYNAMICS)  max=  2.25433779625854E-06
DEBUG_STATS_RL:               GtNm1 (DYNAMICS) mean= -1.17047273504616E-09
DEBUG_STATS_RL:               GtNm1 (DYNAMICS) S.D.=  1.54367396265993E-07
DEBUG_STATS_RL:               GsNm1 (DYNAMICS)  min= -4.34619548452794E-07
DEBUG_STATS_RL:               GsNm1 (DYNAMICS)  max=  4.31208755880479E-07
DEBUG_STATS_RL:               GsNm1 (DYNAMICS) mean= -2.66816083240601E-10
DEBUG_STATS_RL:               GsNm1 (DYNAMICS) S.D.=  1.54866644110871E-08
DEBUG_STATS_RL:    cg2d_b (SOLVE_FOR_PRESSURE)  min= -3.26090413993571E+04
DEBUG_STATS_RL:    cg2d_b (SOLVE_FOR_PRESSURE)  max=  3.44626403315072E+04
DEBUG_STATS_RL:    cg2d_b (SOLVE_FOR_PRESSURE) mean=  5.56649008911411E+00
DEBUG_STATS_RL:    cg2d_b (SOLVE_FOR_PRESSURE) S.D.=  4.18632840680084E+03
 cg2d: Sum(rhs),rhsMax =   3.73924471031223E-01  2.26359848813271E+00
(PID.TID 0000.0001)  cg2d: iter=     1 ; resid.=  1.45932291413030E-01
(PID.TID 0000.0001)  cg2d: iter=     2 ; resid.=  1.35913356953179E-01
(PID.TID 0000.0001)  cg2d: iter=     3 ; resid.=  1.35007322586206E-01
(PID.TID 0000.0001)  cg2d: iter=     4 ; resid.=  1.21040705922619E-01
(PID.TID 0000.0001)  cg2d: iter=     5 ; resid.=  1.13833501796259E-01
(PID.TID 0000.0001)  cg2d: iter=     6 ; resid.=  1.01757301340172E-01
(PID.TID 0000.0001)  cg2d: iter=     7 ; resid.=  7.68306369135937E-02
(PID.TID 0000.0001)  cg2d: iter=     8 ; resid.=  5.69501781526781E-02
(PID.TID 0000.0001)  cg2d: iter=     9 ; resid.=  4.38915929432912E-02
(PID.TID 0000.0001)  cg2d: iter=    10 ; resid.=  3.58475922107388E-02
(PID.TID 0000.0001)  cg2d: iter=    11 ; resid.=  3.10990284239129E-02
(PID.TID 0000.0001)  cg2d: iter=    12 ; resid.=  2.51675655146911E-02
(PID.TID 0000.0001)  cg2d: iter=    13 ; resid.=  2.08338798336063E-02
(PID.TID 0000.0001)  cg2d: iter=    14 ; resid.=  1.72969594351834E-02
(PID.TID 0000.0001)  cg2d: iter=    15 ; resid.=  1.43904950284699E-02
(PID.TID 0000.0001)  cg2d: iter=    16 ; resid.=  1.37194361618507E-02
(PID.TID 0000.0001)  cg2d: iter=    17 ; resid.=  1.22113871461664E-02
(PID.TID 0000.0001)  cg2d: iter=    18 ; resid.=  9.97874181421272E-03
(PID.TID 0000.0001)  cg2d: iter=    19 ; resid.=  8.22949938215217E-03
(PID.TID 0000.0001)  cg2d: iter=    20 ; resid.=  6.27655097785906E-03
(PID.TID 0000.0001)  cg2d: iter=    21 ; resid.=  5.24174528876279E-03
(PID.TID 0000.0001)  cg2d: iter=    22 ; resid.=  4.69889889335349E-03
(PID.TID 0000.0001)  cg2d: iter=    23 ; resid.=  3.68339272378897E-03
(PID.TID 0000.0001)  cg2d: iter=    24 ; resid.=  3.27892715244216E-03
(PID.TID 0000.0001)  cg2d: iter=    25 ; resid.=  2.49737881800839E-03
(PID.TID 0000.0001)  cg2d: iter=    26 ; resid.=  1.97513993604166E-03
(PID.TID 0000.0001)  cg2d: iter=    27 ; resid.=  1.63385768118003E-03
(PID.TID 0000.0001)  cg2d: iter=    28 ; resid.=  1.35598597013114E-03
(PID.TID 0000.0001)  cg2d: iter=    29 ; resid.=  1.07993416930247E-03
(PID.TID 0000.0001)  cg2d: iter=    30 ; resid.=  9.22411500373129E-04
(PID.TID 0000.0001)  cg2d: iter=    31 ; resid.=  7.72134928115489E-04
(PID.TID 0000.0001)  cg2d: iter=    32 ; resid.=  5.54933325285584E-04
(PID.TID 0000.0001)  cg2d: iter=    33 ; resid.=  4.48249277866743E-04
(PID.TID 0000.0001)  cg2d: iter=    34 ; resid.=  4.25497616181396E-04
(PID.TID 0000.0001)  cg2d: iter=    35 ; resid.=  3.38683997144011E-04
(PID.TID 0000.0001)  cg2d: iter=    36 ; resid.=  2.89857248860186E-04
(PID.TID 0000.0001)  cg2d: iter=    37 ; resid.=  2.60079999144538E-04
(PID.TID 0000.0001)  cg2d: iter=    38 ; resid.=  2.18907304171526E-04
(PID.TID 0000.0001)  cg2d: iter=    39 ; resid.=  1.92190329711985E-04
(PID.TID 0000.0001)  cg2d: iter=    40 ; resid.=  1.64794987062424E-04
(PID.TID 0000.0001)  cg2d: iter=    41 ; resid.=  1.39683663899237E-04
(PID.TID 0000.0001)  cg2d: iter=    42 ; resid.=  1.19198631080964E-04
(PID.TID 0000.0001)  cg2d: iter=    43 ; resid.=  9.97614630250093E-05
(PID.TID 0000.0001)  cg2d: iter=    44 ; resid.=  7.86445055416731E-05
(PID.TID 0000.0001)  cg2d: iter=    45 ; resid.=  6.51833804789210E-05
(PID.TID 0000.0001)  cg2d: iter=    46 ; resid.=  5.05431715582581E-05
(PID.TID 0000.0001)  cg2d: iter=    47 ; resid.=  4.31556922364647E-05
(PID.TID 0000.0001)  cg2d: iter=    48 ; resid.=  3.99038130354155E-05
(PID.TID 0000.0001)  cg2d: iter=    49 ; resid.=  3.45010619483312E-05
(PID.TID 0000.0001)  cg2d: iter=    50 ; resid.=  2.82628470704773E-05
(PID.TID 0000.0001)  cg2d: iter=    51 ; resid.=  2.49549545194886E-05
(PID.TID 0000.0001)  cg2d: iter=    52 ; resid.=  2.06912663733097E-05
(PID.TID 0000.0001)  cg2d: iter=    53 ; resid.=  1.73457625037989E-05
(PID.TID 0000.0001)  cg2d: iter=    54 ; resid.=  1.28559094360929E-05
(PID.TID 0000.0001)  cg2d: iter=    55 ; resid.=  1.08577090030739E-05
(PID.TID 0000.0001)  cg2d: iter=    56 ; resid.=  1.01799057211482E-05
(PID.TID 0000.0001)  cg2d: iter=    57 ; resid.=  8.28827011475431E-06
(PID.TID 0000.0001)  cg2d: iter=    58 ; resid.=  6.37363489905375E-06
(PID.TID 0000.0001)  cg2d: iter=    59 ; resid.=  5.09295782075840E-06
(PID.TID 0000.0001)  cg2d: iter=    60 ; resid.=  4.22712483475052E-06
(PID.TID 0000.0001)  cg2d: iter=    61 ; resid.=  3.48910002918157E-06
(PID.TID 0000.0001)  cg2d: iter=    62 ; resid.=  3.04692293725534E-06
(PID.TID 0000.0001)  cg2d: iter=    63 ; resid.=  2.65156626086011E-06
(PID.TID 0000.0001)  cg2d: iter=    64 ; resid.=  2.14604993286157E-06
(PID.TID 0000.0001)  cg2d: iter=    65 ; resid.=  1.63409832774816E-06
(PID.TID 0000.0001)  cg2d: iter=    66 ; resid.=  1.27543675153121E-06
(PID.TID 0000.0001)  cg2d: iter=    67 ; resid.=  1.05254481917653E-06
(PID.TID 0000.0001)  cg2d: iter=    68 ; resid.=  8.54939660075587E-07
(PID.TID 0000.0001)  cg2d: iter=    69 ; resid.=  7.12855052345179E-07
(PID.TID 0000.0001)  cg2d: iter=    70 ; resid.=  5.91578142346452E-07
(PID.TID 0000.0001)  cg2d: iter=    71 ; resid.=  5.13880764194389E-07
(PID.TID 0000.0001)  cg2d: iter=    72 ; resid.=  4.80428276938846E-07
(PID.TID 0000.0001)  cg2d: iter=    73 ; resid.=  4.24011565579286E-07
(PID.TID 0000.0001)  cg2d: iter=    74 ; resid.=  3.46978536513885E-07
(PID.TID 0000.0001)  cg2d: iter=    75 ; resid.=  2.76801858448804E-07
(PID.TID 0000.0001)  cg2d: iter=    76 ; resid.=  2.12514500174713E-07
(PID.TID 0000.0001)  cg2d: iter=    77 ; resid.=  1.76992985422999E-07
(PID.TID 0000.0001)  cg2d: iter=    78 ; resid.=  1.49007785982065E-07
(PID.TID 0000.0001)  cg2d: iter=    79 ; resid.=  1.22540128791512E-07
(PID.TID 0000.0001)  cg2d: iter=    80 ; resid.=  9.62398615702509E-08
(PID.TID 0000.0001)  cg2d: iter=    81 ; resid.=  7.23739747636903E-08
(PID.TID 0000.0001)  cg2d: iter=    82 ; resid.=  5.18065618648995E-08
(PID.TID 0000.0001)  cg2d: iter=    83 ; resid.=  3.88920900661622E-08
(PID.TID 0000.0001)  cg2d: iter=    84 ; resid.=  2.79876027723492E-08
(PID.TID 0000.0001)  cg2d: iter=    85 ; resid.=  2.14478803613513E-08
(PID.TID 0000.0001)  cg2d: iter=    86 ; resid.=  1.72036109655786E-08
(PID.TID 0000.0001)  cg2d: iter=    87 ; resid.=  1.39782569791016E-08
(PID.TID 0000.0001)  cg2d: iter=    88 ; resid.=  1.11881916347222E-08
(PID.TID 0000.0001)  cg2d: iter=    89 ; resid.=  9.54509766043352E-09
(PID.TID 0000.0001)  cg2d: iter=    90 ; resid.=  7.51706580158305E-09
(PID.TID 0000.0001)  cg2d: iter=    91 ; resid.=  5.46464359950203E-09
(PID.TID 0000.0001)  cg2d: iter=    92 ; resid.=  3.99121434560541E-09
(PID.TID 0000.0001)  cg2d: iter=    93 ; resid.=  2.93938839778683E-09
(PID.TID 0000.0001)  cg2d: iter=    94 ; resid.=  2.36904373118618E-09
(PID.TID 0000.0001)  cg2d: iter=    95 ; resid.=  2.08972822855556E-09
(PID.TID 0000.0001)  cg2d: iter=    96 ; resid.=  1.56993461191062E-09
(PID.TID 0000.0001)  cg2d: iter=    97 ; resid.=  1.18547934951038E-09
(PID.TID 0000.0001)  cg2d: iter=    98 ; resid.=  9.43368394882527E-10
(PID.TID 0000.0001)  cg2d: iter=    99 ; resid.=  8.11686449213687E-10
(PID.TID 0000.0001)  cg2d: iter=   100 ; resid.=  7.41073727742230E-10
(PID.TID 0000.0001)  cg2d: iter=   101 ; resid.=  6.19651703134865E-10
(PID.TID 0000.0001)  cg2d: iter=   102 ; resid.=  5.03408040374449E-10
(PID.TID 0000.0001)  cg2d: iter=   103 ; resid.=  4.22827885605771E-10
(PID.TID 0000.0001)  cg2d: iter=   104 ; resid.=  3.42130810503949E-10
(PID.TID 0000.0001)  cg2d: iter=   105 ; resid.=  2.73444467444440E-10
(PID.TID 0000.0001)  cg2d: iter=   106 ; resid.=  2.17777969594695E-10
(PID.TID 0000.0001)  cg2d: iter=   107 ; resid.=  1.70049802530796E-10
(PID.TID 0000.0001)  cg2d: iter=   108 ; resid.=  1.26495166637953E-10
(PID.TID 0000.0001)  cg2d: iter=   109 ; resid.=  9.61205944819744E-11
(PID.TID 0000.0001)  cg2d: iter=   110 ; resid.=  7.84408120448499E-11
(PID.TID 0000.0001)  cg2d: iter=   111 ; resid.=  6.13033867319600E-11
(PID.TID 0000.0001)  cg2d: iter=   112 ; resid.=  4.53027530610682E-11
(PID.TID 0000.0001)  cg2d: iter=   113 ; resid.=  3.34837995594347E-11
(PID.TID 0000.0001)  cg2d: iter=   114 ; resid.=  2.66677353673332E-11
(PID.TID 0000.0001)  cg2d: iter=   115 ; resid.=  2.13162192080255E-11
(PID.TID 0000.0001)  cg2d: iter=   116 ; resid.=  1.64543907371485E-11
(PID.TID 0000.0001)  cg2d: iter=   117 ; resid.=  1.23958568880684E-11
(PID.TID 0000.0001)  cg2d: iter=   118 ; resid.=  9.13551835862516E-12
(PID.TID 0000.0001)  cg2d: iter=   119 ; resid.=  6.23709321293037E-12
(PID.TID 0000.0001)  cg2d: iter=   120 ; resid.=  5.12573794872920E-12
(PID.TID 0000.0001)  cg2d: iter=   121 ; resid.=  4.04982284920998E-12
(PID.TID 0000.0001)  cg2d: iter=   122 ; resid.=  3.01429051739467E-12
(PID.TID 0000.0001)  cg2d: iter=   123 ; resid.=  2.27125064870916E-12
(PID.TID 0000.0001)  cg2d: iter=   124 ; resid.=  1.61419135947725E-12
(PID.TID 0000.0001)  cg2d: iter=   125 ; resid.=  1.11745765623157E-12
(PID.TID 0000.0001)  cg2d: iter=   126 ; resid.=  7.86275548567761E-13
(PID.TID 0000.0001)  cg2d: iter=   127 ; resid.=  5.21544094541459E-13
(PID.TID 0000.0001)  cg2d: iter=   128 ; resid.=  4.02545665141971E-13
(PID.TID 0000.0001)  cg2d: iter=   129 ; resid.=  2.99600605442375E-13
(PID.TID 0000.0001)  cg2d: iter=   130 ; resid.=  2.30980553751394E-13
(PID.TID 0000.0001)  cg2d: iter=   131 ; resid.=  1.66484297622059E-13
(PID.TID 0000.0001)  cg2d: iter=   132 ; resid.=  1.24058111386440E-13
(PID.TID 0000.0001)  cg2d: iter=   133 ; resid.=  9.40342774201848E-14
DEBUG_STATS_RL:    cg2d_x (SOLVE_FOR_PRESSURE)  min= -1.95698054611663E+01
DEBUG_STATS_RL:    cg2d_x (SOLVE_FOR_PRESSURE)  max=  7.56683611924253E+00
DEBUG_STATS_RL:    cg2d_x (SOLVE_FOR_PRESSURE) mean= -1.79199984268206E+00
DEBUG_STATS_RL:    cg2d_x (SOLVE_FOR_PRESSURE) S.D.=  6.83759145650347E+00
(PID.TID 0000.0001)      cg2d_init_res =   2.55724682326670E-01
(PID.TID 0000.0001)      cg2d_iters(min,last) =      -1     133
(PID.TID 0000.0001)      cg2d_last_res =   9.40342774201848E-14
(PID.TID 0000.0001) // =======================================================
(PID.TID 0000.0001) // Begin MONITOR dynamic field statistics
(PID.TID 0000.0001) // =======================================================
(PID.TID 0000.0001) %MON time_tsnumber                =                    92
(PID.TID 0000.0001) %MON time_secondsf                =   7.9488000000000E+06
(PID.TID 0000.0001) %MON dynstat_eta_max              =   7.7133905394935E-01
(PID.TID 0000.0001) %MON dynstat_eta_min              =  -1.9948833293747E+00
(PID.TID 0000.0001) %MON dynstat_eta_mean             =  -5.8079421860056E-03
(PID.TID 0000.0001) %MON dynstat_eta_sd               =   5.9214652266177E-01
(PID.TID 0000.0001) %MON dynstat_eta_del2             =   2.6865023850715E-03
(PID.TID 0000.0001) %MON dynstat_uvel_max             =   1.4306436660886E-01
(PID.TID 0000.0001) %MON dynstat_uvel_min             =  -1.4731073013656E-01
(PID.TID 0000.0001) %MON dynstat_uvel_mean            =   1.8588078608592E-03
(PID.TID 0000.0001) %MON dynstat_uvel_sd              =   1.8173416939689E-02
(PID.TID 0000.0001) %MON dynstat_uvel_del2            =   1.5495146214597E-04
(PID.TID 0000.0001) %MON dynstat_vvel_max             =   1.5688801007193E-01
(PID.TID 0000.0001) %MON dynstat_vvel_min             =  -1.1307839352541E-01
(PID.TID 0000.0001) %MON dynstat_vvel_mean            =   1.4345775101482E-04
(PID.TID 0000.0001) %MON dynstat_vvel_sd              =   9.8626263746521E-03
(PID.TID 0000.0001) %MON dynstat_vvel_del2            =   9.1844050357329E-05
(PID.TID 0000.0001) %MON dynstat_wvel_max             =   1.4871969269207E-04
(PID.TID 0000.0001) %MON dynstat_wvel_min             =  -1.0497868479594E-04
(PID.TID 0000.0001) %MON dynstat_wvel_mean            =  -1.7711891850464E-22
(PID.TID 0000.0001) %MON dynstat_wvel_sd              =   1.3320753743351E-05
(PID.TID 0000.0001) %MON dynstat_wvel_del2            =   1.2817357523011E-07
(PID.TID 0000.0001) %MON dynstat_theta_max            =   3.1249637173113E+01
(PID.TID 0000.0001) %MON dynstat_theta_min            =  -1.9316533270147E+00
(PID.TID 0000.0001) %MON dynstat_theta_mean           =   3.6541642370071E+00
(PID.TID 0000.0001) %MON dynstat_theta_sd             =   4.4290300235513E+00
(PID.TID 0000.0001) %MON dynstat_theta_del2           =   4.8623444888298E-03
(PID.TID 0000.0001) %MON dynstat_salt_max             =   3.7497117853901E+01
(PID.TID 0000.0001) %MON dynstat_salt_min             =   2.9977978458050E+01
(PID.TID 0000.0001) %MON dynstat_salt_mean            =   3.4747987498314E+01
(PID.TID 0000.0001) %MON dynstat_salt_sd              =   2.9661804411863E-01
(PID.TID 0000.0001) %MON dynstat_salt_del2            =   9.9893667002410E-04
(PID.TID 0000.0001) %MON dynstat_sst_max              =   3.1249637173113E+01
(PID.TID 0000.0001) %MON dynstat_sst_min              =  -1.9316533270147E+00
(PID.TID 0000.0001) %MON dynstat_sst_mean             =   1.9076334557489E+01
(PID.TID 0000.0001) %MON dynstat_sst_sd               =   9.2733407371949E+00
(PID.TID 0000.0001) %MON dynstat_sst_del2             =   2.9314328574184E-02
(PID.TID 0000.0001) %MON dynstat_sss_max              =   3.7497117853901E+01
(PID.TID 0000.0001) %MON dynstat_sss_min              =   2.9977978458050E+01
(PID.TID 0000.0001) %MON dynstat_sss_mean             =   3.4867745676250E+01
(PID.TID 0000.0001) %MON dynstat_sss_sd               =   9.9193055509234E-01
(PID.TID 0000.0001) %MON dynstat_sss_del2             =   8.3075642669473E-03
(PID.TID 0000.0001) %MON forcing_qnet_max             =   1.9922393391927E+02
(PID.TID 0000.0001) %MON forcing_qnet_min             =  -1.5700764973958E+02
(PID.TID 0000.0001) %MON forcing_qnet_mean            =  -9.1248312663050E-01
(PID.TID 0000.0001) %MON forcing_qnet_sd              =   3.9520951895878E+01
(PID.TID 0000.0001) %MON forcing_qnet_del2            =   7.8352758501647E-01
(PID.TID 0000.0001) %MON forcing_qsw_max              =   0.0000000000000E+00
(PID.TID 0000.0001) %MON forcing_qsw_min              =   0.0000000000000E+00
(PID.TID 0000.0001) %MON forcing_qsw_mean             =   0.0000000000000E+00
(PID.TID 0000.0001) %MON forcing_qsw_sd               =   0.0000000000000E+00
(PID.TID 0000.0001) %MON forcing_qsw_del2             =   0.0000000000000E+00
(PID.TID 0000.0001) %MON forcing_empmr_max            =   6.7570085586037E-05
(PID.TID 0000.0001) %MON forcing_empmr_min            =  -8.3501954861731E-05
(PID.TID 0000.0001) %MON forcing_empmr_mean           =   1.9158521643765E-07
(PID.TID 0000.0001) %MON forcing_empmr_sd             =   2.5545939064587E-05
(PID.TID 0000.0001) %MON forcing_empmr_del2           =   3.6438848805785E-07
(PID.TID 0000.0001) %MON forcing_fu_max               =   3.4739760756493E-01
(PID.TID 0000.0001) %MON forcing_fu_min               =  -4.0348557233810E-01
(PID.TID 0000.0001) %MON forcing_fu_mean              =   1.8421655749463E-02
(PID.TID 0000.0001) %MON forcing_fu_sd                =   1.0042548414451E-01
(PID.TID 0000.0001) %MON forcing_fu_del2              =   7.7738003749810E-04
(PID.TID 0000.0001) %MON forcing_fv_max               =   1.8176432649295E-01
(PID.TID 0000.0001) %MON forcing_fv_min               =  -1.4326689740022E-01
(PID.TID 0000.0001) %MON forcing_fv_mean              =  -6.9459486820761E-03
(PID.TID 0000.0001) %MON forcing_fv_sd                =   3.8697920486892E-02
(PID.TID 0000.0001) %MON forcing_fv_del2              =   4.1531073929018E-04
(PID.TID 0000.0001) %MON trAdv_CFL_u_max              =   5.2870549718216E-02
(PID.TID 0000.0001) %MON trAdv_CFL_v_max              =   3.0902137157615E-02
(PID.TID 0000.0001) %MON trAdv_CFL_w_max              =   3.7339108694422E-02
(PID.TID 0000.0001) %MON advcfl_uvel_max              =   5.2451597500870E-02
(PID.TID 0000.0001) %MON advcfl_vvel_max              =   3.0480824175804E-02
(PID.TID 0000.0001) %MON advcfl_wvel_max              =   3.7609109560228E-02
(PID.TID 0000.0001) %MON advcfl_W_hf_max              =   4.4865227140017E-02
(PID.TID 0000.0001) %MON pe_b_mean                    =   4.4872611448943E-04
(PID.TID 0000.0001) %MON ke_max                       =   1.2359272473319E-02
(PID.TID 0000.0001) %MON ke_mean                      =   1.9529642857111E-04
(PID.TID 0000.0001) %MON ke_vol                       =   1.3226782436723E+18
(PID.TID 0000.0001) %MON vort_r_min                   =  -4.2476210109513E-07
(PID.TID 0000.0001) %MON vort_r_max                   =   5.8909490601458E-07
(PID.TID 0000.0001) %MON vort_a_mean                  =  -2.5274807464942E-05
(PID.TID 0000.0001) %MON vort_a_sd                    =   7.3604545436467E-05
(PID.TID 0000.0001) %MON vort_p_mean                  =  -3.1845655884509E-05
(PID.TID 0000.0001) %MON vort_p_sd                    =   1.3162441631048E-04
(PID.TID 0000.0001) %MON surfExpan_theta_mean         =  -6.7193302101579E-07
(PID.TID 0000.0001) %MON surfExpan_salt_mean          =   2.1157991840185E-07
(PID.TID 0000.0001) // =======================================================
(PID.TID 0000.0001) // End MONITOR dynamic field statistics
(PID.TID 0000.0001) // =======================================================
 EXTERNAL_FIELDS_LOAD,        92 : iP,iLd,i0,i1=    3    4    3    4 ; Wght=  0.4333333333  0.5666666667
 EXTERNAL_FIELDS_LOAD: (fu0,1),fu,fv= -2.7199E-02 -3.7252E-02 -3.2896E-02 -2.0206E-02
 EXTERNAL_FIELDS_LOAD: SST,SSS,Q,E-P= -5.9668E-02  3.4573E+01  1.5233E+02  8.3375E-06
DEBUG_STATS_RL:          Uvel (THERMODYNAMICS)  min= -1.47310730136562E-01
DEBUG_STATS_RL:          Uvel (THERMODYNAMICS)  max=  1.43064366608865E-01
DEBUG_STATS_RL:          Uvel (THERMODYNAMICS) mean=  5.43754726135613E-03
DEBUG_STATS_RL:          Uvel (THERMODYNAMICS) S.D.=  2.47303639631606E-02
DEBUG_STATS_RL:          Vvel (THERMODYNAMICS)  min= -1.13078393525415E-01
DEBUG_STATS_RL:          Vvel (THERMODYNAMICS)  max=  1.56888010071926E-01
DEBUG_STATS_RL:          Vvel (THERMODYNAMICS) mean=  1.02552770113040E-03
DEBUG_STATS_RL:          Vvel (THERMODYNAMICS) S.D.=  1.47597910856418E-02
DEBUG_STATS_RL:          Wvel (THERMODYNAMICS)  min= -1.04978684795939E-04
DEBUG_STATS_RL:          Wvel (THERMODYNAMICS)  max=  1.48719692692068E-04
DEBUG_STATS_RL:          Wvel (THERMODYNAMICS) mean= -7.56296039319292E-09
DEBUG_STATS_RL:          Wvel (THERMODYNAMICS) S.D.=  1.14348010628022E-05
DEBUG_STATS_RL:         Theta (THERMODYNAMICS)  min= -1.93005296682828E+00
DEBUG_STATS_RL:         Theta (THERMODYNAMICS)  max=  3.12711965359042E+01
DEBUG_STATS_RL:         Theta (THERMODYNAMICS) mean=  3.24992405921197E+00
DEBUG_STATS_RL:         Theta (THERMODYNAMICS) S.D.=  5.88932372565850E+00
DEBUG_STATS_RL:          Salt (THERMODYNAMICS)  min=  3.00000000000000E-02
DEBUG_STATS_RL:          Salt (THERMODYNAMICS)  max=  3.74973175807779E+01
DEBUG_STATS_RL:          Salt (THERMODYNAMICS) mean=  1.88747415549869E+01
DEBUG_STATS_RL:          Salt (THERMODYNAMICS) S.D.=  1.73003019536313E+01
DEBUG_STATS_RL:         GtNm1 (THERMODYNAMICS)  min= -2.36038756834711E-06
DEBUG_STATS_RL:         GtNm1 (THERMODYNAMICS)  max=  3.02461376183912E-06
DEBUG_STATS_RL:         GtNm1 (THERMODYNAMICS) mean= -1.32586006585839E-09
DEBUG_STATS_RL:         GtNm1 (THERMODYNAMICS) S.D.=  1.53908993149093E-07
DEBUG_STATS_RL:         GsNm1 (THERMODYNAMICS)  min= -4.54177496624171E-07
DEBUG_STATS_RL:         GsNm1 (THERMODYNAMICS)  max=  4.33833010313229E-07
DEBUG_STATS_RL:         GsNm1 (THERMODYNAMICS) mean= -2.61943396182762E-10
DEBUG_STATS_RL:         GsNm1 (THERMODYNAMICS) S.D.=  1.57996706222634E-08
DEBUG_STATS_RL:                EtaN (DYNAMICS)  min= -1.99488332937468E+00
DEBUG_STATS_RL:                EtaN (DYNAMICS)  max=  7.71339053949346E-01
DEBUG_STATS_RL:                EtaN (DYNAMICS) mean= -1.82670728102147E-01
DEBUG_STATS_RL:                EtaN (DYNAMICS) S.D.=  6.97002187207286E-01
DEBUG_STATS_RL:                Uvel (DYNAMICS)  min= -1.47310730136562E-01
DEBUG_STATS_RL:                Uvel (DYNAMICS)  max=  1.43064366608865E-01
DEBUG_STATS_RL:                Uvel (DYNAMICS) mean=  5.43754726135613E-03
DEBUG_STATS_RL:                Uvel (DYNAMICS) S.D.=  2.47303639631606E-02
DEBUG_STATS_RL:                Vvel (DYNAMICS)  min= -1.13078393525415E-01
DEBUG_STATS_RL:                Vvel (DYNAMICS)  max=  1.56888010071926E-01
DEBUG_STATS_RL:                Vvel (DYNAMICS) mean=  1.02552770113040E-03
DEBUG_STATS_RL:                Vvel (DYNAMICS) S.D.=  1.47597910856418E-02
DEBUG_STATS_RL:                Wvel (DYNAMICS)  min= -1.04978684795939E-04
DEBUG_STATS_RL:                Wvel (DYNAMICS)  max=  1.48719692692068E-04
DEBUG_STATS_RL:                Wvel (DYNAMICS) mean= -7.56296039319292E-09
DEBUG_STATS_RL:                Wvel (DYNAMICS) S.D.=  1.14348010628022E-05
DEBUG_STATS_RL:               Theta (DYNAMICS)  min= -1.93005296682828E+00
DEBUG_STATS_RL:               Theta (DYNAMICS)  max=  3.12711965359042E+01
DEBUG_STATS_RL:               Theta (DYNAMICS) mean=  3.24992405921197E+00
DEBUG_STATS_RL:               Theta (DYNAMICS) S.D.=  5.88932372565850E+00
DEBUG_STATS_RL:                Salt (DYNAMICS)  min=  3.00000000000000E-02
DEBUG_STATS_RL:                Salt (DYNAMICS)  max=  3.74973175807779E+01
DEBUG_STATS_RL:                Salt (DYNAMICS) mean=  1.88747415549869E+01
DEBUG_STATS_RL:                Salt (DYNAMICS) S.D.=  1.73003019536313E+01
DEBUG_STATS_RL:                  Gu (DYNAMICS)  min= -1.46410276834683E-01
DEBUG_STATS_RL:                  Gu (DYNAMICS)  max=  1.31759197195043E-01
DEBUG_STATS_RL:                  Gu (DYNAMICS) mean=  5.36119832406072E-03
DEBUG_STATS_RL:                  Gu (DYNAMICS) S.D.=  2.50006230755904E-02
DEBUG_STATS_RL:                  Gv (DYNAMICS)  min= -1.10339902067476E-01
DEBUG_STATS_RL:                  Gv (DYNAMICS)  max=  1.56689778191401E-01
DEBUG_STATS_RL:                  Gv (DYNAMICS) mean=  3.44831835466455E-03
DEBUG_STATS_RL:                  Gv (DYNAMICS) S.D.=  1.62166132277642E-02
DEBUG_STATS_RL:               GuNm1 (DYNAMICS)  min= -1.03014658122297E-05
DEBUG_STATS_RL:               GuNm1 (DYNAMICS)  max=  1.01988804504515E-05
DEBUG_STATS_RL:               GuNm1 (DYNAMICS) mean=  1.91434450297563E-08
DEBUG_STATS_RL:               GuNm1 (DYNAMICS) S.D.=  1.24298722830303E-06
DEBUG_STATS_RL:               GvNm1 (DYNAMICS)  min= -9.28337454006490E-06
DEBUG_STATS_RL:               GvNm1 (DYNAMICS)  max=  1.50491347710522E-05
DEBUG_STATS_RL:               GvNm1 (DYNAMICS) mean=  7.42800535611718E-07
DEBUG_STATS_RL:               GvNm1 (DYNAMICS) S.D.=  2.61889666111103E-06
DEBUG_STATS_RL:               GtNm1 (DYNAMICS)  min= -2.36038756834711E-06
DEBUG_STATS_RL:               GtNm1 (DYNAMICS)  max=  3.02461376183912E-06
DEBUG_STATS_RL:               GtNm1 (DYNAMICS) mean= -1.32586006585839E-09
DEBUG_STATS_RL:               GtNm1 (DYNAMICS) S.D.=  1.53908993149093E-07
DEBUG_STATS_RL:               GsNm1 (DYNAMICS)  min= -4.54177496624171E-07
DEBUG_STATS_RL:               GsNm1 (DYNAMICS)  max=  4.33833010313229E-07
DEBUG_STATS_RL:               GsNm1 (DYNAMICS) mean= -2.61943396182762E-10
DEBUG_STATS_RL:               GsNm1 (DYNAMICS) S.D.=  1.57996706222634E-08
DEBUG_STATS_RL:    cg2d_b (SOLVE_FOR_PRESSURE)  min= -3.20244729001542E+04
DEBUG_STATS_RL:    cg2d_b (SOLVE_FOR_PRESSURE)  max=  3.45622476291010E+04
DEBUG_STATS_RL:    cg2d_b (SOLVE_FOR_PRESSURE) mean=  5.58002260337580E+00
DEBUG_STATS_RL:    cg2d_b (SOLVE_FOR_PRESSURE) S.D.=  4.18281543538992E+03
 cg2d: Sum(rhs),rhsMax =   3.73753248499301E-01  2.27014096212981E+00
(PID.TID 0000.0001)  cg2d: iter=     1 ; resid.=  1.38145217068686E-01
(PID.TID 0000.0001)  cg2d: iter=     2 ; resid.=  1.22929016033909E-01
(PID.TID 0000.0001)  cg2d: iter=     3 ; resid.=  1.20683383127981E-01
(PID.TID 0000.0001)  cg2d: iter=     4 ; resid.=  1.07544064713981E-01
(PID.TID 0000.0001)  cg2d: iter=     5 ; resid.=  9.88205763706737E-02
(PID.TID 0000.0001)  cg2d: iter=     6 ; resid.=  8.98623010948823E-02
(PID.TID 0000.0001)  cg2d: iter=     7 ; resid.=  6.95507709442543E-02
(PID.TID 0000.0001)  cg2d: iter=     8 ; resid.=  5.32147445312622E-02
(PID.TID 0000.0001)  cg2d: iter=     9 ; resid.=  4.21143530371192E-02
(PID.TID 0000.0001)  cg2d: iter=    10 ; resid.=  3.46996494537062E-02
(PID.TID 0000.0001)  cg2d: iter=    11 ; resid.=  3.01090526096935E-02
(PID.TID 0000.0001)  cg2d: iter=    12 ; resid.=  2.37319018637720E-02
(PID.TID 0000.0001)  cg2d: iter=    13 ; resid.=  1.92850548775393E-02
(PID.TID 0000.0001)  cg2d: iter=    14 ; resid.=  1.59102481103799E-02
(PID.TID 0000.0001)  cg2d: iter=    15 ; resid.=  1.33197377922207E-02
(PID.TID 0000.0001)  cg2d: iter=    16 ; resid.=  1.25960866952474E-02
(PID.TID 0000.0001)  cg2d: iter=    17 ; resid.=  1.13015951568333E-02
(PID.TID 0000.0001)  cg2d: iter=    18 ; resid.=  9.34205686581742E-03
(PID.TID 0000.0001)  cg2d: iter=    19 ; resid.=  7.85166992885786E-03
(PID.TID 0000.0001)  cg2d: iter=    20 ; resid.=  5.93948230998452E-03
(PID.TID 0000.0001)  cg2d: iter=    21 ; resid.=  5.04386150750346E-03
(PID.TID 0000.0001)  cg2d: iter=    22 ; resid.=  4.44083907110559E-03
(PID.TID 0000.0001)  cg2d: iter=    23 ; resid.=  3.45810270807705E-03
(PID.TID 0000.0001)  cg2d: iter=    24 ; resid.=  3.02044970085818E-03
(PID.TID 0000.0001)  cg2d: iter=    25 ; resid.=  2.32704506247285E-03
(PID.TID 0000.0001)  cg2d: iter=    26 ; resid.=  1.87194690350019E-03
(PID.TID 0000.0001)  cg2d: iter=    27 ; resid.=  1.56420182208717E-03
(PID.TID 0000.0001)  cg2d: iter=    28 ; resid.=  1.31359335112973E-03
(PID.TID 0000.0001)  cg2d: iter=    29 ; resid.=  1.04258093662179E-03
(PID.TID 0000.0001)  cg2d: iter=    30 ; resid.=  8.86394470420483E-04
(PID.TID 0000.0001)  cg2d: iter=    31 ; resid.=  7.48568257759272E-04
(PID.TID 0000.0001)  cg2d: iter=    32 ; resid.=  5.43542795159075E-04
(PID.TID 0000.0001)  cg2d: iter=    33 ; resid.=  4.45144214443793E-04
(PID.TID 0000.0001)  cg2d: iter=    34 ; resid.=  4.17482823508523E-04
(PID.TID 0000.0001)  cg2d: iter=    35 ; resid.=  3.28609706955447E-04
(PID.TID 0000.0001)  cg2d: iter=    36 ; resid.=  2.84615225404127E-04
(PID.TID 0000.0001)  cg2d: iter=    37 ; resid.=  2.53559403645540E-04
(PID.TID 0000.0001)  cg2d: iter=    38 ; resid.=  2.16440309937642E-04
(PID.TID 0000.0001)  cg2d: iter=    39 ; resid.=  1.91884281509034E-04
(PID.TID 0000.0001)  cg2d: iter=    40 ; resid.=  1.65404234725719E-04
(PID.TID 0000.0001)  cg2d: iter=    41 ; resid.=  1.41209108049946E-04
(PID.TID 0000.0001)  cg2d: iter=    42 ; resid.=  1.22059191421341E-04
(PID.TID 0000.0001)  cg2d: iter=    43 ; resid.=  1.02262035678237E-04
(PID.TID 0000.0001)  cg2d: iter=    44 ; resid.=  8.00365475470602E-05
(PID.TID 0000.0001)  cg2d: iter=    45 ; resid.=  6.53813414221765E-05
(PID.TID 0000.0001)  cg2d: iter=    46 ; resid.=  5.01536859266925E-05
(PID.TID 0000.0001)  cg2d: iter=    47 ; resid.=  4.29326794800837E-05
(PID.TID 0000.0001)  cg2d: iter=    48 ; resid.=  3.90014910563098E-05
(PID.TID 0000.0001)  cg2d: iter=    49 ; resid.=  3.29402026069168E-05
(PID.TID 0000.0001)  cg2d: iter=    50 ; resid.=  2.67730729096403E-05
(PID.TID 0000.0001)  cg2d: iter=    51 ; resid.=  2.33901232154926E-05
(PID.TID 0000.0001)  cg2d: iter=    52 ; resid.=  1.94216568278521E-05
(PID.TID 0000.0001)  cg2d: iter=    53 ; resid.=  1.66597191896195E-05
(PID.TID 0000.0001)  cg2d: iter=    54 ; resid.=  1.26648357982542E-05
(PID.TID 0000.0001)  cg2d: iter=    55 ; resid.=  1.06859338712876E-05
(PID.TID 0000.0001)  cg2d: iter=    56 ; resid.=  9.72219557772621E-06
(PID.TID 0000.0001)  cg2d: iter=    57 ; resid.=  7.77118248701048E-06
(PID.TID 0000.0001)  cg2d: iter=    58 ; resid.=  5.89494935870653E-06
(PID.TID 0000.0001)  cg2d: iter=    59 ; resid.=  4.65285790816459E-06
(PID.TID 0000.0001)  cg2d: iter=    60 ; resid.=  3.92330998420556E-06
(PID.TID 0000.0001)  cg2d: iter=    61 ; resid.=  3.24653111233441E-06
(PID.TID 0000.0001)  cg2d: iter=    62 ; resid.=  2.84009723820068E-06
(PID.TID 0000.0001)  cg2d: iter=    63 ; resid.=  2.52625175150667E-06
(PID.TID 0000.0001)  cg2d: iter=    64 ; resid.=  2.07895484993067E-06
(PID.TID 0000.0001)  cg2d: iter=    65 ; resid.=  1.57082104440968E-06
(PID.TID 0000.0001)  cg2d: iter=    66 ; resid.=  1.22333870397233E-06
(PID.TID 0000.0001)  cg2d: iter=    67 ; resid.=  1.01331030703205E-06
(PID.TID 0000.0001)  cg2d: iter=    68 ; resid.=  7.86021669023095E-07
(PID.TID 0000.0001)  cg2d: iter=    69 ; resid.=  6.40769966136568E-07
(PID.TID 0000.0001)  cg2d: iter=    70 ; resid.=  5.26306257700643E-07
(PID.TID 0000.0001)  cg2d: iter=    71 ; resid.=  4.58864123497037E-07
(PID.TID 0000.0001)  cg2d: iter=    72 ; resid.=  4.28618475634703E-07
(PID.TID 0000.0001)  cg2d: iter=    73 ; resid.=  3.88417913192634E-07
(PID.TID 0000.0001)  cg2d: iter=    74 ; resid.=  3.13076023073690E-07
(PID.TID 0000.0001)  cg2d: iter=    75 ; resid.=  2.47477853255331E-07
(PID.TID 0000.0001)  cg2d: iter=    76 ; resid.=  1.94870054257399E-07
(PID.TID 0000.0001)  cg2d: iter=    77 ; resid.=  1.64983814719547E-07
(PID.TID 0000.0001)  cg2d: iter=    78 ; resid.=  1.39472644796430E-07
(PID.TID 0000.0001)  cg2d: iter=    79 ; resid.=  1.16840968014096E-07
(PID.TID 0000.0001)  cg2d: iter=    80 ; resid.=  9.10758983003273E-08
(PID.TID 0000.0001)  cg2d: iter=    81 ; resid.=  6.75066997681153E-08
(PID.TID 0000.0001)  cg2d: iter=    82 ; resid.=  4.92474849793992E-08
(PID.TID 0000.0001)  cg2d: iter=    83 ; resid.=  3.69223917208977E-08
(PID.TID 0000.0001)  cg2d: iter=    84 ; resid.=  2.63613574824610E-08
(PID.TID 0000.0001)  cg2d: iter=    85 ; resid.=  2.03915686145359E-08
(PID.TID 0000.0001)  cg2d: iter=    86 ; resid.=  1.65813026951197E-08
(PID.TID 0000.0001)  cg2d: iter=    87 ; resid.=  1.32256835547801E-08
(PID.TID 0000.0001)  cg2d: iter=    88 ; resid.=  1.03601877451321E-08
(PID.TID 0000.0001)  cg2d: iter=    89 ; resid.=  8.89283624750835E-09
(PID.TID 0000.0001)  cg2d: iter=    90 ; resid.=  7.03590401038332E-09
(PID.TID 0000.0001)  cg2d: iter=    91 ; resid.=  5.02704683525626E-09
(PID.TID 0000.0001)  cg2d: iter=    92 ; resid.=  3.63009380249137E-09
(PID.TID 0000.0001)  cg2d: iter=    93 ; resid.=  2.66706162205692E-09
(PID.TID 0000.0001)  cg2d: iter=    94 ; resid.=  2.09463324598703E-09
(PID.TID 0000.0001)  cg2d: iter=    95 ; resid.=  1.83107334296508E-09
(PID.TID 0000.0001)  cg2d: iter=    96 ; resid.=  1.37702203324073E-09
(PID.TID 0000.0001)  cg2d: iter=    97 ; resid.=  1.02747971265419E-09
(PID.TID 0000.0001)  cg2d: iter=    98 ; resid.=  7.98906040684119E-10
(PID.TID 0000.0001)  cg2d: iter=    99 ; resid.=  6.56093851131457E-10
(PID.TID 0000.0001)  cg2d: iter=   100 ; resid.=  5.83079475865686E-10
(PID.TID 0000.0001)  cg2d: iter=   101 ; resid.=  4.87133413230087E-10
(PID.TID 0000.0001)  cg2d: iter=   102 ; resid.=  4.01799364284153E-10
(PID.TID 0000.0001)  cg2d: iter=   103 ; resid.=  3.48797238182109E-10
(PID.TID 0000.0001)  cg2d: iter=   104 ; resid.=  2.87562601533267E-10
(PID.TID 0000.0001)  cg2d: iter=   105 ; resid.=  2.34649348454787E-10
(PID.TID 0000.0001)  cg2d: iter=   106 ; resid.=  1.88302080398285E-10
(PID.TID 0000.0001)  cg2d: iter=   107 ; resid.=  1.48953910714422E-10
(PID.TID 0000.0001)  cg2d: iter=   108 ; resid.=  1.13677495740590E-10
(PID.TID 0000.0001)  cg2d: iter=   109 ; resid.=  8.88503392058239E-11
(PID.TID 0000.0001)  cg2d: iter=   110 ; resid.=  7.43856259759354E-11
(PID.TID 0000.0001)  cg2d: iter=   111 ; resid.=  5.99253527441374E-11
(PID.TID 0000.0001)  cg2d: iter=   112 ; resid.=  4.49549788372434E-11
(PID.TID 0000.0001)  cg2d: iter=   113 ; resid.=  3.26279931281582E-11
(PID.TID 0000.0001)  cg2d: iter=   114 ; resid.=  2.56594337246945E-11
(PID.TID 0000.0001)  cg2d: iter=   115 ; resid.=  2.02462290905701E-11
(PID.TID 0000.0001)  cg2d: iter=   116 ; resid.=  1.54385174480078E-11
(PID.TID 0000.0001)  cg2d: iter=   117 ; resid.=  1.16914039887287E-11
(PID.TID 0000.0001)  cg2d: iter=   118 ; resid.=  8.88803454165022E-12
(PID.TID 0000.0001)  cg2d: iter=   119 ; resid.=  6.19069806813552E-12
(PID.TID 0000.0001)  cg2d: iter=   120 ; resid.=  5.02399343664716E-12
(PID.TID 0000.0001)  cg2d: iter=   121 ; resid.=  3.88373879541785E-12
(PID.TID 0000.0001)  cg2d: iter=   122 ; resid.=  2.88690424505944E-12
(PID.TID 0000.0001)  cg2d: iter=   123 ; resid.=  2.15374949381080E-12
(PID.TID 0000.0001)  cg2d: iter=   124 ; resid.=  1.55500935253215E-12
(PID.TID 0000.0001)  cg2d: iter=   125 ; resid.=  1.12715520243459E-12
(PID.TID 0000.0001)  cg2d: iter=   126 ; resid.=  8.13731201080431E-13
(PID.TID 0000.0001)  cg2d: iter=   127 ; resid.=  5.45073001327745E-13
(PID.TID 0000.0001)  cg2d: iter=   128 ; resid.=  4.11946928290483E-13
(PID.TID 0000.0001)  cg2d: iter=   129 ; resid.=  3.02951860805668E-13
(PID.TID 0000.0001)  cg2d: iter=   130 ; resid.=  2.29128676197457E-13
(PID.TID 0000.0001)  cg2d: iter=   131 ; resid.=  1.63643085395082E-13
(PID.TID 0000.0001)  cg2d: iter=   132 ; resid.=  1.22593334420745E-13
(PID.TID 0000.0001)  cg2d: iter=   133 ; resid.=  9.38007261539056E-14
DEBUG_STATS_RL:    cg2d_x (SOLVE_FOR_PRESSURE)  min= -1.91209451140904E+01
DEBUG_STATS_RL:    cg2d_x (SOLVE_FOR_PRESSURE)  max=  7.22288194301041E+00
DEBUG_STATS_RL:    cg2d_x (SOLVE_FOR_PRESSURE) mean= -1.76353955203090E+00
DEBUG_STATS_RL:    cg2d_x (SOLVE_FOR_PRESSURE) S.D.=  6.78694368129289E+00
(PID.TID 0000.0001)      cg2d_init_res =   2.51285890854697E-01
(PID.TID 0000.0001)      cg2d_iters(min,last) =      -1     133
(PID.TID 0000.0001)      cg2d_last_res =   9.38007261539056E-14
(PID.TID 0000.0001) // =======================================================
(PID.TID 0000.0001) // Begin MONITOR dynamic field statistics
(PID.TID 0000.0001) // =======================================================
(PID.TID 0000.0001) %MON time_tsnumber                =                    93
(PID.TID 0000.0001) %MON time_secondsf                =   8.0352000000000E+06
(PID.TID 0000.0001) %MON dynstat_eta_max              =   7.3627746615806E-01
(PID.TID 0000.0001) %MON dynstat_eta_min              =  -1.9491279423130E+00
(PID.TID 0000.0001) %MON dynstat_eta_mean             =  -5.8220616866613E-03
(PID.TID 0000.0001) %MON dynstat_eta_sd               =   5.8734029966209E-01
(PID.TID 0000.0001) %MON dynstat_eta_del2             =   2.6844337263654E-03
(PID.TID 0000.0001) %MON dynstat_uvel_max             =   1.4076812505790E-01
(PID.TID 0000.0001) %MON dynstat_uvel_min             =  -1.4781122161302E-01
(PID.TID 0000.0001) %MON dynstat_uvel_mean            =   1.8536830307518E-03
(PID.TID 0000.0001) %MON dynstat_uvel_sd              =   1.8047077375033E-02
(PID.TID 0000.0001) %MON dynstat_uvel_del2            =   1.5511505625532E-04
(PID.TID 0000.0001) %MON dynstat_vvel_max             =   1.5403756048902E-01
(PID.TID 0000.0001) %MON dynstat_vvel_min             =  -1.1247845442987E-01
(PID.TID 0000.0001) %MON dynstat_vvel_mean            =   1.3938276372583E-04
(PID.TID 0000.0001) %MON dynstat_vvel_sd              =   9.7944048154997E-03
(PID.TID 0000.0001) %MON dynstat_vvel_del2            =   9.1270672732025E-05
(PID.TID 0000.0001) %MON dynstat_wvel_max             =   1.3061741830209E-04
(PID.TID 0000.0001) %MON dynstat_wvel_min             =  -1.1076188794570E-04
(PID.TID 0000.0001) %MON dynstat_wvel_mean            =  -6.9407128644788E-23
(PID.TID 0000.0001) %MON dynstat_wvel_sd              =   1.3120757443840E-05
(PID.TID 0000.0001) %MON dynstat_wvel_del2            =   1.2682149887541E-07
(PID.TID 0000.0001) %MON dynstat_theta_max            =   3.1271196535904E+01
(PID.TID 0000.0001) %MON dynstat_theta_min            =  -1.9300529668283E+00
(PID.TID 0000.0001) %MON dynstat_theta_mean           =   3.6541798658437E+00
(PID.TID 0000.0001) %MON dynstat_theta_sd             =   4.4291135839013E+00
(PID.TID 0000.0001) %MON dynstat_theta_del2           =   4.8600733218860E-03
(PID.TID 0000.0001) %MON dynstat_salt_max             =   3.7497317580778E+01
(PID.TID 0000.0001) %MON dynstat_salt_min             =   2.9982757394868E+01
(PID.TID 0000.0001) %MON dynstat_salt_mean            =   3.4747983470403E+01
(PID.TID 0000.0001) %MON dynstat_salt_sd              =   2.9661638584327E-01
(PID.TID 0000.0001) %MON dynstat_salt_del2            =   9.9931298070823E-04
(PID.TID 0000.0001) %MON dynstat_sst_max              =   3.1271196535904E+01
(PID.TID 0000.0001) %MON dynstat_sst_min              =  -1.9300529668283E+00
(PID.TID 0000.0001) %MON dynstat_sst_mean             =   1.9073540036265E+01
(PID.TID 0000.0001) %MON dynstat_sst_sd               =   9.2804256776021E+00
(PID.TID 0000.0001) %MON dynstat_sst_del2             =   2.9333184593125E-02
(PID.TID 0000.0001) %MON dynstat_sss_max              =   3.7497317580778E+01
(PID.TID 0000.0001) %MON dynstat_sss_min              =   2.9982757394868E+01
(PID.TID 0000.0001) %MON dynstat_sss_mean             =   3.4867564290773E+01
(PID.TID 0000.0001) %MON dynstat_sss_sd               =   9.9233456897326E-01
(PID.TID 0000.0001) %MON dynstat_sss_del2             =   8.3175895671489E-03
(PID.TID 0000.0001) %MON forcing_qnet_max             =   1.9451869913737E+02
(PID.TID 0000.0001) %MON forcing_qnet_min             =  -1.5657965342204E+02
(PID.TID 0000.0001) %MON forcing_qnet_mean            =  -5.1544669766086E-01
(PID.TID 0000.0001) %MON forcing_qnet_sd              =   3.9728111557903E+01
(PID.TID 0000.0001) %MON forcing_qnet_del2            =   7.8346921016286E-01
(PID.TID 0000.0001) %MON forcing_qsw_max              =   0.0000000000000E+00
(PID.TID 0000.0001) %MON forcing_qsw_min              =   0.0000000000000E+00
(PID.TID 0000.0001) %MON forcing_qsw_mean             =   0.0000000000000E+00
(PID.TID 0000.0001) %MON forcing_qsw_sd               =   0.0000000000000E+00
(PID.TID 0000.0001) %MON forcing_qsw_del2             =   0.0000000000000E+00
(PID.TID 0000.0001) %MON forcing_empmr_max            =   6.7473914574142E-05
(PID.TID 0000.0001) %MON forcing_empmr_min            =  -8.3516800941652E-05
(PID.TID 0000.0001) %MON forcing_empmr_mean           =   1.6913985161008E-07
(PID.TID 0000.0001) %MON forcing_empmr_sd             =   2.5530162049708E-05
(PID.TID 0000.0001) %MON forcing_empmr_del2           =   3.6488800752658E-07
(PID.TID 0000.0001) %MON forcing_fu_max               =   3.4690555334091E-01
(PID.TID 0000.0001) %MON forcing_fu_min               =  -4.0441864430904E-01
(PID.TID 0000.0001) %MON forcing_fu_mean              =   1.8294463652530E-02
(PID.TID 0000.0001) %MON forcing_fu_sd                =   1.0052224849844E-01
(PID.TID 0000.0001) %MON forcing_fu_del2              =   7.7883912812643E-04
(PID.TID 0000.0001) %MON forcing_fv_max               =   1.8166832526525E-01
(PID.TID 0000.0001) %MON forcing_fv_min               =  -1.4357230017583E-01
(PID.TID 0000.0001) %MON forcing_fv_mean              =  -6.9094720097030E-03
(PID.TID 0000.0001) %MON forcing_fv_sd                =   3.8668513823794E-02
(PID.TID 0000.0001) %MON forcing_fv_del2              =   4.1497869888265E-04
(PID.TID 0000.0001) %MON trAdv_CFL_u_max              =   5.2462250795463E-02
(PID.TID 0000.0001) %MON trAdv_CFL_v_max              =   3.0431288131312E-02
(PID.TID 0000.0001) %MON trAdv_CFL_w_max              =   3.3709966392361E-02
(PID.TID 0000.0001) %MON advcfl_uvel_max              =   5.1609727925301E-02
(PID.TID 0000.0001) %MON advcfl_vvel_max              =   2.9927027537560E-02
(PID.TID 0000.0001) %MON advcfl_wvel_max              =   3.8865525275313E-02
(PID.TID 0000.0001) %MON advcfl_W_hf_max              =   4.7193852120023E-02
(PID.TID 0000.0001) %MON pe_b_mean                    =   4.4147231360093E-04
(PID.TID 0000.0001) %MON ke_max                       =   1.2347593535957E-02
(PID.TID 0000.0001) %MON ke_mean                      =   1.9260623567491E-04
(PID.TID 0000.0001) %MON ke_vol                       =   1.3226782436723E+18
(PID.TID 0000.0001) %MON vort_r_min                   =  -4.1943583696791E-07
(PID.TID 0000.0001) %MON vort_r_max                   =   6.0219811142709E-07
(PID.TID 0000.0001) %MON vort_a_mean                  =  -2.5274807446782E-05
(PID.TID 0000.0001) %MON vort_a_sd                    =   7.3604551589195E-05
(PID.TID 0000.0001) %MON vort_p_mean                  =  -3.1845655861629E-05
(PID.TID 0000.0001) %MON vort_p_sd                    =   1.3162435793935E-04
(PID.TID 0000.0001) %MON surfExpan_theta_mean         =  -5.4998339858789E-07
(PID.TID 0000.0001) %MON surfExpan_salt_mean          =   1.8250640414648E-07
(PID.TID 0000.0001) // =======================================================
(PID.TID 0000.0001) // End MONITOR dynamic field statistics
(PID.TID 0000.0001) // =======================================================
 EXTERNAL_FIELDS_LOAD,        93 : iP,iLd,i0,i1=    3    4    3    4 ; Wght=  0.4000000000  0.6000000000
 EXTERNAL_FIELDS_LOAD: (fu0,1),fu,fv= -2.7199E-02 -3.7252E-02 -3.3231E-02 -2.1361E-02
 EXTERNAL_FIELDS_LOAD: SST,SSS,Q,E-P= -5.2360E-02  3.4573E+01  1.4862E+02  8.2938E-06
DEBUG_STATS_RL:          Uvel (THERMODYNAMICS)  min= -1.47811221613020E-01
DEBUG_STATS_RL:          Uvel (THERMODYNAMICS)  max=  1.40768125057897E-01
DEBUG_STATS_RL:          Uvel (THERMODYNAMICS) mean=  5.38973403717129E-03
DEBUG_STATS_RL:          Uvel (THERMODYNAMICS) S.D.=  2.46730386866178E-02
DEBUG_STATS_RL:          Vvel (THERMODYNAMICS)  min= -1.12478454429871E-01
DEBUG_STATS_RL:          Vvel (THERMODYNAMICS)  max=  1.54037560489019E-01
DEBUG_STATS_RL:          Vvel (THERMODYNAMICS) mean=  9.90924845807393E-04
DEBUG_STATS_RL:          Vvel (THERMODYNAMICS) S.D.=  1.46574077136597E-02
DEBUG_STATS_RL:          Wvel (THERMODYNAMICS)  min= -1.10761887945697E-04
DEBUG_STATS_RL:          Wvel (THERMODYNAMICS)  max=  1.30617418302089E-04
DEBUG_STATS_RL:          Wvel (THERMODYNAMICS) mean= -1.40434004588577E-08
DEBUG_STATS_RL:          Wvel (THERMODYNAMICS) S.D.=  1.12463506082771E-05
DEBUG_STATS_RL:         Theta (THERMODYNAMICS)  min= -1.92908519610841E+00
DEBUG_STATS_RL:         Theta (THERMODYNAMICS)  max=  3.12885221831855E+01
DEBUG_STATS_RL:         Theta (THERMODYNAMICS) mean=  3.24978760082270E+00
DEBUG_STATS_RL:         Theta (THERMODYNAMICS) S.D.=  5.88935798915239E+00
DEBUG_STATS_RL:          Salt (THERMODYNAMICS)  min=  3.00000000000000E-02
DEBUG_STATS_RL:          Salt (THERMODYNAMICS)  max=  3.74974896074147E+01
DEBUG_STATS_RL:          Salt (THERMODYNAMICS) mean=  1.88747327151751E+01
DEBUG_STATS_RL:          Salt (THERMODYNAMICS) S.D.=  1.73002945038521E+01
DEBUG_STATS_RL:         GtNm1 (THERMODYNAMICS)  min= -2.28432124896402E-06
DEBUG_STATS_RL:         GtNm1 (THERMODYNAMICS)  max=  2.23331913324563E-06
DEBUG_STATS_RL:         GtNm1 (THERMODYNAMICS) mean= -1.55556604514556E-09
DEBUG_STATS_RL:         GtNm1 (THERMODYNAMICS) S.D.=  1.49685762965298E-07
DEBUG_STATS_RL:         GsNm1 (THERMODYNAMICS)  min= -4.65727210481463E-07
DEBUG_STATS_RL:         GsNm1 (THERMODYNAMICS)  max=  4.32096315611064E-07
DEBUG_STATS_RL:         GsNm1 (THERMODYNAMICS) mean= -2.54596632757941E-10
DEBUG_STATS_RL:         GsNm1 (THERMODYNAMICS) S.D.=  1.51680379062690E-08
DEBUG_STATS_RL:                EtaN (DYNAMICS)  min= -1.94912794231305E+00
DEBUG_STATS_RL:                EtaN (DYNAMICS)  max=  7.36277466158058E-01
DEBUG_STATS_RL:                EtaN (DYNAMICS) mean= -1.79769577169308E-01
DEBUG_STATS_RL:                EtaN (DYNAMICS) S.D.=  6.91839315116504E-01
DEBUG_STATS_RL:                Uvel (DYNAMICS)  min= -1.47811221613020E-01
DEBUG_STATS_RL:                Uvel (DYNAMICS)  max=  1.40768125057897E-01
DEBUG_STATS_RL:                Uvel (DYNAMICS) mean=  5.38973403717129E-03
DEBUG_STATS_RL:                Uvel (DYNAMICS) S.D.=  2.46730386866178E-02
DEBUG_STATS_RL:                Vvel (DYNAMICS)  min= -1.12478454429871E-01
DEBUG_STATS_RL:                Vvel (DYNAMICS)  max=  1.54037560489019E-01
DEBUG_STATS_RL:                Vvel (DYNAMICS) mean=  9.90924845807393E-04
DEBUG_STATS_RL:                Vvel (DYNAMICS) S.D.=  1.46574077136597E-02
DEBUG_STATS_RL:                Wvel (DYNAMICS)  min= -1.10761887945697E-04
DEBUG_STATS_RL:                Wvel (DYNAMICS)  max=  1.30617418302089E-04
DEBUG_STATS_RL:                Wvel (DYNAMICS) mean= -1.40434004588577E-08
DEBUG_STATS_RL:                Wvel (DYNAMICS) S.D.=  1.12463506082771E-05
DEBUG_STATS_RL:               Theta (DYNAMICS)  min= -1.92908519610841E+00
DEBUG_STATS_RL:               Theta (DYNAMICS)  max=  3.12885221831855E+01
DEBUG_STATS_RL:               Theta (DYNAMICS) mean=  3.24978760082270E+00
DEBUG_STATS_RL:               Theta (DYNAMICS) S.D.=  5.88935798915239E+00
DEBUG_STATS_RL:                Salt (DYNAMICS)  min=  3.00000000000000E-02
DEBUG_STATS_RL:                Salt (DYNAMICS)  max=  3.74974896074147E+01
DEBUG_STATS_RL:                Salt (DYNAMICS) mean=  1.88747327151751E+01
DEBUG_STATS_RL:                Salt (DYNAMICS) S.D.=  1.73002945038521E+01
DEBUG_STATS_RL:                  Gu (DYNAMICS)  min= -1.46908625860432E-01
DEBUG_STATS_RL:                  Gu (DYNAMICS)  max=  1.32224213467426E-01
DEBUG_STATS_RL:                  Gu (DYNAMICS) mean=  5.31510852760360E-03
DEBUG_STATS_RL:                  Gu (DYNAMICS) S.D.=  2.49500378028871E-02
DEBUG_STATS_RL:                  Gv (DYNAMICS)  min= -1.09715943134721E-01
DEBUG_STATS_RL:                  Gv (DYNAMICS)  max=  1.53807029861656E-01
DEBUG_STATS_RL:                  Gv (DYNAMICS) mean=  3.44737650038005E-03
DEBUG_STATS_RL:                  Gv (DYNAMICS) S.D.=  1.61223071260830E-02
DEBUG_STATS_RL:               GuNm1 (DYNAMICS)  min= -1.01788316388992E-05
DEBUG_STATS_RL:               GuNm1 (DYNAMICS)  max=  1.02713751981304E-05
DEBUG_STATS_RL:               GuNm1 (DYNAMICS) mean=  1.95900478370176E-08
DEBUG_STATS_RL:               GuNm1 (DYNAMICS) S.D.=  1.24292185998020E-06
DEBUG_STATS_RL:               GvNm1 (DYNAMICS)  min= -9.29361211151136E-06
DEBUG_STATS_RL:               GvNm1 (DYNAMICS)  max=  1.50075052658172E-05
DEBUG_STATS_RL:               GvNm1 (DYNAMICS) mean=  7.43924408043599E-07
DEBUG_STATS_RL:               GvNm1 (DYNAMICS) S.D.=  2.61883839635445E-06
DEBUG_STATS_RL:               GtNm1 (DYNAMICS)  min= -2.28432124896402E-06
DEBUG_STATS_RL:               GtNm1 (DYNAMICS)  max=  2.23331913324563E-06
DEBUG_STATS_RL:               GtNm1 (DYNAMICS) mean= -1.55556604514556E-09
DEBUG_STATS_RL:               GtNm1 (DYNAMICS) S.D.=  1.49685762965298E-07
DEBUG_STATS_RL:               GsNm1 (DYNAMICS)  min= -4.65727210481463E-07
DEBUG_STATS_RL:               GsNm1 (DYNAMICS)  max=  4.32096315611064E-07
DEBUG_STATS_RL:               GsNm1 (DYNAMICS) mean= -2.54596632757941E-10
DEBUG_STATS_RL:               GsNm1 (DYNAMICS) S.D.=  1.51680379062690E-08
DEBUG_STATS_RL:    cg2d_b (SOLVE_FOR_PRESSURE)  min= -3.13242242696107E+04
DEBUG_STATS_RL:    cg2d_b (SOLVE_FOR_PRESSURE)  max=  3.46337349280470E+04
DEBUG_STATS_RL:    cg2d_b (SOLVE_FOR_PRESSURE) mean=  5.59175931246967E+00
DEBUG_STATS_RL:    cg2d_b (SOLVE_FOR_PRESSURE) S.D.=  4.17912366316214E+03
 cg2d: Sum(rhs),rhsMax =   3.73766295643834E-01  2.27483643932652E+00
(PID.TID 0000.0001)  cg2d: iter=     1 ; resid.=  1.30822028241397E-01
(PID.TID 0000.0001)  cg2d: iter=     2 ; resid.=  1.10247510438135E-01
(PID.TID 0000.0001)  cg2d: iter=     3 ; resid.=  1.06127039312581E-01
(PID.TID 0000.0001)  cg2d: iter=     4 ; resid.=  9.35489624138627E-02
(PID.TID 0000.0001)  cg2d: iter=     5 ; resid.=  8.31274844514718E-02
(PID.TID 0000.0001)  cg2d: iter=     6 ; resid.=  7.64055383754524E-02
(PID.TID 0000.0001)  cg2d: iter=     7 ; resid.=  6.09777316465492E-02
(PID.TID 0000.0001)  cg2d: iter=     8 ; resid.=  4.85251740386259E-02
(PID.TID 0000.0001)  cg2d: iter=     9 ; resid.=  3.95291710941506E-02
(PID.TID 0000.0001)  cg2d: iter=    10 ; resid.=  3.30254522477072E-02
(PID.TID 0000.0001)  cg2d: iter=    11 ; resid.=  2.86410904396166E-02
(PID.TID 0000.0001)  cg2d: iter=    12 ; resid.=  2.21614145284570E-02
(PID.TID 0000.0001)  cg2d: iter=    13 ; resid.=  1.77283511132824E-02
(PID.TID 0000.0001)  cg2d: iter=    14 ; resid.=  1.45909833217289E-02
(PID.TID 0000.0001)  cg2d: iter=    15 ; resid.=  1.22628365576405E-02
(PID.TID 0000.0001)  cg2d: iter=    16 ; resid.=  1.13712046402249E-02
(PID.TID 0000.0001)  cg2d: iter=    17 ; resid.=  1.02062597070701E-02
(PID.TID 0000.0001)  cg2d: iter=    18 ; resid.=  8.53327713432793E-03
(PID.TID 0000.0001)  cg2d: iter=    19 ; resid.=  7.31836871172753E-03
(PID.TID 0000.0001)  cg2d: iter=    20 ; resid.=  5.56238793606764E-03
(PID.TID 0000.0001)  cg2d: iter=    21 ; resid.=  4.81734999876134E-03
(PID.TID 0000.0001)  cg2d: iter=    22 ; resid.=  4.16357823115238E-03
(PID.TID 0000.0001)  cg2d: iter=    23 ; resid.=  3.24081837965459E-03
(PID.TID 0000.0001)  cg2d: iter=    24 ; resid.=  2.75890314362899E-03
(PID.TID 0000.0001)  cg2d: iter=    25 ; resid.=  2.14819998268579E-03
(PID.TID 0000.0001)  cg2d: iter=    26 ; resid.=  1.75195566526235E-03
(PID.TID 0000.0001)  cg2d: iter=    27 ; resid.=  1.47616928371125E-03
(PID.TID 0000.0001)  cg2d: iter=    28 ; resid.=  1.24752815852822E-03
(PID.TID 0000.0001)  cg2d: iter=    29 ; resid.=  9.88414686916659E-04
(PID.TID 0000.0001)  cg2d: iter=    30 ; resid.=  8.38157817742343E-04
(PID.TID 0000.0001)  cg2d: iter=    31 ; resid.=  7.16652784185097E-04
(PID.TID 0000.0001)  cg2d: iter=    32 ; resid.=  5.30655916600392E-04
(PID.TID 0000.0001)  cg2d: iter=    33 ; resid.=  4.40027063352275E-04
(PID.TID 0000.0001)  cg2d: iter=    34 ; resid.=  4.05059073377931E-04
(PID.TID 0000.0001)  cg2d: iter=    35 ; resid.=  3.17366007900120E-04
(PID.TID 0000.0001)  cg2d: iter=    36 ; resid.=  2.77258974457314E-04
(PID.TID 0000.0001)  cg2d: iter=    37 ; resid.=  2.44189698377304E-04
(PID.TID 0000.0001)  cg2d: iter=    38 ; resid.=  2.10391802950091E-04
(PID.TID 0000.0001)  cg2d: iter=    39 ; resid.=  1.86952067138138E-04
(PID.TID 0000.0001)  cg2d: iter=    40 ; resid.=  1.61443937974380E-04
(PID.TID 0000.0001)  cg2d: iter=    41 ; resid.=  1.38962185384527E-04
(PID.TID 0000.0001)  cg2d: iter=    42 ; resid.=  1.22120742175725E-04
(PID.TID 0000.0001)  cg2d: iter=    43 ; resid.=  1.02699922942122E-04
(PID.TID 0000.0001)  cg2d: iter=    44 ; resid.=  7.97571572726476E-05
(PID.TID 0000.0001)  cg2d: iter=    45 ; resid.=  6.39038920389947E-05
(PID.TID 0000.0001)  cg2d: iter=    46 ; resid.=  4.84220787612002E-05
(PID.TID 0000.0001)  cg2d: iter=    47 ; resid.=  4.14550715137641E-05
(PID.TID 0000.0001)  cg2d: iter=    48 ; resid.=  3.67536828390465E-05
(PID.TID 0000.0001)  cg2d: iter=    49 ; resid.=  3.02836785451290E-05
(PID.TID 0000.0001)  cg2d: iter=    50 ; resid.=  2.41654464109887E-05
(PID.TID 0000.0001)  cg2d: iter=    51 ; resid.=  2.07312133352504E-05
(PID.TID 0000.0001)  cg2d: iter=    52 ; resid.=  1.72925843146854E-05
(PID.TID 0000.0001)  cg2d: iter=    53 ; resid.=  1.51888805095838E-05
(PID.TID 0000.0001)  cg2d: iter=    54 ; resid.=  1.19604217720090E-05
(PID.TID 0000.0001)  cg2d: iter=    55 ; resid.=  1.01408868914774E-05
(PID.TID 0000.0001)  cg2d: iter=    56 ; resid.=  8.91301407202718E-06
(PID.TID 0000.0001)  cg2d: iter=    57 ; resid.=  7.05230927755284E-06
(PID.TID 0000.0001)  cg2d: iter=    58 ; resid.=  5.29092255599796E-06
(PID.TID 0000.0001)  cg2d: iter=    59 ; resid.=  4.11699543194769E-06
(PID.TID 0000.0001)  cg2d: iter=    60 ; resid.=  3.50984752400291E-06
(PID.TID 0000.0001)  cg2d: iter=    61 ; resid.=  2.87689916003129E-06
(PID.TID 0000.0001)  cg2d: iter=    62 ; resid.=  2.49137426693474E-06
(PID.TID 0000.0001)  cg2d: iter=    63 ; resid.=  2.27367434938845E-06
(PID.TID 0000.0001)  cg2d: iter=    64 ; resid.=  1.93529881824886E-06
(PID.TID 0000.0001)  cg2d: iter=    65 ; resid.=  1.47755035376259E-06
(PID.TID 0000.0001)  cg2d: iter=    66 ; resid.=  1.16054843968194E-06
(PID.TID 0000.0001)  cg2d: iter=    67 ; resid.=  9.66286402116706E-07
(PID.TID 0000.0001)  cg2d: iter=    68 ; resid.=  7.17333968284999E-07
(PID.TID 0000.0001)  cg2d: iter=    69 ; resid.=  5.69845055684130E-07
(PID.TID 0000.0001)  cg2d: iter=    70 ; resid.=  4.57306488506206E-07
(PID.TID 0000.0001)  cg2d: iter=    71 ; resid.=  3.96912319449185E-07
(PID.TID 0000.0001)  cg2d: iter=    72 ; resid.=  3.63505639120424E-07
(PID.TID 0000.0001)  cg2d: iter=    73 ; resid.=  3.35053900739158E-07
(PID.TID 0000.0001)  cg2d: iter=    74 ; resid.=  2.68160791704144E-07
(PID.TID 0000.0001)  cg2d: iter=    75 ; resid.=  2.12485292163422E-07
(PID.TID 0000.0001)  cg2d: iter=    76 ; resid.=  1.73081760016389E-07
(PID.TID 0000.0001)  cg2d: iter=    77 ; resid.=  1.50674467193896E-07
(PID.TID 0000.0001)  cg2d: iter=    78 ; resid.=  1.27846703534026E-07
(PID.TID 0000.0001)  cg2d: iter=    79 ; resid.=  1.08499136736131E-07
(PID.TID 0000.0001)  cg2d: iter=    80 ; resid.=  8.42891740448622E-08
(PID.TID 0000.0001)  cg2d: iter=    81 ; resid.=  6.16976086120355E-08
(PID.TID 0000.0001)  cg2d: iter=    82 ; resid.=  4.58323952648013E-08
(PID.TID 0000.0001)  cg2d: iter=    83 ; resid.=  3.43496824083649E-08
(PID.TID 0000.0001)  cg2d: iter=    84 ; resid.=  2.42960459726847E-08
(PID.TID 0000.0001)  cg2d: iter=    85 ; resid.=  1.85798827731432E-08
(PID.TID 0000.0001)  cg2d: iter=    86 ; resid.=  1.52374855135295E-08
(PID.TID 0000.0001)  cg2d: iter=    87 ; resid.=  1.20010474879851E-08
(PID.TID 0000.0001)  cg2d: iter=    88 ; resid.=  9.27090426640747E-09
(PID.TID 0000.0001)  cg2d: iter=    89 ; resid.=  8.02989127441037E-09
(PID.TID 0000.0001)  cg2d: iter=    90 ; resid.=  6.50524688638662E-09
(PID.TID 0000.0001)  cg2d: iter=    91 ; resid.=  4.61817775442586E-09
(PID.TID 0000.0001)  cg2d: iter=    92 ; resid.=  3.30059508937741E-09
(PID.TID 0000.0001)  cg2d: iter=    93 ; resid.=  2.42425687780036E-09
(PID.TID 0000.0001)  cg2d: iter=    94 ; resid.=  1.84631838777282E-09
(PID.TID 0000.0001)  cg2d: iter=    95 ; resid.=  1.55862044161303E-09
(PID.TID 0000.0001)  cg2d: iter=    96 ; resid.=  1.15980461311958E-09
(PID.TID 0000.0001)  cg2d: iter=    97 ; resid.=  8.54370831615035E-10
(PID.TID 0000.0001)  cg2d: iter=    98 ; resid.=  6.42473104517661E-10
(PID.TID 0000.0001)  cg2d: iter=    99 ; resid.=  4.95375427128800E-10
(PID.TID 0000.0001)  cg2d: iter=   100 ; resid.=  4.18898122666710E-10
(PID.TID 0000.0001)  cg2d: iter=   101 ; resid.=  3.37255057559180E-10
(PID.TID 0000.0001)  cg2d: iter=   102 ; resid.=  2.75186063684127E-10
(PID.TID 0000.0001)  cg2d: iter=   103 ; resid.=  2.43282495749616E-10
(PID.TID 0000.0001)  cg2d: iter=   104 ; resid.=  2.04516312414598E-10
(PID.TID 0000.0001)  cg2d: iter=   105 ; resid.=  1.71071199193713E-10
(PID.TID 0000.0001)  cg2d: iter=   106 ; resid.=  1.39458044940458E-10
(PID.TID 0000.0001)  cg2d: iter=   107 ; resid.=  1.11969849607604E-10
(PID.TID 0000.0001)  cg2d: iter=   108 ; resid.=  8.67805173047607E-11
(PID.TID 0000.0001)  cg2d: iter=   109 ; resid.=  6.93165541210806E-11
(PID.TID 0000.0001)  cg2d: iter=   110 ; resid.=  6.01721696364330E-11
(PID.TID 0000.0001)  cg2d: iter=   111 ; resid.=  5.12683551428287E-11
(PID.TID 0000.0001)  cg2d: iter=   112 ; resid.=  4.05666164437255E-11
(PID.TID 0000.0001)  cg2d: iter=   113 ; resid.=  2.97176065724073E-11
(PID.TID 0000.0001)  cg2d: iter=   114 ; resid.=  2.33191572736939E-11
(PID.TID 0000.0001)  cg2d: iter=   115 ; resid.=  1.82869470602194E-11
(PID.TID 0000.0001)  cg2d: iter=   116 ; resid.=  1.38120393752820E-11
(PID.TID 0000.0001)  cg2d: iter=   117 ; resid.=  1.04217992606067E-11
(PID.TID 0000.0001)  cg2d: iter=   118 ; resid.=  8.16011879732544E-12
(PID.TID 0000.0001)  cg2d: iter=   119 ; resid.=  5.83376213962914E-12
(PID.TID 0000.0001)  cg2d: iter=   120 ; resid.=  4.61303741568625E-12
(PID.TID 0000.0001)  cg2d: iter=   121 ; resid.=  3.48364119107181E-12
(PID.TID 0000.0001)  cg2d: iter=   122 ; resid.=  2.57897610939653E-12
(PID.TID 0000.0001)  cg2d: iter=   123 ; resid.=  1.91096212512206E-12
(PID.TID 0000.0001)  cg2d: iter=   124 ; resid.=  1.40354699751038E-12
(PID.TID 0000.0001)  cg2d: iter=   125 ; resid.=  1.07068710154150E-12
(PID.TID 0000.0001)  cg2d: iter=   126 ; resid.=  7.90524215926044E-13
(PID.TID 0000.0001)  cg2d: iter=   127 ; resid.=  5.36691688495509E-13
(PID.TID 0000.0001)  cg2d: iter=   128 ; resid.=  3.99524596826613E-13
(PID.TID 0000.0001)  cg2d: iter=   129 ; resid.=  2.93647925907401E-13
(PID.TID 0000.0001)  cg2d: iter=   130 ; resid.=  2.22114782928806E-13
(PID.TID 0000.0001)  cg2d: iter=   131 ; resid.=  1.59313624742996E-13
(PID.TID 0000.0001)  cg2d: iter=   132 ; resid.=  1.18572128830478E-13
(PID.TID 0000.0001)  cg2d: iter=   133 ; resid.=  9.03297783011040E-14
DEBUG_STATS_RL:    cg2d_x (SOLVE_FOR_PRESSURE)  min= -1.86632472664943E+01
DEBUG_STATS_RL:    cg2d_x (SOLVE_FOR_PRESSURE)  max=  7.41434795832779E+00
DEBUG_STATS_RL:    cg2d_x (SOLVE_FOR_PRESSURE) mean= -1.73966878162395E+00
DEBUG_STATS_RL:    cg2d_x (SOLVE_FOR_PRESSURE) S.D.=  6.76756992743072E+00
(PID.TID 0000.0001)      cg2d_init_res =   2.46948458874095E-01
(PID.TID 0000.0001)      cg2d_iters(min,last) =      -1     133
(PID.TID 0000.0001)      cg2d_last_res =   9.03297783011040E-14
(PID.TID 0000.0001) // =======================================================
(PID.TID 0000.0001) // Begin MONITOR dynamic field statistics
(PID.TID 0000.0001) // =======================================================
(PID.TID 0000.0001) %MON time_tsnumber                =                    94
(PID.TID 0000.0001) %MON time_secondsf                =   8.1216000000000E+06
(PID.TID 0000.0001) %MON dynstat_eta_max              =   7.5579489891211E-01
(PID.TID 0000.0001) %MON dynstat_eta_min              =  -1.9024716887355E+00
(PID.TID 0000.0001) %MON dynstat_eta_mean             =  -5.8343074872970E-03
(PID.TID 0000.0001) %MON dynstat_eta_sd               =   5.8567811360928E-01
(PID.TID 0000.0001) %MON dynstat_eta_del2             =   2.6807776554050E-03
(PID.TID 0000.0001) %MON dynstat_uvel_max             =   1.3743331564212E-01
(PID.TID 0000.0001) %MON dynstat_uvel_min             =  -1.4810889491935E-01
(PID.TID 0000.0001) %MON dynstat_uvel_mean            =   1.8657501565144E-03
(PID.TID 0000.0001) %MON dynstat_uvel_sd              =   1.7924823756347E-02
(PID.TID 0000.0001) %MON dynstat_uvel_del2            =   1.5515964807064E-04
(PID.TID 0000.0001) %MON dynstat_vvel_max             =   1.5079104675156E-01
(PID.TID 0000.0001) %MON dynstat_vvel_min             =  -1.1155807519654E-01
(PID.TID 0000.0001) %MON dynstat_vvel_mean            =   1.3272841230470E-04
(PID.TID 0000.0001) %MON dynstat_vvel_sd              =   9.7239792211512E-03
(PID.TID 0000.0001) %MON dynstat_vvel_del2            =   9.0657630399546E-05
(PID.TID 0000.0001) %MON dynstat_wvel_max             =   1.1414959095565E-04
(PID.TID 0000.0001) %MON dynstat_wvel_min             =  -1.1337529097536E-04
(PID.TID 0000.0001) %MON dynstat_wvel_mean            =   1.3335526964336E-22
(PID.TID 0000.0001) %MON dynstat_wvel_sd              =   1.2926568473070E-05
(PID.TID 0000.0001) %MON dynstat_wvel_del2            =   1.2555885045991E-07
(PID.TID 0000.0001) %MON dynstat_theta_max            =   3.1288522183186E+01
(PID.TID 0000.0001) %MON dynstat_theta_min            =  -1.9290851961084E+00
(PID.TID 0000.0001) %MON dynstat_theta_mean           =   3.6541903429903E+00
(PID.TID 0000.0001) %MON dynstat_theta_sd             =   4.4291780457933E+00
(PID.TID 0000.0001) %MON dynstat_theta_del2           =   4.8576842862530E-03
(PID.TID 0000.0001) %MON dynstat_salt_max             =   3.7497489607415E+01
(PID.TID 0000.0001) %MON dynstat_salt_min             =   2.9987466475774E+01
(PID.TID 0000.0001) %MON dynstat_salt_mean            =   3.4747980132122E+01
(PID.TID 0000.0001) %MON dynstat_salt_sd              =   2.9661625413987E-01
(PID.TID 0000.0001) %MON dynstat_salt_del2            =   9.9973990562638E-04
(PID.TID 0000.0001) %MON dynstat_sst_max              =   3.1288522183186E+01
(PID.TID 0000.0001) %MON dynstat_sst_min              =  -1.9290851961084E+00
(PID.TID 0000.0001) %MON dynstat_sst_mean             =   1.9070483685098E+01
(PID.TID 0000.0001) %MON dynstat_sst_sd               =   9.2874915831296E+00
(PID.TID 0000.0001) %MON dynstat_sst_del2             =   2.9353842855243E-02
(PID.TID 0000.0001) %MON dynstat_sss_max              =   3.7497489607415E+01
(PID.TID 0000.0001) %MON dynstat_sss_min              =   2.9987466475774E+01
(PID.TID 0000.0001) %MON dynstat_sss_mean             =   3.4867374014650E+01
(PID.TID 0000.0001) %MON dynstat_sss_sd               =   9.9273923669572E-01
(PID.TID 0000.0001) %MON dynstat_sss_del2             =   8.3280019657746E-03
(PID.TID 0000.0001) %MON forcing_qnet_max             =   1.8981346435547E+02
(PID.TID 0000.0001) %MON forcing_qnet_min             =  -1.5615165710449E+02
(PID.TID 0000.0001) %MON forcing_qnet_mean            =  -1.1841026869120E-01
(PID.TID 0000.0001) %MON forcing_qnet_sd              =   4.0013480692075E+01
(PID.TID 0000.0001) %MON forcing_qnet_del2            =   7.8393243873400E-01
(PID.TID 0000.0001) %MON forcing_qsw_max              =   0.0000000000000E+00
(PID.TID 0000.0001) %MON forcing_qsw_min              =   0.0000000000000E+00
(PID.TID 0000.0001) %MON forcing_qsw_mean             =   0.0000000000000E+00
(PID.TID 0000.0001) %MON forcing_qsw_sd               =   0.0000000000000E+00
(PID.TID 0000.0001) %MON forcing_qsw_del2             =   0.0000000000000E+00
(PID.TID 0000.0001) %MON forcing_empmr_max            =   6.7377743562247E-05
(PID.TID 0000.0001) %MON forcing_empmr_min            =  -8.3531647021573E-05
(PID.TID 0000.0001) %MON forcing_empmr_mean           =   1.4669448678252E-07
(PID.TID 0000.0001) %MON forcing_empmr_sd             =   2.5518064463179E-05
(PID.TID 0000.0001) %MON forcing_empmr_del2           =   3.6546096507275E-07
(PID.TID 0000.0001) %MON forcing_fu_max               =   3.4641349911690E-01
(PID.TID 0000.0001) %MON forcing_fu_min               =  -4.0535171627998E-01
(PID.TID 0000.0001) %MON forcing_fu_mean              =   1.8167271555597E-02
(PID.TID 0000.0001) %MON forcing_fu_sd                =   1.0064293488596E-01
(PID.TID 0000.0001) %MON forcing_fu_del2              =   7.8101122025666E-04
(PID.TID 0000.0001) %MON forcing_fv_max               =   1.8157232403755E-01
(PID.TID 0000.0001) %MON forcing_fv_min               =  -1.4387770295143E-01
(PID.TID 0000.0001) %MON forcing_fv_mean              =  -6.8729953373301E-03
(PID.TID 0000.0001) %MON forcing_fv_sd                =   3.8666482891470E-02
(PID.TID 0000.0001) %MON forcing_fv_del2              =   4.1536218314166E-04
(PID.TID 0000.0001) %MON trAdv_CFL_u_max              =   5.1620210230162E-02
(PID.TID 0000.0001) %MON trAdv_CFL_v_max              =   2.9878391498093E-02
(PID.TID 0000.0001) %MON trAdv_CFL_w_max              =   3.5635678333652E-02
(PID.TID 0000.0001) %MON advcfl_uvel_max              =   5.0387088875729E-02
(PID.TID 0000.0001) %MON advcfl_vvel_max              =   2.9296281986193E-02
(PID.TID 0000.0001) %MON advcfl_wvel_max              =   4.0071539604913E-02
(PID.TID 0000.0001) %MON advcfl_W_hf_max              =   4.8658298091680E-02
(PID.TID 0000.0001) %MON pe_b_mean                    =   4.3897752432834E-04
(PID.TID 0000.0001) %MON ke_max                       =   1.2304546093981E-02
(PID.TID 0000.0001) %MON ke_mean                      =   1.9001075888830E-04
(PID.TID 0000.0001) %MON ke_vol                       =   1.3226782436723E+18
(PID.TID 0000.0001) %MON vort_r_min                   =  -4.1257942894889E-07
(PID.TID 0000.0001) %MON vort_r_max                   =   6.0767757446620E-07
(PID.TID 0000.0001) %MON vort_a_mean                  =  -2.5274807419802E-05
(PID.TID 0000.0001) %MON vort_a_sd                    =   7.3604560488350E-05
(PID.TID 0000.0001) %MON vort_p_mean                  =  -3.1845655827634E-05
(PID.TID 0000.0001) %MON vort_p_sd                    =   1.3162432387901E-04
(PID.TID 0000.0001) %MON surfExpan_theta_mean         =  -4.1783110870808E-07
(PID.TID 0000.0001) %MON surfExpan_salt_mean          =   1.5073420530435E-07
(PID.TID 0000.0001) // =======================================================
(PID.TID 0000.0001) // End MONITOR dynamic field statistics
(PID.TID 0000.0001) // =======================================================
 EXTERNAL_FIELDS_LOAD,        94 : iP,iLd,i0,i1=    3    4    3    4 ; Wght=  0.3666666667  0.6333333333
 EXTERNAL_FIELDS_LOAD: (fu0,1),fu,fv= -2.7199E-02 -3.7252E-02 -3.3566E-02 -2.2515E-02
 EXTERNAL_FIELDS_LOAD: SST,SSS,Q,E-P= -4.5052E-02  3.4573E+01  1.4491E+02  8.2500E-06
DEBUG_STATS_RL:          Uvel (THERMODYNAMICS)  min= -1.48108894919354E-01
DEBUG_STATS_RL:          Uvel (THERMODYNAMICS)  max=  1.37433315642125E-01
DEBUG_STATS_RL:          Uvel (THERMODYNAMICS) mean=  5.36715230165074E-03
DEBUG_STATS_RL:          Uvel (THERMODYNAMICS) S.D.=  2.46166749486095E-02
DEBUG_STATS_RL:          Vvel (THERMODYNAMICS)  min= -1.11558075196543E-01
DEBUG_STATS_RL:          Vvel (THERMODYNAMICS)  max=  1.50791046751563E-01
DEBUG_STATS_RL:          Vvel (THERMODYNAMICS) mean=  9.56939335638950E-04
DEBUG_STATS_RL:          Vvel (THERMODYNAMICS) S.D.=  1.45495520769890E-02
DEBUG_STATS_RL:          Wvel (THERMODYNAMICS)  min= -1.13375290975357E-04
DEBUG_STATS_RL:          Wvel (THERMODYNAMICS)  max=  1.14149590955648E-04
DEBUG_STATS_RL:          Wvel (THERMODYNAMICS) mean= -2.02722939418221E-08
DEBUG_STATS_RL:          Wvel (THERMODYNAMICS) S.D.=  1.10657889109008E-05
DEBUG_STATS_RL:         Theta (THERMODYNAMICS)  min= -1.92840519814915E+00
DEBUG_STATS_RL:         Theta (THERMODYNAMICS)  max=  3.13015046408858E+01
DEBUG_STATS_RL:         Theta (THERMODYNAMICS) mean=  3.24964173675986E+00
DEBUG_STATS_RL:         Theta (THERMODYNAMICS) S.D.=  5.88936057630506E+00
DEBUG_STATS_RL:          Salt (THERMODYNAMICS)  min=  3.00000000000000E-02
DEBUG_STATS_RL:          Salt (THERMODYNAMICS)  max=  3.74976411417367E+01
DEBUG_STATS_RL:          Salt (THERMODYNAMICS) mean=  1.88747247442088E+01
DEBUG_STATS_RL:          Salt (THERMODYNAMICS) S.D.=  1.73002878784010E+01
DEBUG_STATS_RL:         GtNm1 (THERMODYNAMICS)  min= -2.19547894416515E-06
DEBUG_STATS_RL:         GtNm1 (THERMODYNAMICS)  max=  2.18722106603183E-06
DEBUG_STATS_RL:         GtNm1 (THERMODYNAMICS) mean= -1.75672850109352E-09
DEBUG_STATS_RL:         GtNm1 (THERMODYNAMICS) S.D.=  1.47761944792135E-07
DEBUG_STATS_RL:         GsNm1 (THERMODYNAMICS)  min= -4.69614591347130E-07
DEBUG_STATS_RL:         GsNm1 (THERMODYNAMICS)  max=  4.23414282798891E-07
DEBUG_STATS_RL:         GsNm1 (THERMODYNAMICS) mean= -2.41353239622449E-10
DEBUG_STATS_RL:         GsNm1 (THERMODYNAMICS) S.D.=  1.51700427964894E-08
DEBUG_STATS_RL:                EtaN (DYNAMICS)  min= -1.90247168873552E+00
DEBUG_STATS_RL:                EtaN (DYNAMICS)  max=  7.55794898912115E-01
DEBUG_STATS_RL:                EtaN (DYNAMICS) mean= -1.77336267239954E-01
DEBUG_STATS_RL:                EtaN (DYNAMICS) S.D.=  6.89864416659604E-01
DEBUG_STATS_RL:                Uvel (DYNAMICS)  min= -1.48108894919354E-01
DEBUG_STATS_RL:                Uvel (DYNAMICS)  max=  1.37433315642125E-01
DEBUG_STATS_RL:                Uvel (DYNAMICS) mean=  5.36715230165074E-03
DEBUG_STATS_RL:                Uvel (DYNAMICS) S.D.=  2.46166749486095E-02
DEBUG_STATS_RL:                Vvel (DYNAMICS)  min= -1.11558075196543E-01
DEBUG_STATS_RL:                Vvel (DYNAMICS)  max=  1.50791046751563E-01
DEBUG_STATS_RL:                Vvel (DYNAMICS) mean=  9.56939335638950E-04
DEBUG_STATS_RL:                Vvel (DYNAMICS) S.D.=  1.45495520769890E-02
DEBUG_STATS_RL:                Wvel (DYNAMICS)  min= -1.13375290975357E-04
DEBUG_STATS_RL:                Wvel (DYNAMICS)  max=  1.14149590955648E-04
DEBUG_STATS_RL:                Wvel (DYNAMICS) mean= -2.02722939418221E-08
DEBUG_STATS_RL:                Wvel (DYNAMICS) S.D.=  1.10657889109008E-05
DEBUG_STATS_RL:               Theta (DYNAMICS)  min= -1.92840519814915E+00
DEBUG_STATS_RL:               Theta (DYNAMICS)  max=  3.13015046408858E+01
DEBUG_STATS_RL:               Theta (DYNAMICS) mean=  3.24964173675986E+00
DEBUG_STATS_RL:               Theta (DYNAMICS) S.D.=  5.88936057630506E+00
DEBUG_STATS_RL:                Salt (DYNAMICS)  min=  3.00000000000000E-02
DEBUG_STATS_RL:                Salt (DYNAMICS)  max=  3.74976411417367E+01
DEBUG_STATS_RL:                Salt (DYNAMICS) mean=  1.88747247442088E+01
DEBUG_STATS_RL:                Salt (DYNAMICS) S.D.=  1.73002878784010E+01
DEBUG_STATS_RL:                  Gu (DYNAMICS)  min= -1.47206560919396E-01
DEBUG_STATS_RL:                  Gu (DYNAMICS)  max=  1.32232359336909E-01
DEBUG_STATS_RL:                  Gu (DYNAMICS) mean=  5.29682783124109E-03
DEBUG_STATS_RL:                  Gu (DYNAMICS) S.D.=  2.48991966246954E-02
DEBUG_STATS_RL:                  Gv (DYNAMICS)  min= -1.08777802794451E-01
DEBUG_STATS_RL:                  Gv (DYNAMICS)  max=  1.50530909957970E-01
DEBUG_STATS_RL:                  Gv (DYNAMICS) mean=  3.45209986205798E-03
DEBUG_STATS_RL:                  Gv (DYNAMICS) S.D.=  1.60224680931747E-02
DEBUG_STATS_RL:               GuNm1 (DYNAMICS)  min= -1.00639287361627E-05
DEBUG_STATS_RL:               GuNm1 (DYNAMICS)  max=  1.03234575458294E-05
DEBUG_STATS_RL:               GuNm1 (DYNAMICS) mean=  1.99709334207855E-08
DEBUG_STATS_RL:               GuNm1 (DYNAMICS) S.D.=  1.24287838352400E-06
DEBUG_STATS_RL:               GvNm1 (DYNAMICS)  min= -9.30782376839597E-06
DEBUG_STATS_RL:               GvNm1 (DYNAMICS)  max=  1.49688998940178E-05
DEBUG_STATS_RL:               GvNm1 (DYNAMICS) mean=  7.45067055874902E-07
DEBUG_STATS_RL:               GvNm1 (DYNAMICS) S.D.=  2.61883994148850E-06
DEBUG_STATS_RL:               GtNm1 (DYNAMICS)  min= -2.19547894416515E-06
DEBUG_STATS_RL:               GtNm1 (DYNAMICS)  max=  2.18722106603183E-06
DEBUG_STATS_RL:               GtNm1 (DYNAMICS) mean= -1.75672850109352E-09
DEBUG_STATS_RL:               GtNm1 (DYNAMICS) S.D.=  1.47761944792135E-07
DEBUG_STATS_RL:               GsNm1 (DYNAMICS)  min= -4.69614591347130E-07
DEBUG_STATS_RL:               GsNm1 (DYNAMICS)  max=  4.23414282798891E-07
DEBUG_STATS_RL:               GsNm1 (DYNAMICS) mean= -2.41353239622449E-10
DEBUG_STATS_RL:               GsNm1 (DYNAMICS) S.D.=  1.51700427964894E-08
DEBUG_STATS_RL:    cg2d_b (SOLVE_FOR_PRESSURE)  min= -3.05362389684548E+04
DEBUG_STATS_RL:    cg2d_b (SOLVE_FOR_PRESSURE)  max=  3.46806157340287E+04
DEBUG_STATS_RL:    cg2d_b (SOLVE_FOR_PRESSURE) mean=  5.60170021639551E+00
DEBUG_STATS_RL:    cg2d_b (SOLVE_FOR_PRESSURE) S.D.=  4.17526923794977E+03
 cg2d: Sum(rhs),rhsMax =   3.73924618305807E-01  2.27791569618327E+00
(PID.TID 0000.0001)  cg2d: iter=     1 ; resid.=  1.24411694013498E-01
(PID.TID 0000.0001)  cg2d: iter=     2 ; resid.=  9.88787802554627E-02
(PID.TID 0000.0001)  cg2d: iter=     3 ; resid.=  9.24521287254280E-02
(PID.TID 0000.0001)  cg2d: iter=     4 ; resid.=  8.00009540382677E-02
(PID.TID 0000.0001)  cg2d: iter=     5 ; resid.=  6.79251454136700E-02
(PID.TID 0000.0001)  cg2d: iter=     6 ; resid.=  6.22092025350097E-02
(PID.TID 0000.0001)  cg2d: iter=     7 ; resid.=  5.11196303605661E-02
(PID.TID 0000.0001)  cg2d: iter=     8 ; resid.=  4.24275370206201E-02
(PID.TID 0000.0001)  cg2d: iter=     9 ; resid.=  3.56214042758096E-02
(PID.TID 0000.0001)  cg2d: iter=    10 ; resid.=  3.03797784436536E-02
(PID.TID 0000.0001)  cg2d: iter=    11 ; resid.=  2.65128620440776E-02
(PID.TID 0000.0001)  cg2d: iter=    12 ; resid.=  2.04565594799412E-02
(PID.TID 0000.0001)  cg2d: iter=    13 ; resid.=  1.62228295997651E-02
(PID.TID 0000.0001)  cg2d: iter=    14 ; resid.=  1.33912988128617E-02
(PID.TID 0000.0001)  cg2d: iter=    15 ; resid.=  1.12461213531357E-02
(PID.TID 0000.0001)  cg2d: iter=    16 ; resid.=  1.01192378232886E-02
(PID.TID 0000.0001)  cg2d: iter=    17 ; resid.=  9.00180968327432E-03
(PID.TID 0000.0001)  cg2d: iter=    18 ; resid.=  7.59979445845184E-03
(PID.TID 0000.0001)  cg2d: iter=    19 ; resid.=  6.63912338662330E-03
(PID.TID 0000.0001)  cg2d: iter=    20 ; resid.=  5.12343719602979E-03
(PID.TID 0000.0001)  cg2d: iter=    21 ; resid.=  4.51677666535559E-03
(PID.TID 0000.0001)  cg2d: iter=    22 ; resid.=  3.84648238749430E-03
(PID.TID 0000.0001)  cg2d: iter=    23 ; resid.=  3.01555131978065E-03
(PID.TID 0000.0001)  cg2d: iter=    24 ; resid.=  2.50015165673557E-03
(PID.TID 0000.0001)  cg2d: iter=    25 ; resid.=  1.96537306858458E-03
(PID.TID 0000.0001)  cg2d: iter=    26 ; resid.=  1.61637430002061E-03
(PID.TID 0000.0001)  cg2d: iter=    27 ; resid.=  1.37122201020285E-03
(PID.TID 0000.0001)  cg2d: iter=    28 ; resid.=  1.15843187387302E-03
(PID.TID 0000.0001)  cg2d: iter=    29 ; resid.=  9.18058914080660E-04
(PID.TID 0000.0001)  cg2d: iter=    30 ; resid.=  7.79648113704452E-04
(PID.TID 0000.0001)  cg2d: iter=    31 ; resid.=  6.75389854016009E-04
(PID.TID 0000.0001)  cg2d: iter=    32 ; resid.=  5.12260461615819E-04
(PID.TID 0000.0001)  cg2d: iter=    33 ; resid.=  4.27994014590716E-04
(PID.TID 0000.0001)  cg2d: iter=    34 ; resid.=  3.85224704756418E-04
(PID.TID 0000.0001)  cg2d: iter=    35 ; resid.=  3.02760405618031E-04
(PID.TID 0000.0001)  cg2d: iter=    36 ; resid.=  2.66187803340664E-04
(PID.TID 0000.0001)  cg2d: iter=    37 ; resid.=  2.31544787672622E-04
(PID.TID 0000.0001)  cg2d: iter=    38 ; resid.=  1.99171117855584E-04
(PID.TID 0000.0001)  cg2d: iter=    39 ; resid.=  1.75379200433986E-04
(PID.TID 0000.0001)  cg2d: iter=    40 ; resid.=  1.51442602273801E-04
(PID.TID 0000.0001)  cg2d: iter=    41 ; resid.=  1.31697382191869E-04
(PID.TID 0000.0001)  cg2d: iter=    42 ; resid.=  1.17961255460737E-04
(PID.TID 0000.0001)  cg2d: iter=    43 ; resid.=  1.00235803111666E-04
(PID.TID 0000.0001)  cg2d: iter=    44 ; resid.=  7.73415730866585E-05
(PID.TID 0000.0001)  cg2d: iter=    45 ; resid.=  6.08878053582163E-05
(PID.TID 0000.0001)  cg2d: iter=    46 ; resid.=  4.56372298799974E-05
(PID.TID 0000.0001)  cg2d: iter=    47 ; resid.=  3.92313719915842E-05
(PID.TID 0000.0001)  cg2d: iter=    48 ; resid.=  3.37728130169366E-05
(PID.TID 0000.0001)  cg2d: iter=    49 ; resid.=  2.70048614464341E-05
(PID.TID 0000.0001)  cg2d: iter=    50 ; resid.=  2.08804499756940E-05
(PID.TID 0000.0001)  cg2d: iter=    51 ; resid.=  1.73465641193552E-05
(PID.TID 0000.0001)  cg2d: iter=    52 ; resid.=  1.44403371832165E-05
(PID.TID 0000.0001)  cg2d: iter=    53 ; resid.=  1.29075481027734E-05
(PID.TID 0000.0001)  cg2d: iter=    54 ; resid.=  1.06132460475954E-05
(PID.TID 0000.0001)  cg2d: iter=    55 ; resid.=  9.12588694964990E-06
(PID.TID 0000.0001)  cg2d: iter=    56 ; resid.=  7.78600229969375E-06
(PID.TID 0000.0001)  cg2d: iter=    57 ; resid.=  6.20575019067071E-06
(PID.TID 0000.0001)  cg2d: iter=    58 ; resid.=  4.61800562048198E-06
(PID.TID 0000.0001)  cg2d: iter=    59 ; resid.=  3.53575174413780E-06
(PID.TID 0000.0001)  cg2d: iter=    60 ; resid.=  3.01266656501565E-06
(PID.TID 0000.0001)  cg2d: iter=    61 ; resid.=  2.42226391668533E-06
(PID.TID 0000.0001)  cg2d: iter=    62 ; resid.=  2.05004207238676E-06
(PID.TID 0000.0001)  cg2d: iter=    63 ; resid.=  1.90101501157612E-06
(PID.TID 0000.0001)  cg2d: iter=    64 ; resid.=  1.70176498459159E-06
(PID.TID 0000.0001)  cg2d: iter=    65 ; resid.=  1.33796511225796E-06
(PID.TID 0000.0001)  cg2d: iter=    66 ; resid.=  1.06700771399117E-06
(PID.TID 0000.0001)  cg2d: iter=    67 ; resid.=  8.97169166643500E-07
(PID.TID 0000.0001)  cg2d: iter=    68 ; resid.=  6.47138932821839E-07
(PID.TID 0000.0001)  cg2d: iter=    69 ; resid.=  5.03982461879851E-07
(PID.TID 0000.0001)  cg2d: iter=    70 ; resid.=  3.92782603122718E-07
(PID.TID 0000.0001)  cg2d: iter=    71 ; resid.=  3.36559807785853E-07
(PID.TID 0000.0001)  cg2d: iter=    72 ; resid.=  2.94778190005396E-07
(PID.TID 0000.0001)  cg2d: iter=    73 ; resid.=  2.69958915304563E-07
(PID.TID 0000.0001)  cg2d: iter=    74 ; resid.=  2.13295734351715E-07
(PID.TID 0000.0001)  cg2d: iter=    75 ; resid.=  1.70464189934187E-07
(PID.TID 0000.0001)  cg2d: iter=    76 ; resid.=  1.43197037661578E-07
(PID.TID 0000.0001)  cg2d: iter=    77 ; resid.=  1.29115661810811E-07
(PID.TID 0000.0001)  cg2d: iter=    78 ; resid.=  1.11102382094513E-07
(PID.TID 0000.0001)  cg2d: iter=    79 ; resid.=  9.61380964590355E-08
(PID.TID 0000.0001)  cg2d: iter=    80 ; resid.=  7.56401533879174E-08
(PID.TID 0000.0001)  cg2d: iter=    81 ; resid.=  5.54208732687408E-08
(PID.TID 0000.0001)  cg2d: iter=    82 ; resid.=  4.19106274535899E-08
(PID.TID 0000.0001)  cg2d: iter=    83 ; resid.=  3.13326730348986E-08
(PID.TID 0000.0001)  cg2d: iter=    84 ; resid.=  2.18564145350838E-08
(PID.TID 0000.0001)  cg2d: iter=    85 ; resid.=  1.60985786636050E-08
(PID.TID 0000.0001)  cg2d: iter=    86 ; resid.=  1.31349679266604E-08
(PID.TID 0000.0001)  cg2d: iter=    87 ; resid.=  1.02519325888309E-08
(PID.TID 0000.0001)  cg2d: iter=    88 ; resid.=  7.84939078712893E-09
(PID.TID 0000.0001)  cg2d: iter=    89 ; resid.=  6.80933352428598E-09
(PID.TID 0000.0001)  cg2d: iter=    90 ; resid.=  5.75461414106913E-09
(PID.TID 0000.0001)  cg2d: iter=    91 ; resid.=  4.17155952945629E-09
(PID.TID 0000.0001)  cg2d: iter=    92 ; resid.=  3.00227045725203E-09
(PID.TID 0000.0001)  cg2d: iter=    93 ; resid.=  2.23893584432606E-09
(PID.TID 0000.0001)  cg2d: iter=    94 ; resid.=  1.68496571887393E-09
(PID.TID 0000.0001)  cg2d: iter=    95 ; resid.=  1.36164098326290E-09
(PID.TID 0000.0001)  cg2d: iter=    96 ; resid.=  9.86072100055951E-10
(PID.TID 0000.0001)  cg2d: iter=    97 ; resid.=  7.16916651911847E-10
(PID.TID 0000.0001)  cg2d: iter=    98 ; resid.=  5.19918193822039E-10
(PID.TID 0000.0001)  cg2d: iter=    99 ; resid.=  3.70052370260223E-10
(PID.TID 0000.0001)  cg2d: iter=   100 ; resid.=  2.89444731446252E-10
(PID.TID 0000.0001)  cg2d: iter=   101 ; resid.=  2.10601359575035E-10
(PID.TID 0000.0001)  cg2d: iter=   102 ; resid.=  1.56050201358948E-10
(PID.TID 0000.0001)  cg2d: iter=   103 ; resid.=  1.28731982155763E-10
(PID.TID 0000.0001)  cg2d: iter=   104 ; resid.=  1.03427773155006E-10
(PID.TID 0000.0001)  cg2d: iter=   105 ; resid.=  8.40358547464904E-11
(PID.TID 0000.0001)  cg2d: iter=   106 ; resid.=  6.73683624512206E-11
(PID.TID 0000.0001)  cg2d: iter=   107 ; resid.=  5.31930897377867E-11
(PID.TID 0000.0001)  cg2d: iter=   108 ; resid.=  3.88234031395647E-11
(PID.TID 0000.0001)  cg2d: iter=   109 ; resid.=  2.81167797165925E-11
(PID.TID 0000.0001)  cg2d: iter=   110 ; resid.=  2.24404737337282E-11
(PID.TID 0000.0001)  cg2d: iter=   111 ; resid.=  1.91855108627567E-11
(PID.TID 0000.0001)  cg2d: iter=   112 ; resid.=  1.66758708821052E-11
(PID.TID 0000.0001)  cg2d: iter=   113 ; resid.=  1.33867252473132E-11
(PID.TID 0000.0001)  cg2d: iter=   114 ; resid.=  1.14405358758692E-11
(PID.TID 0000.0001)  cg2d: iter=   115 ; resid.=  9.94798059211216E-12
(PID.TID 0000.0001)  cg2d: iter=   116 ; resid.=  8.22633338741645E-12
(PID.TID 0000.0001)  cg2d: iter=   117 ; resid.=  6.67592627433547E-12
(PID.TID 0000.0001)  cg2d: iter=   118 ; resid.=  5.67708560595910E-12
(PID.TID 0000.0001)  cg2d: iter=   119 ; resid.=  4.42211325408453E-12
(PID.TID 0000.0001)  cg2d: iter=   120 ; resid.=  3.55034967678504E-12
(PID.TID 0000.0001)  cg2d: iter=   121 ; resid.=  2.70451964830989E-12
(PID.TID 0000.0001)  cg2d: iter=   122 ; resid.=  2.02104124835519E-12
(PID.TID 0000.0001)  cg2d: iter=   123 ; resid.=  1.50762627554288E-12
(PID.TID 0000.0001)  cg2d: iter=   124 ; resid.=  1.11764368249977E-12
(PID.TID 0000.0001)  cg2d: iter=   125 ; resid.=  8.93517426348752E-13
(PID.TID 0000.0001)  cg2d: iter=   126 ; resid.=  6.82360637829055E-13
(PID.TID 0000.0001)  cg2d: iter=   127 ; resid.=  4.77879403676277E-13
(PID.TID 0000.0001)  cg2d: iter=   128 ; resid.=  3.53335277326981E-13
(PID.TID 0000.0001)  cg2d: iter=   129 ; resid.=  2.63250486521921E-13
(PID.TID 0000.0001)  cg2d: iter=   130 ; resid.=  2.04248467058062E-13
(PID.TID 0000.0001)  cg2d: iter=   131 ; resid.=  1.50659601948224E-13
(PID.TID 0000.0001)  cg2d: iter=   132 ; resid.=  1.11928203239153E-13
(PID.TID 0000.0001)  cg2d: iter=   133 ; resid.=  8.49581403146530E-14
DEBUG_STATS_RL:    cg2d_x (SOLVE_FOR_PRESSURE)  min= -1.82087073067612E+01
DEBUG_STATS_RL:    cg2d_x (SOLVE_FOR_PRESSURE)  max=  7.94450507892902E+00
DEBUG_STATS_RL:    cg2d_x (SOLVE_FOR_PRESSURE) mean= -1.72077577243249E+00
DEBUG_STATS_RL:    cg2d_x (SOLVE_FOR_PRESSURE) S.D.=  6.77161515537435E+00
(PID.TID 0000.0001)      cg2d_init_res =   2.42870351135057E-01
(PID.TID 0000.0001)      cg2d_iters(min,last) =      -1     133
(PID.TID 0000.0001)      cg2d_last_res =   8.49581403146530E-14
(PID.TID 0000.0001) // =======================================================
(PID.TID 0000.0001) // Begin MONITOR dynamic field statistics
(PID.TID 0000.0001) // =======================================================
(PID.TID 0000.0001) %MON time_tsnumber                =                    95
(PID.TID 0000.0001) %MON time_secondsf                =   8.2080000000000E+06
(PID.TID 0000.0001) %MON dynstat_eta_max              =   8.0983741885107E-01
(PID.TID 0000.0001) %MON dynstat_eta_min              =  -1.8561373401388E+00
(PID.TID 0000.0001) %MON dynstat_eta_mean             =  -5.8446795879129E-03
(PID.TID 0000.0001) %MON dynstat_eta_sd               =   5.8618834870042E-01
(PID.TID 0000.0001) %MON dynstat_eta_del2             =   2.6755842765175E-03
(PID.TID 0000.0001) %MON dynstat_uvel_max             =   1.3323420415148E-01
(PID.TID 0000.0001) %MON dynstat_uvel_min             =  -1.4820928629078E-01
(PID.TID 0000.0001) %MON dynstat_uvel_mean            =   1.8958575389300E-03
(PID.TID 0000.0001) %MON dynstat_uvel_sd              =   1.7807634235543E-02
(PID.TID 0000.0001) %MON dynstat_uvel_del2            =   1.5511737681889E-04
(PID.TID 0000.0001) %MON dynstat_vvel_max             =   1.4717879272566E-01
(PID.TID 0000.0001) %MON dynstat_vvel_min             =  -1.1034598136530E-01
(PID.TID 0000.0001) %MON dynstat_vvel_mean            =   1.2380577446671E-04
(PID.TID 0000.0001) %MON dynstat_vvel_sd              =   9.6508474364027E-03
(PID.TID 0000.0001) %MON dynstat_vvel_del2            =   9.0019197427458E-05
(PID.TID 0000.0001) %MON dynstat_wvel_max             =   1.1562292660015E-04
(PID.TID 0000.0001) %MON dynstat_wvel_min             =  -1.1276991068126E-04
(PID.TID 0000.0001) %MON dynstat_wvel_mean            =  -4.9796059579588E-23
(PID.TID 0000.0001) %MON dynstat_wvel_sd              =   1.2741031064404E-05
(PID.TID 0000.0001) %MON dynstat_wvel_del2            =   1.2434491507273E-07
(PID.TID 0000.0001) %MON dynstat_theta_max            =   3.1301504640886E+01
(PID.TID 0000.0001) %MON dynstat_theta_min            =  -1.9284051981491E+00
(PID.TID 0000.0001) %MON dynstat_theta_mean           =   3.6541954878195E+00
(PID.TID 0000.0001) %MON dynstat_theta_sd             =   4.4292233151386E+00
(PID.TID 0000.0001) %MON dynstat_theta_del2           =   4.8556414763126E-03
(PID.TID 0000.0001) %MON dynstat_salt_max             =   3.7497641141737E+01
(PID.TID 0000.0001) %MON dynstat_salt_min             =   2.9992071202116E+01
(PID.TID 0000.0001) %MON dynstat_salt_mean            =   3.4747977529948E+01
(PID.TID 0000.0001) %MON dynstat_salt_sd              =   2.9661778756941E-01
(PID.TID 0000.0001) %MON dynstat_salt_del2            =   1.0002120490297E-03
(PID.TID 0000.0001) %MON dynstat_sst_max              =   3.1301504640886E+01
(PID.TID 0000.0001) %MON dynstat_sst_min              =  -1.9284051981491E+00
(PID.TID 0000.0001) %MON dynstat_sst_mean             =   1.9067221701214E+01
(PID.TID 0000.0001) %MON dynstat_sst_sd               =   9.2944954016363E+00
(PID.TID 0000.0001) %MON dynstat_sst_del2             =   2.9375690936482E-02
(PID.TID 0000.0001) %MON dynstat_sss_max              =   3.7497641141737E+01
(PID.TID 0000.0001) %MON dynstat_sss_min              =   2.9992071202116E+01
(PID.TID 0000.0001) %MON dynstat_sss_mean             =   3.4867178046525E+01
(PID.TID 0000.0001) %MON dynstat_sss_sd               =   9.9314511931782E-01
(PID.TID 0000.0001) %MON dynstat_sss_del2             =   8.3393109277428E-03
(PID.TID 0000.0001) %MON forcing_qnet_max             =   1.8510822957357E+02
(PID.TID 0000.0001) %MON forcing_qnet_min             =  -1.5572366078695E+02
(PID.TID 0000.0001) %MON forcing_qnet_mean            =   2.7862616027840E-01
(PID.TID 0000.0001) %MON forcing_qnet_sd              =   4.0375401003210E+01
(PID.TID 0000.0001) %MON forcing_qnet_del2            =   7.8491634723733E-01
(PID.TID 0000.0001) %MON forcing_qsw_max              =   0.0000000000000E+00
(PID.TID 0000.0001) %MON forcing_qsw_min              =   0.0000000000000E+00
(PID.TID 0000.0001) %MON forcing_qsw_mean             =   0.0000000000000E+00
(PID.TID 0000.0001) %MON forcing_qsw_sd               =   0.0000000000000E+00
(PID.TID 0000.0001) %MON forcing_qsw_del2             =   0.0000000000000E+00
(PID.TID 0000.0001) %MON forcing_empmr_max            =   6.7281572550352E-05
(PID.TID 0000.0001) %MON forcing_empmr_min            =  -8.3546493101494E-05
(PID.TID 0000.0001) %MON forcing_empmr_mean           =   1.2424912195495E-07
(PID.TID 0000.0001) %MON forcing_empmr_sd             =   2.5509651539751E-05
(PID.TID 0000.0001) %MON forcing_empmr_del2           =   3.6610701590472E-07
(PID.TID 0000.0001) %MON forcing_fu_max               =   3.4592144489288E-01
(PID.TID 0000.0001) %MON forcing_fu_min               =  -4.0628478825092E-01
(PID.TID 0000.0001) %MON forcing_fu_mean              =   1.8040079458664E-02
(PID.TID 0000.0001) %MON forcing_fu_sd                =   1.0078745737191E-01
(PID.TID 0000.0001) %MON forcing_fu_del2              =   7.8389038691565E-04
(PID.TID 0000.0001) %MON forcing_fv_max               =   1.8147632280986E-01
(PID.TID 0000.0001) %MON forcing_fv_min               =  -1.4418310572704E-01
(PID.TID 0000.0001) %MON forcing_fv_mean              =  -6.8365186649570E-03
(PID.TID 0000.0001) %MON forcing_fv_sd                =   3.8691832000774E-02
(PID.TID 0000.0001) %MON forcing_fv_del2              =   4.1645921546217E-04
(PID.TID 0000.0001) %MON trAdv_CFL_u_max              =   5.0397322853855E-02
(PID.TID 0000.0001) %MON trAdv_CFL_v_max              =   2.9248671005613E-02
(PID.TID 0000.0001) %MON trAdv_CFL_w_max              =   3.9608706061155E-02
(PID.TID 0000.0001) %MON advcfl_uvel_max              =   4.8847571307593E-02
(PID.TID 0000.0001) %MON advcfl_vvel_max              =   2.8594478962549E-02
(PID.TID 0000.0001) %MON advcfl_wvel_max              =   4.0543617754247E-02
(PID.TID 0000.0001) %MON advcfl_W_hf_max              =   4.9231535844443E-02
(PID.TID 0000.0001) %MON pe_b_mean                    =   4.3974279950290E-04
(PID.TID 0000.0001) %MON ke_max                       =   1.2232683847466E-02
(PID.TID 0000.0001) %MON ke_mean                      =   1.8752263707255E-04
(PID.TID 0000.0001) %MON ke_vol                       =   1.3226782436723E+18
(PID.TID 0000.0001) %MON vort_r_min                   =  -4.0440207090037E-07
(PID.TID 0000.0001) %MON vort_r_max                   =   6.0562163615476E-07
(PID.TID 0000.0001) %MON vort_a_mean                  =  -2.5274807386175E-05
(PID.TID 0000.0001) %MON vort_a_sd                    =   7.3604572010951E-05
(PID.TID 0000.0001) %MON vort_p_mean                  =  -3.1845655785264E-05
(PID.TID 0000.0001) %MON vort_p_sd                    =   1.3162431335734E-04
(PID.TID 0000.0001) %MON surfExpan_theta_mean         =  -2.7933694318640E-07
(PID.TID 0000.0001) %MON surfExpan_salt_mean          =   1.1731662163885E-07
(PID.TID 0000.0001) // =======================================================
(PID.TID 0000.0001) // End MONITOR dynamic field statistics
(PID.TID 0000.0001) // =======================================================
 EXTERNAL_FIELDS_LOAD,        95 : iP,iLd,i0,i1=    3    4    3    4 ; Wght=  0.3333333333  0.6666666667
 EXTERNAL_FIELDS_LOAD: (fu0,1),fu,fv= -2.7199E-02 -3.7252E-02 -3.3901E-02 -2.3670E-02
 EXTERNAL_FIELDS_LOAD: SST,SSS,Q,E-P= -3.7744E-02  3.4572E+01  1.4120E+02  8.2063E-06
DEBUG_STATS_RL:          Uvel (THERMODYNAMICS)  min= -1.48209286290781E-01
DEBUG_STATS_RL:          Uvel (THERMODYNAMICS)  max=  1.33234204151478E-01
DEBUG_STATS_RL:          Uvel (THERMODYNAMICS) mean=  5.37162331000604E-03
DEBUG_STATS_RL:          Uvel (THERMODYNAMICS) S.D.=  2.45600097272915E-02
DEBUG_STATS_RL:          Vvel (THERMODYNAMICS)  min= -1.10345981365297E-01
DEBUG_STATS_RL:          Vvel (THERMODYNAMICS)  max=  1.47178792725659E-01
DEBUG_STATS_RL:          Vvel (THERMODYNAMICS) mean=  9.24271722006765E-04
DEBUG_STATS_RL:          Vvel (THERMODYNAMICS) S.D.=  1.44366231242618E-02
DEBUG_STATS_RL:          Wvel (THERMODYNAMICS)  min= -1.12769910681258E-04
DEBUG_STATS_RL:          Wvel (THERMODYNAMICS)  max=  1.15622926600153E-04
DEBUG_STATS_RL:          Wvel (THERMODYNAMICS) mean= -2.61519878495013E-08
DEBUG_STATS_RL:          Wvel (THERMODYNAMICS) S.D.=  1.08941462514335E-05
DEBUG_STATS_RL:         Theta (THERMODYNAMICS)  min= -1.92752406924802E+00
DEBUG_STATS_RL:         Theta (THERMODYNAMICS)  max=  3.13100874404813E+01
DEBUG_STATS_RL:         Theta (THERMODYNAMICS) mean=  3.24948253311878E+00
DEBUG_STATS_RL:         Theta (THERMODYNAMICS) S.D.=  5.88933276596631E+00
DEBUG_STATS_RL:          Salt (THERMODYNAMICS)  min=  3.00000000000000E-02
DEBUG_STATS_RL:          Salt (THERMODYNAMICS)  max=  3.74977793568227E+01
DEBUG_STATS_RL:          Salt (THERMODYNAMICS) mean=  1.88747175092748E+01
DEBUG_STATS_RL:          Salt (THERMODYNAMICS) S.D.=  1.73002819509777E+01
DEBUG_STATS_RL:         GtNm1 (THERMODYNAMICS)  min= -3.49469115867803E-06
DEBUG_STATS_RL:         GtNm1 (THERMODYNAMICS)  max=  2.38384311749009E-06
DEBUG_STATS_RL:         GtNm1 (THERMODYNAMICS) mean= -2.01220610401599E-09
DEBUG_STATS_RL:         GtNm1 (THERMODYNAMICS) S.D.=  1.47003262637099E-07
DEBUG_STATS_RL:         GsNm1 (THERMODYNAMICS)  min= -1.11565504079455E-06
DEBUG_STATS_RL:         GsNm1 (THERMODYNAMICS)  max=  7.35882790688635E-07
DEBUG_STATS_RL:         GsNm1 (THERMODYNAMICS) mean= -2.32225880878549E-10
DEBUG_STATS_RL:         GsNm1 (THERMODYNAMICS) S.D.=  1.64959351955499E-08
DEBUG_STATS_RL:                EtaN (DYNAMICS)  min= -1.85613734013875E+00
DEBUG_STATS_RL:                EtaN (DYNAMICS)  max=  8.09837418851073E-01
DEBUG_STATS_RL:                EtaN (DYNAMICS) mean= -1.75410374356015E-01
DEBUG_STATS_RL:                EtaN (DYNAMICS) S.D.=  6.90276774248153E-01
DEBUG_STATS_RL:                Uvel (DYNAMICS)  min= -1.48209286290781E-01
DEBUG_STATS_RL:                Uvel (DYNAMICS)  max=  1.33234204151478E-01
DEBUG_STATS_RL:                Uvel (DYNAMICS) mean=  5.37162331000604E-03
DEBUG_STATS_RL:                Uvel (DYNAMICS) S.D.=  2.45600097272915E-02
DEBUG_STATS_RL:                Vvel (DYNAMICS)  min= -1.10345981365297E-01
DEBUG_STATS_RL:                Vvel (DYNAMICS)  max=  1.47178792725659E-01
DEBUG_STATS_RL:                Vvel (DYNAMICS) mean=  9.24271722006765E-04
DEBUG_STATS_RL:                Vvel (DYNAMICS) S.D.=  1.44366231242618E-02
DEBUG_STATS_RL:                Wvel (DYNAMICS)  min= -1.12769910681258E-04
DEBUG_STATS_RL:                Wvel (DYNAMICS)  max=  1.15622926600153E-04
DEBUG_STATS_RL:                Wvel (DYNAMICS) mean= -2.61519878495013E-08
DEBUG_STATS_RL:                Wvel (DYNAMICS) S.D.=  1.08941462514335E-05
DEBUG_STATS_RL:               Theta (DYNAMICS)  min= -1.92752406924802E+00
DEBUG_STATS_RL:               Theta (DYNAMICS)  max=  3.13100874404813E+01
DEBUG_STATS_RL:               Theta (DYNAMICS) mean=  3.24948253311878E+00
DEBUG_STATS_RL:               Theta (DYNAMICS) S.D.=  5.88933276596631E+00
DEBUG_STATS_RL:                Salt (DYNAMICS)  min=  3.00000000000000E-02
DEBUG_STATS_RL:                Salt (DYNAMICS)  max=  3.74977793568227E+01
DEBUG_STATS_RL:                Salt (DYNAMICS) mean=  1.88747175092748E+01
DEBUG_STATS_RL:                Salt (DYNAMICS) S.D.=  1.73002819509777E+01
DEBUG_STATS_RL:                  Gu (DYNAMICS)  min= -1.47309375798227E-01
DEBUG_STATS_RL:                  Gu (DYNAMICS)  max=  1.31801476593648E-01
DEBUG_STATS_RL:                  Gu (DYNAMICS) mean=  5.30769533701936E-03
DEBUG_STATS_RL:                  Gu (DYNAMICS) S.D.=  2.48475979774328E-02
DEBUG_STATS_RL:                  Gv (DYNAMICS)  min= -1.07554203078761E-01
DEBUG_STATS_RL:                  Gv (DYNAMICS)  max=  1.46891824666265E-01
DEBUG_STATS_RL:                  Gv (DYNAMICS) mean=  3.46187468692181E-03
DEBUG_STATS_RL:                  Gv (DYNAMICS) S.D.=  1.59181739304886E-02
DEBUG_STATS_RL:               GuNm1 (DYNAMICS)  min= -9.95817086011367E-06
DEBUG_STATS_RL:               GuNm1 (DYNAMICS)  max=  1.03567087559547E-05
DEBUG_STATS_RL:               GuNm1 (DYNAMICS) mean=  2.02902980869381E-08
DEBUG_STATS_RL:               GuNm1 (DYNAMICS) S.D.=  1.24288936462728E-06
DEBUG_STATS_RL:               GvNm1 (DYNAMICS)  min= -9.32508347144245E-06
DEBUG_STATS_RL:               GvNm1 (DYNAMICS)  max=  1.49339178325422E-05
DEBUG_STATS_RL:               GvNm1 (DYNAMICS) mean=  7.46198433280079E-07
DEBUG_STATS_RL:               GvNm1 (DYNAMICS) S.D.=  2.61888052717867E-06
DEBUG_STATS_RL:               GtNm1 (DYNAMICS)  min= -3.49469115867803E-06
DEBUG_STATS_RL:               GtNm1 (DYNAMICS)  max=  2.38384311749009E-06
DEBUG_STATS_RL:               GtNm1 (DYNAMICS) mean= -2.01220610401599E-09
DEBUG_STATS_RL:               GtNm1 (DYNAMICS) S.D.=  1.47003262637099E-07
DEBUG_STATS_RL:               GsNm1 (DYNAMICS)  min= -1.11565504079455E-06
DEBUG_STATS_RL:               GsNm1 (DYNAMICS)  max=  7.35882790688635E-07
DEBUG_STATS_RL:               GsNm1 (DYNAMICS) mean= -2.32225880878549E-10
DEBUG_STATS_RL:               GsNm1 (DYNAMICS) S.D.=  1.64959351955499E-08
DEBUG_STATS_RL:    cg2d_b (SOLVE_FOR_PRESSURE)  min= -2.96896887394263E+04
DEBUG_STATS_RL:    cg2d_b (SOLVE_FOR_PRESSURE)  max=  3.47074424052041E+04
DEBUG_STATS_RL:    cg2d_b (SOLVE_FOR_PRESSURE) mean=  5.60984531515346E+00
DEBUG_STATS_RL:    cg2d_b (SOLVE_FOR_PRESSURE) S.D.=  4.17128552006538E+03
 cg2d: Sum(rhs),rhsMax =   3.74178879358546E-01  2.27967774377249E+00
(PID.TID 0000.0001)  cg2d: iter=     1 ; resid.=  1.19246048740389E-01
(PID.TID 0000.0001)  cg2d: iter=     2 ; resid.=  8.96853940355279E-02
(PID.TID 0000.0001)  cg2d: iter=     3 ; resid.=  8.09065705459982E-02
(PID.TID 0000.0001)  cg2d: iter=     4 ; resid.=  6.81714116449206E-02
(PID.TID 0000.0001)  cg2d: iter=     5 ; resid.=  5.46178080207772E-02
(PID.TID 0000.0001)  cg2d: iter=     6 ; resid.=  4.87680952919119E-02
(PID.TID 0000.0001)  cg2d: iter=     7 ; resid.=  4.07100127772398E-02
(PID.TID 0000.0001)  cg2d: iter=     8 ; resid.=  3.49191402190798E-02
(PID.TID 0000.0001)  cg2d: iter=     9 ; resid.=  3.00983418249960E-02
(PID.TID 0000.0001)  cg2d: iter=    10 ; resid.=  2.63477542912540E-02
(PID.TID 0000.0001)  cg2d: iter=    11 ; resid.=  2.34910280920303E-02
(PID.TID 0000.0001)  cg2d: iter=    12 ; resid.=  1.85370922559732E-02
(PID.TID 0000.0001)  cg2d: iter=    13 ; resid.=  1.47777302577124E-02
(PID.TID 0000.0001)  cg2d: iter=    14 ; resid.=  1.23387137824931E-02
(PID.TID 0000.0001)  cg2d: iter=    15 ; resid.=  1.03149475537417E-02
(PID.TID 0000.0001)  cg2d: iter=    16 ; resid.=  8.94636584525924E-03
(PID.TID 0000.0001)  cg2d: iter=    17 ; resid.=  7.81195319279144E-03
(PID.TID 0000.0001)  cg2d: iter=    18 ; resid.=  6.63500538658522E-03
(PID.TID 0000.0001)  cg2d: iter=    19 ; resid.=  5.85373328410316E-03
(PID.TID 0000.0001)  cg2d: iter=    20 ; resid.=  4.59273390265846E-03
(PID.TID 0000.0001)  cg2d: iter=    21 ; resid.=  4.08544031225117E-03
(PID.TID 0000.0001)  cg2d: iter=    22 ; resid.=  3.45592301027082E-03
(PID.TID 0000.0001)  cg2d: iter=    23 ; resid.=  2.74738926317206E-03
(PID.TID 0000.0001)  cg2d: iter=    24 ; resid.=  2.22788002493385E-03
(PID.TID 0000.0001)  cg2d: iter=    25 ; resid.=  1.75964499479821E-03
(PID.TID 0000.0001)  cg2d: iter=    26 ; resid.=  1.45961071677951E-03
(PID.TID 0000.0001)  cg2d: iter=    27 ; resid.=  1.24958355724087E-03
(PID.TID 0000.0001)  cg2d: iter=    28 ; resid.=  1.05250796420103E-03
(PID.TID 0000.0001)  cg2d: iter=    29 ; resid.=  8.37150509601602E-04
(PID.TID 0000.0001)  cg2d: iter=    30 ; resid.=  7.11548558871392E-04
(PID.TID 0000.0001)  cg2d: iter=    31 ; resid.=  6.21844232023566E-04
(PID.TID 0000.0001)  cg2d: iter=    32 ; resid.=  4.83307986452195E-04
(PID.TID 0000.0001)  cg2d: iter=    33 ; resid.=  4.03977496864205E-04
(PID.TID 0000.0001)  cg2d: iter=    34 ; resid.=  3.55511444904732E-04
(PID.TID 0000.0001)  cg2d: iter=    35 ; resid.=  2.81421548028215E-04
(PID.TID 0000.0001)  cg2d: iter=    36 ; resid.=  2.47485026436786E-04
(PID.TID 0000.0001)  cg2d: iter=    37 ; resid.=  2.12141054671347E-04
(PID.TID 0000.0001)  cg2d: iter=    38 ; resid.=  1.79832619811723E-04
(PID.TID 0000.0001)  cg2d: iter=    39 ; resid.=  1.55544749351274E-04
(PID.TID 0000.0001)  cg2d: iter=    40 ; resid.=  1.33921468536540E-04
(PID.TID 0000.0001)  cg2d: iter=    41 ; resid.=  1.17255749262804E-04
(PID.TID 0000.0001)  cg2d: iter=    42 ; resid.=  1.07329997620321E-04
(PID.TID 0000.0001)  cg2d: iter=    43 ; resid.=  9.28953082263178E-05
(PID.TID 0000.0001)  cg2d: iter=    44 ; resid.=  7.19613078329845E-05
(PID.TID 0000.0001)  cg2d: iter=    45 ; resid.=  5.58144733125924E-05
(PID.TID 0000.0001)  cg2d: iter=    46 ; resid.=  4.18292301560629E-05
(PID.TID 0000.0001)  cg2d: iter=    47 ; resid.=  3.60650570640189E-05
(PID.TID 0000.0001)  cg2d: iter=    48 ; resid.=  3.03368750087459E-05
(PID.TID 0000.0001)  cg2d: iter=    49 ; resid.=  2.37177039195743E-05
(PID.TID 0000.0001)  cg2d: iter=    50 ; resid.=  1.76164276220958E-05
(PID.TID 0000.0001)  cg2d: iter=    51 ; resid.=  1.40021821141747E-05
(PID.TID 0000.0001)  cg2d: iter=    52 ; resid.=  1.14334158153356E-05
(PID.TID 0000.0001)  cg2d: iter=    53 ; resid.=  1.01542970099899E-05
(PID.TID 0000.0001)  cg2d: iter=    54 ; resid.=  8.63961021106921E-06
(PID.TID 0000.0001)  cg2d: iter=    55 ; resid.=  7.58279887216817E-06
(PID.TID 0000.0001)  cg2d: iter=    56 ; resid.=  6.43685818058497E-06
(PID.TID 0000.0001)  cg2d: iter=    57 ; resid.=  5.31867344128688E-06
(PID.TID 0000.0001)  cg2d: iter=    58 ; resid.=  4.06129105042598E-06
(PID.TID 0000.0001)  cg2d: iter=    59 ; resid.=  3.08633633817023E-06
(PID.TID 0000.0001)  cg2d: iter=    60 ; resid.=  2.58173550519940E-06
(PID.TID 0000.0001)  cg2d: iter=    61 ; resid.=  1.99289276121218E-06
(PID.TID 0000.0001)  cg2d: iter=    62 ; resid.=  1.60593466330108E-06
(PID.TID 0000.0001)  cg2d: iter=    63 ; resid.=  1.48696808302942E-06
(PID.TID 0000.0001)  cg2d: iter=    64 ; resid.=  1.39746578965324E-06
(PID.TID 0000.0001)  cg2d: iter=    65 ; resid.=  1.14752150859121E-06
(PID.TID 0000.0001)  cg2d: iter=    66 ; resid.=  9.31991385816567E-07
(PID.TID 0000.0001)  cg2d: iter=    67 ; resid.=  7.95415673380821E-07
(PID.TID 0000.0001)  cg2d: iter=    68 ; resid.=  5.70291457237475E-07
(PID.TID 0000.0001)  cg2d: iter=    69 ; resid.=  4.41657718109226E-07
(PID.TID 0000.0001)  cg2d: iter=    70 ; resid.=  3.37476224296119E-07
(PID.TID 0000.0001)  cg2d: iter=    71 ; resid.=  2.85318631494228E-07
(PID.TID 0000.0001)  cg2d: iter=    72 ; resid.=  2.36441645727292E-07
(PID.TID 0000.0001)  cg2d: iter=    73 ; resid.=  2.09262153373322E-07
(PID.TID 0000.0001)  cg2d: iter=    74 ; resid.=  1.58234336394163E-07
(PID.TID 0000.0001)  cg2d: iter=    75 ; resid.=  1.24429693704208E-07
(PID.TID 0000.0001)  cg2d: iter=    76 ; resid.=  1.05967018924237E-07
(PID.TID 0000.0001)  cg2d: iter=    77 ; resid.=  9.83583980463071E-08
(PID.TID 0000.0001)  cg2d: iter=    78 ; resid.=  8.66604759624447E-08
(PID.TID 0000.0001)  cg2d: iter=    79 ; resid.=  7.79410536827016E-08
(PID.TID 0000.0001)  cg2d: iter=    80 ; resid.=  6.41500316177678E-08
(PID.TID 0000.0001)  cg2d: iter=    81 ; resid.=  4.86045685494556E-08
(PID.TID 0000.0001)  cg2d: iter=    82 ; resid.=  3.78623024538072E-08
(PID.TID 0000.0001)  cg2d: iter=    83 ; resid.=  2.83656210172686E-08
(PID.TID 0000.0001)  cg2d: iter=    84 ; resid.=  1.96872426696868E-08
(PID.TID 0000.0001)  cg2d: iter=    85 ; resid.=  1.37703973709614E-08
(PID.TID 0000.0001)  cg2d: iter=    86 ; resid.=  1.09842910294223E-08
(PID.TID 0000.0001)  cg2d: iter=    87 ; resid.=  8.47491829001348E-09
(PID.TID 0000.0001)  cg2d: iter=    88 ; resid.=  6.42659864869365E-09
(PID.TID 0000.0001)  cg2d: iter=    89 ; resid.=  5.45030215075678E-09
(PID.TID 0000.0001)  cg2d: iter=    90 ; resid.=  4.79100715240914E-09
(PID.TID 0000.0001)  cg2d: iter=    91 ; resid.=  3.64782057810642E-09
(PID.TID 0000.0001)  cg2d: iter=    92 ; resid.=  2.72721830527143E-09
(PID.TID 0000.0001)  cg2d: iter=    93 ; resid.=  2.11607057606907E-09
(PID.TID 0000.0001)  cg2d: iter=    94 ; resid.=  1.63724570467103E-09
(PID.TID 0000.0001)  cg2d: iter=    95 ; resid.=  1.29764568904103E-09
(PID.TID 0000.0001)  cg2d: iter=    96 ; resid.=  9.35396272112447E-10
(PID.TID 0000.0001)  cg2d: iter=    97 ; resid.=  6.93750013093853E-10
(PID.TID 0000.0001)  cg2d: iter=    98 ; resid.=  5.09972407088935E-10
(PID.TID 0000.0001)  cg2d: iter=    99 ; resid.=  3.59501685805053E-10
(PID.TID 0000.0001)  cg2d: iter=   100 ; resid.=  2.80806098393525E-10
(PID.TID 0000.0001)  cg2d: iter=   101 ; resid.=  2.01676598034026E-10
(PID.TID 0000.0001)  cg2d: iter=   102 ; resid.=  1.54202375924939E-10
(PID.TID 0000.0001)  cg2d: iter=   103 ; resid.=  1.36900655503899E-10
(PID.TID 0000.0001)  cg2d: iter=   104 ; resid.=  1.21234528405641E-10
(PID.TID 0000.0001)  cg2d: iter=   105 ; resid.=  1.08290574773368E-10
(PID.TID 0000.0001)  cg2d: iter=   106 ; resid.=  9.62957269249581E-11
(PID.TID 0000.0001)  cg2d: iter=   107 ; resid.=  8.16038877654970E-11
(PID.TID 0000.0001)  cg2d: iter=   108 ; resid.=  6.18859852831379E-11
(PID.TID 0000.0001)  cg2d: iter=   109 ; resid.=  4.55482397743575E-11
(PID.TID 0000.0001)  cg2d: iter=   110 ; resid.=  3.66597558230101E-11
(PID.TID 0000.0001)  cg2d: iter=   111 ; resid.=  3.09368971910716E-11
(PID.TID 0000.0001)  cg2d: iter=   112 ; resid.=  2.51150894063482E-11
(PID.TID 0000.0001)  cg2d: iter=   113 ; resid.=  1.86189342976083E-11
(PID.TID 0000.0001)  cg2d: iter=   114 ; resid.=  1.47147780205440E-11
(PID.TID 0000.0001)  cg2d: iter=   115 ; resid.=  1.18100644477837E-11
(PID.TID 0000.0001)  cg2d: iter=   116 ; resid.=  9.12526660928688E-12
(PID.TID 0000.0001)  cg2d: iter=   117 ; resid.=  6.91907163249445E-12
(PID.TID 0000.0001)  cg2d: iter=   118 ; resid.=  5.61527506405897E-12
(PID.TID 0000.0001)  cg2d: iter=   119 ; resid.=  4.34519791382919E-12
(PID.TID 0000.0001)  cg2d: iter=   120 ; resid.=  3.32834850044749E-12
(PID.TID 0000.0001)  cg2d: iter=   121 ; resid.=  2.42864365577458E-12
(PID.TID 0000.0001)  cg2d: iter=   122 ; resid.=  1.76357107521857E-12
(PID.TID 0000.0001)  cg2d: iter=   123 ; resid.=  1.28000621606962E-12
(PID.TID 0000.0001)  cg2d: iter=   124 ; resid.=  9.13671178261212E-13
(PID.TID 0000.0001)  cg2d: iter=   125 ; resid.=  7.19691100978738E-13
(PID.TID 0000.0001)  cg2d: iter=   126 ; resid.=  5.48978992031689E-13
(PID.TID 0000.0001)  cg2d: iter=   127 ; resid.=  3.86623995319336E-13
(PID.TID 0000.0001)  cg2d: iter=   128 ; resid.=  2.76072660926057E-13
(PID.TID 0000.0001)  cg2d: iter=   129 ; resid.=  2.01797424768496E-13
(PID.TID 0000.0001)  cg2d: iter=   130 ; resid.=  1.59421107685777E-13
(PID.TID 0000.0001)  cg2d: iter=   131 ; resid.=  1.24116394585897E-13
(PID.TID 0000.0001)  cg2d: iter=   132 ; resid.=  9.45656185355705E-14
DEBUG_STATS_RL:    cg2d_x (SOLVE_FOR_PRESSURE)  min= -1.81133056058914E+01
DEBUG_STATS_RL:    cg2d_x (SOLVE_FOR_PRESSURE)  max=  8.30195925638584E+00
DEBUG_STATS_RL:    cg2d_x (SOLVE_FOR_PRESSURE) mean= -1.70711087073752E+00
DEBUG_STATS_RL:    cg2d_x (SOLVE_FOR_PRESSURE) S.D.=  6.79187849779093E+00
(PID.TID 0000.0001)      cg2d_init_res =   2.39130256515799E-01
(PID.TID 0000.0001)      cg2d_iters(min,last) =      -1     132
(PID.TID 0000.0001)      cg2d_last_res =   9.45656185355705E-14
(PID.TID 0000.0001) // =======================================================
(PID.TID 0000.0001) // Begin MONITOR dynamic field statistics
(PID.TID 0000.0001) // =======================================================
(PID.TID 0000.0001) %MON time_tsnumber                =                    96
(PID.TID 0000.0001) %MON time_secondsf                =   8.2944000000000E+06
(PID.TID 0000.0001) %MON dynstat_eta_max              =   8.4627515355615E-01
(PID.TID 0000.0001) %MON dynstat_eta_min              =  -1.8464123961155E+00
(PID.TID 0000.0001) %MON dynstat_eta_mean             =  -5.8531779885077E-03
(PID.TID 0000.0001) %MON dynstat_eta_sd               =   5.8802355949520E-01
(PID.TID 0000.0001) %MON dynstat_eta_del2             =   2.6689774581684E-03
(PID.TID 0000.0001) %MON dynstat_uvel_max             =   1.2836557191337E-01
(PID.TID 0000.0001) %MON dynstat_uvel_min             =  -1.4811993011679E-01
(PID.TID 0000.0001) %MON dynstat_uvel_mean            =   1.9441332238558E-03
(PID.TID 0000.0001) %MON dynstat_uvel_sd              =   1.7696726521133E-02
(PID.TID 0000.0001) %MON dynstat_uvel_del2            =   1.5503086883356E-04
(PID.TID 0000.0001) %MON dynstat_vvel_max             =   1.4323437360398E-01
(PID.TID 0000.0001) %MON dynstat_vvel_min             =  -1.0887654622733E-01
(PID.TID 0000.0001) %MON dynstat_vvel_mean            =   1.1290560872664E-04
(PID.TID 0000.0001) %MON dynstat_vvel_sd              =   9.5747579808330E-03
(PID.TID 0000.0001) %MON dynstat_vvel_del2            =   8.9369488529107E-05
(PID.TID 0000.0001) %MON dynstat_wvel_max             =   1.1364162875350E-04
(PID.TID 0000.0001) %MON dynstat_wvel_min             =  -1.0899030692605E-04
(PID.TID 0000.0001) %MON dynstat_wvel_mean            =  -2.0088157061172E-22
(PID.TID 0000.0001) %MON dynstat_wvel_sd              =   1.2566943197290E-05
(PID.TID 0000.0001) %MON dynstat_wvel_del2            =   1.2315417359255E-07
(PID.TID 0000.0001) %MON dynstat_theta_max            =   3.1310087440481E+01
(PID.TID 0000.0001) %MON dynstat_theta_min            =  -1.9275240692480E+00
(PID.TID 0000.0001) %MON dynstat_theta_mean           =   3.6541952318904E+00
(PID.TID 0000.0001) %MON dynstat_theta_sd             =   4.4292492445168E+00
(PID.TID 0000.0001) %MON dynstat_theta_del2           =   4.8536040914027E-03
(PID.TID 0000.0001) %MON dynstat_salt_max             =   3.7497779356823E+01
(PID.TID 0000.0001) %MON dynstat_salt_min             =   2.9996539811379E+01
(PID.TID 0000.0001) %MON dynstat_salt_mean            =   3.4747975686721E+01
(PID.TID 0000.0001) %MON dynstat_salt_sd              =   2.9662101613305E-01
(PID.TID 0000.0001) %MON dynstat_salt_del2            =   1.0007202410992E-03
(PID.TID 0000.0001) %MON dynstat_sst_max              =   3.1310087440481E+01
(PID.TID 0000.0001) %MON dynstat_sst_min              =  -1.9275240692480E+00
(PID.TID 0000.0001) %MON dynstat_sst_mean             =   1.9063689861030E+01
(PID.TID 0000.0001) %MON dynstat_sst_sd               =   9.3015068599881E+00
(PID.TID 0000.0001) %MON dynstat_sst_del2             =   2.9400577012047E-02
(PID.TID 0000.0001) %MON dynstat_sss_max              =   3.7497779356823E+01
(PID.TID 0000.0001) %MON dynstat_sss_min              =   2.9996539811379E+01
(PID.TID 0000.0001) %MON dynstat_sss_mean             =   3.4866970042844E+01
(PID.TID 0000.0001) %MON dynstat_sss_sd               =   9.9354907492723E-01
(PID.TID 0000.0001) %MON dynstat_sss_del2             =   8.3515118263483E-03
(PID.TID 0000.0001) %MON forcing_qnet_max             =   1.8040299479167E+02
(PID.TID 0000.0001) %MON forcing_qnet_min             =  -1.5529566446940E+02
(PID.TID 0000.0001) %MON forcing_qnet_mean            =   6.7566258924804E-01
(PID.TID 0000.0001) %MON forcing_qnet_sd              =   4.0811835969263E+01
(PID.TID 0000.0001) %MON forcing_qnet_del2            =   7.8641898136812E-01
(PID.TID 0000.0001) %MON forcing_qsw_max              =   0.0000000000000E+00
(PID.TID 0000.0001) %MON forcing_qsw_min              =   0.0000000000000E+00
(PID.TID 0000.0001) %MON forcing_qsw_mean             =   0.0000000000000E+00
(PID.TID 0000.0001) %MON forcing_qsw_sd               =   0.0000000000000E+00
(PID.TID 0000.0001) %MON forcing_qsw_del2             =   0.0000000000000E+00
(PID.TID 0000.0001) %MON forcing_empmr_max            =   6.7185401538457E-05
(PID.TID 0000.0001) %MON forcing_empmr_min            =  -8.3561339181415E-05
(PID.TID 0000.0001) %MON forcing_empmr_mean           =   1.0180375712738E-07
(PID.TID 0000.0001) %MON forcing_empmr_sd             =   2.5504926925635E-05
(PID.TID 0000.0001) %MON forcing_empmr_del2           =   3.6682577382862E-07
(PID.TID 0000.0001) %MON forcing_fu_max               =   3.4542939066887E-01
(PID.TID 0000.0001) %MON forcing_fu_min               =  -4.0721786022186E-01
(PID.TID 0000.0001) %MON forcing_fu_mean              =   1.7912887361731E-02
(PID.TID 0000.0001) %MON forcing_fu_sd                =   1.0095571358910E-01
(PID.TID 0000.0001) %MON forcing_fu_del2              =   7.8746887246203E-04
(PID.TID 0000.0001) %MON forcing_fv_max               =   1.8138032158216E-01
(PID.TID 0000.0001) %MON forcing_fv_min               =  -1.4448850850264E-01
(PID.TID 0000.0001) %MON forcing_fv_mean              =  -6.8000419925840E-03
(PID.TID 0000.0001) %MON forcing_fv_sd                =   3.8744507410474E-02
(PID.TID 0000.0001) %MON forcing_fv_del2              =   4.1826418135410E-04
(PID.TID 0000.0001) %MON trAdv_CFL_u_max              =   4.8857492598689E-02
(PID.TID 0000.0001) %MON trAdv_CFL_v_max              =   2.8548008520217E-02
(PID.TID 0000.0001) %MON trAdv_CFL_w_max              =   4.2500019931929E-02
(PID.TID 0000.0001) %MON advcfl_uvel_max              =   4.7062587774753E-02
(PID.TID 0000.0001) %MON advcfl_vvel_max              =   2.7828141588083E-02
(PID.TID 0000.0001) %MON advcfl_wvel_max              =   4.0278781104157E-02
(PID.TID 0000.0001) %MON advcfl_W_hf_max              =   4.8909948483619E-02
(PID.TID 0000.0001) %MON pe_b_mean                    =   4.4250041474279E-04
(PID.TID 0000.0001) %MON ke_max                       =   1.2134807713726E-02
(PID.TID 0000.0001) %MON ke_mean                      =   1.8515999410898E-04
(PID.TID 0000.0001) %MON ke_vol                       =   1.3226782436723E+18
(PID.TID 0000.0001) %MON vort_r_min                   =  -3.9514067319854E-07
(PID.TID 0000.0001) %MON vort_r_max                   =   5.9819373216936E-07
(PID.TID 0000.0001) %MON vort_a_mean                  =  -2.5274807348024E-05
(PID.TID 0000.0001) %MON vort_a_sd                    =   7.3604585951776E-05
(PID.TID 0000.0001) %MON vort_p_mean                  =  -3.1845655737195E-05
(PID.TID 0000.0001) %MON vort_p_sd                    =   1.3162432462751E-04
(PID.TID 0000.0001) %MON surfExpan_theta_mean         =  -1.3831000422890E-07
(PID.TID 0000.0001) %MON surfExpan_salt_mean          =   8.3279737827358E-08
(PID.TID 0000.0001) // =======================================================
(PID.TID 0000.0001) // End MONITOR dynamic field statistics
(PID.TID 0000.0001) // =======================================================
 EXTERNAL_FIELDS_LOAD,        96 : iP,iLd,i0,i1=    3    4    3    4 ; Wght=  0.3000000000  0.7000000000
 EXTERNAL_FIELDS_LOAD: (fu0,1),fu,fv= -2.7199E-02 -3.7252E-02 -3.4236E-02 -2.4825E-02
 EXTERNAL_FIELDS_LOAD: SST,SSS,Q,E-P= -3.0436E-02  3.4572E+01  1.3750E+02  8.1626E-06
DEBUG_STATS_RL:          Uvel (THERMODYNAMICS)  min= -1.48119930116787E-01
DEBUG_STATS_RL:          Uvel (THERMODYNAMICS)  max=  1.28365571913371E-01
DEBUG_STATS_RL:          Uvel (THERMODYNAMICS) mean=  5.40380540541057E-03
DEBUG_STATS_RL:          Uvel (THERMODYNAMICS) S.D.=  2.45027097107698E-02
DEBUG_STATS_RL:          Vvel (THERMODYNAMICS)  min= -1.08876546227326E-01
DEBUG_STATS_RL:          Vvel (THERMODYNAMICS)  max=  1.43234373603977E-01
DEBUG_STATS_RL:          Vvel (THERMODYNAMICS) mean=  8.93372739111022E-04
DEBUG_STATS_RL:          Vvel (THERMODYNAMICS) S.D.=  1.43197352245777E-02
DEBUG_STATS_RL:          Wvel (THERMODYNAMICS)  min= -1.08990306926055E-04
DEBUG_STATS_RL:          Wvel (THERMODYNAMICS)  max=  1.13641628753500E-04
DEBUG_STATS_RL:          Wvel (THERMODYNAMICS) mean= -3.16103207619611E-08
DEBUG_STATS_RL:          Wvel (THERMODYNAMICS) S.D.=  1.07326315840220E-05
DEBUG_STATS_RL:         Theta (THERMODYNAMICS)  min= -1.92644487580120E+00
DEBUG_STATS_RL:         Theta (THERMODYNAMICS)  max=  3.13142671775919E+01
DEBUG_STATS_RL:         Theta (THERMODYNAMICS) mean=  3.24931319992713E+00
DEBUG_STATS_RL:         Theta (THERMODYNAMICS) S.D.=  5.88927561879766E+00
DEBUG_STATS_RL:          Salt (THERMODYNAMICS)  min=  3.00000000000000E-02
DEBUG_STATS_RL:          Salt (THERMODYNAMICS)  max=  3.74979113140223E+01
DEBUG_STATS_RL:          Salt (THERMODYNAMICS) mean=  1.88747114246097E+01
DEBUG_STATS_RL:          Salt (THERMODYNAMICS) S.D.=  1.73002771049022E+01
DEBUG_STATS_RL:         GtNm1 (THERMODYNAMICS)  min= -1.98289599659512E-06
DEBUG_STATS_RL:         GtNm1 (THERMODYNAMICS)  max=  2.02506011502152E-06
DEBUG_STATS_RL:         GtNm1 (THERMODYNAMICS) mean= -2.18981150330875E-09
DEBUG_STATS_RL:         GtNm1 (THERMODYNAMICS) S.D.=  1.44383514482166E-07
DEBUG_STATS_RL:         GsNm1 (THERMODYNAMICS)  min= -4.53815619733563E-07
DEBUG_STATS_RL:         GsNm1 (THERMODYNAMICS)  max=  3.85757026849037E-07
DEBUG_STATS_RL:         GsNm1 (THERMODYNAMICS) mean= -2.04592604192600E-10
DEBUG_STATS_RL:         GsNm1 (THERMODYNAMICS) S.D.=  1.46271256259436E-08
DEBUG_STATS_RL:                EtaN (DYNAMICS)  min= -1.84641239611552E+00
DEBUG_STATS_RL:                EtaN (DYNAMICS)  max=  8.46275153556150E-01
DEBUG_STATS_RL:                EtaN (DYNAMICS) mean= -1.74017418016057E-01
DEBUG_STATS_RL:                EtaN (DYNAMICS) S.D.=  6.92342354514875E-01
DEBUG_STATS_RL:                Uvel (DYNAMICS)  min= -1.48119930116787E-01
DEBUG_STATS_RL:                Uvel (DYNAMICS)  max=  1.28365571913371E-01
DEBUG_STATS_RL:                Uvel (DYNAMICS) mean=  5.40380540541057E-03
DEBUG_STATS_RL:                Uvel (DYNAMICS) S.D.=  2.45027097107698E-02
DEBUG_STATS_RL:                Vvel (DYNAMICS)  min= -1.08876546227326E-01
DEBUG_STATS_RL:                Vvel (DYNAMICS)  max=  1.43234373603977E-01
DEBUG_STATS_RL:                Vvel (DYNAMICS) mean=  8.93372739111022E-04
DEBUG_STATS_RL:                Vvel (DYNAMICS) S.D.=  1.43197352245777E-02
DEBUG_STATS_RL:                Wvel (DYNAMICS)  min= -1.08990306926055E-04
DEBUG_STATS_RL:                Wvel (DYNAMICS)  max=  1.13641628753500E-04
DEBUG_STATS_RL:                Wvel (DYNAMICS) mean= -3.16103207619611E-08
DEBUG_STATS_RL:                Wvel (DYNAMICS) S.D.=  1.07326315840220E-05
DEBUG_STATS_RL:               Theta (DYNAMICS)  min= -1.92644487580120E+00
DEBUG_STATS_RL:               Theta (DYNAMICS)  max=  3.13142671775919E+01
DEBUG_STATS_RL:               Theta (DYNAMICS) mean=  3.24931319992713E+00
DEBUG_STATS_RL:               Theta (DYNAMICS) S.D.=  5.88927561879766E+00
DEBUG_STATS_RL:                Salt (DYNAMICS)  min=  3.00000000000000E-02
DEBUG_STATS_RL:                Salt (DYNAMICS)  max=  3.74979113140223E+01
DEBUG_STATS_RL:                Salt (DYNAMICS) mean=  1.88747114246097E+01
DEBUG_STATS_RL:                Salt (DYNAMICS) S.D.=  1.73002771049022E+01
DEBUG_STATS_RL:                  Gu (DYNAMICS)  min= -1.47224331286473E-01
DEBUG_STATS_RL:                  Gu (DYNAMICS)  max=  1.33856333461498E-01
DEBUG_STATS_RL:                  Gu (DYNAMICS) mean=  5.34779089994239E-03
DEBUG_STATS_RL:                  Gu (DYNAMICS) S.D.=  2.47959498866947E-02
DEBUG_STATS_RL:                  Gv (DYNAMICS)  min= -1.06079398864230E-01
DEBUG_STATS_RL:                  Gv (DYNAMICS)  max=  1.42923402392714E-01
DEBUG_STATS_RL:                  Gv (DYNAMICS) mean=  3.47578173490287E-03
DEBUG_STATS_RL:                  Gv (DYNAMICS) S.D.=  1.58111798848298E-02
DEBUG_STATS_RL:               GuNm1 (DYNAMICS)  min= -9.86251149671588E-06
DEBUG_STATS_RL:               GuNm1 (DYNAMICS)  max=  1.03732450747595E-05
DEBUG_STATS_RL:               GuNm1 (DYNAMICS) mean=  2.05513148797797E-08
DEBUG_STATS_RL:               GuNm1 (DYNAMICS) S.D.=  1.24301752893835E-06
DEBUG_STATS_RL:               GvNm1 (DYNAMICS)  min= -9.34442062243433E-06
DEBUG_STATS_RL:               GvNm1 (DYNAMICS)  max=  1.49029960711099E-05
DEBUG_STATS_RL:               GvNm1 (DYNAMICS) mean=  7.47290825382644E-07
DEBUG_STATS_RL:               GvNm1 (DYNAMICS) S.D.=  2.61894995221673E-06
DEBUG_STATS_RL:               GtNm1 (DYNAMICS)  min= -1.98289599659512E-06
DEBUG_STATS_RL:               GtNm1 (DYNAMICS)  max=  2.02506011502152E-06
DEBUG_STATS_RL:               GtNm1 (DYNAMICS) mean= -2.18981150330875E-09
DEBUG_STATS_RL:               GtNm1 (DYNAMICS) S.D.=  1.44383514482166E-07
DEBUG_STATS_RL:               GsNm1 (DYNAMICS)  min= -4.53815619733563E-07
DEBUG_STATS_RL:               GsNm1 (DYNAMICS)  max=  3.85757026849037E-07
DEBUG_STATS_RL:               GsNm1 (DYNAMICS) mean= -2.04592604192600E-10
DEBUG_STATS_RL:               GsNm1 (DYNAMICS) S.D.=  1.46271256259436E-08
DEBUG_STATS_RL:    cg2d_b (SOLVE_FOR_PRESSURE)  min= -2.88141408200043E+04
DEBUG_STATS_RL:    cg2d_b (SOLVE_FOR_PRESSURE)  max=  3.47158882296575E+04
DEBUG_STATS_RL:    cg2d_b (SOLVE_FOR_PRESSURE) mean=  5.61619460874361E+00
DEBUG_STATS_RL:    cg2d_b (SOLVE_FOR_PRESSURE) S.D.=  4.16725178863967E+03
 cg2d: Sum(rhs),rhsMax =   3.74511244915620E-01  2.28023248813566E+00
(PID.TID 0000.0001)  cg2d: iter=     1 ; resid.=  1.15487381406618E-01
(PID.TID 0000.0001)  cg2d: iter=     2 ; resid.=  8.32714135461674E-02
(PID.TID 0000.0001)  cg2d: iter=     3 ; resid.=  7.26144097439580E-02
(PID.TID 0000.0001)  cg2d: iter=     4 ; resid.=  5.94656927918690E-02
(PID.TID 0000.0001)  cg2d: iter=     5 ; resid.=  4.47169957450235E-02
(PID.TID 0000.0001)  cg2d: iter=     6 ; resid.=  3.81434567809098E-02
(PID.TID 0000.0001)  cg2d: iter=     7 ; resid.=  3.15978570052757E-02
(PID.TID 0000.0001)  cg2d: iter=     8 ; resid.=  2.73055447200228E-02
(PID.TID 0000.0001)  cg2d: iter=     9 ; resid.=  2.37441035942493E-02
(PID.TID 0000.0001)  cg2d: iter=    10 ; resid.=  2.11474031954544E-02
(PID.TID 0000.0001)  cg2d: iter=    11 ; resid.=  1.95086233053470E-02
(PID.TID 0000.0001)  cg2d: iter=    12 ; resid.=  1.62204285335499E-02
(PID.TID 0000.0001)  cg2d: iter=    13 ; resid.=  1.32692459502357E-02
(PID.TID 0000.0001)  cg2d: iter=    14 ; resid.=  1.13702021508229E-02
(PID.TID 0000.0001)  cg2d: iter=    15 ; resid.=  9.55838064404180E-03
(PID.TID 0000.0001)  cg2d: iter=    16 ; resid.=  8.07203908971487E-03
(PID.TID 0000.0001)  cg2d: iter=    17 ; resid.=  6.89588481109828E-03
(PID.TID 0000.0001)  cg2d: iter=    18 ; resid.=  5.82274186086600E-03
(PID.TID 0000.0001)  cg2d: iter=    19 ; resid.=  5.09824676818305E-03
(PID.TID 0000.0001)  cg2d: iter=    20 ; resid.=  4.02437393600145E-03
(PID.TID 0000.0001)  cg2d: iter=    21 ; resid.=  3.54071626700801E-03
(PID.TID 0000.0001)  cg2d: iter=    22 ; resid.=  2.96803021255026E-03
(PID.TID 0000.0001)  cg2d: iter=    23 ; resid.=  2.40112470355085E-03
(PID.TID 0000.0001)  cg2d: iter=    24 ; resid.=  1.91006960835291E-03
(PID.TID 0000.0001)  cg2d: iter=    25 ; resid.=  1.50992548561400E-03
(PID.TID 0000.0001)  cg2d: iter=    26 ; resid.=  1.26019191027630E-03
(PID.TID 0000.0001)  cg2d: iter=    27 ; resid.=  1.09048711219549E-03
(PID.TID 0000.0001)  cg2d: iter=    28 ; resid.=  9.25326053044176E-04
(PID.TID 0000.0001)  cg2d: iter=    29 ; resid.=  7.46048580015287E-04
(PID.TID 0000.0001)  cg2d: iter=    30 ; resid.=  6.33740088120614E-04
(PID.TID 0000.0001)  cg2d: iter=    31 ; resid.=  5.57180154415377E-04
(PID.TID 0000.0001)  cg2d: iter=    32 ; resid.=  4.41926201367037E-04
(PID.TID 0000.0001)  cg2d: iter=    33 ; resid.=  3.65929308373984E-04
(PID.TID 0000.0001)  cg2d: iter=    34 ; resid.=  3.15809880993672E-04
(PID.TID 0000.0001)  cg2d: iter=    35 ; resid.=  2.51871728666374E-04
(PID.TID 0000.0001)  cg2d: iter=    36 ; resid.=  2.20326100790846E-04
(PID.TID 0000.0001)  cg2d: iter=    37 ; resid.=  1.84083940934628E-04
(PID.TID 0000.0001)  cg2d: iter=    38 ; resid.=  1.51647136780059E-04
(PID.TID 0000.0001)  cg2d: iter=    39 ; resid.=  1.26837516200777E-04
(PID.TID 0000.0001)  cg2d: iter=    40 ; resid.=  1.06391470230553E-04
(PID.TID 0000.0001)  cg2d: iter=    41 ; resid.=  9.21188750431438E-05
(PID.TID 0000.0001)  cg2d: iter=    42 ; resid.=  8.58191761339308E-05
(PID.TID 0000.0001)  cg2d: iter=    43 ; resid.=  7.63800725636699E-05
(PID.TID 0000.0001)  cg2d: iter=    44 ; resid.=  6.09759673970220E-05
(PID.TID 0000.0001)  cg2d: iter=    45 ; resid.=  4.75293975760845E-05
(PID.TID 0000.0001)  cg2d: iter=    46 ; resid.=  3.65332116489831E-05
(PID.TID 0000.0001)  cg2d: iter=    47 ; resid.=  3.21084336085992E-05
(PID.TID 0000.0001)  cg2d: iter=    48 ; resid.=  2.68086109162695E-05
(PID.TID 0000.0001)  cg2d: iter=    49 ; resid.=  2.09154190448818E-05
(PID.TID 0000.0001)  cg2d: iter=    50 ; resid.=  1.51878196959141E-05
(PID.TID 0000.0001)  cg2d: iter=    51 ; resid.=  1.17748795791037E-05
(PID.TID 0000.0001)  cg2d: iter=    52 ; resid.=  9.45536774622458E-06
(PID.TID 0000.0001)  cg2d: iter=    53 ; resid.=  8.16868148650199E-06
(PID.TID 0000.0001)  cg2d: iter=    54 ; resid.=  7.03618221934142E-06
(PID.TID 0000.0001)  cg2d: iter=    55 ; resid.=  6.34615127675972E-06
(PID.TID 0000.0001)  cg2d: iter=    56 ; resid.=  5.36607909712671E-06
(PID.TID 0000.0001)  cg2d: iter=    57 ; resid.=  4.54957579547965E-06
(PID.TID 0000.0001)  cg2d: iter=    58 ; resid.=  3.55145504720524E-06
(PID.TID 0000.0001)  cg2d: iter=    59 ; resid.=  2.72025238058021E-06
(PID.TID 0000.0001)  cg2d: iter=    60 ; resid.=  2.24036843927628E-06
(PID.TID 0000.0001)  cg2d: iter=    61 ; resid.=  1.66163452599370E-06
(PID.TID 0000.0001)  cg2d: iter=    62 ; resid.=  1.25473268272692E-06
(PID.TID 0000.0001)  cg2d: iter=    63 ; resid.=  1.10490401241203E-06
(PID.TID 0000.0001)  cg2d: iter=    64 ; resid.=  1.04700200841464E-06
(PID.TID 0000.0001)  cg2d: iter=    65 ; resid.=  8.88692927486359E-07
(PID.TID 0000.0001)  cg2d: iter=    66 ; resid.=  7.32186727867380E-07
(PID.TID 0000.0001)  cg2d: iter=    67 ; resid.=  6.41720436435997E-07
(PID.TID 0000.0001)  cg2d: iter=    68 ; resid.=  4.71146706871698E-07
(PID.TID 0000.0001)  cg2d: iter=    69 ; resid.=  3.69756871705272E-07
(PID.TID 0000.0001)  cg2d: iter=    70 ; resid.=  2.83039611565259E-07
(PID.TID 0000.0001)  cg2d: iter=    71 ; resid.=  2.39546431228694E-07
(PID.TID 0000.0001)  cg2d: iter=    72 ; resid.=  1.93399530888570E-07
(PID.TID 0000.0001)  cg2d: iter=    73 ; resid.=  1.67290084633530E-07
(PID.TID 0000.0001)  cg2d: iter=    74 ; resid.=  1.21945473390653E-07
(PID.TID 0000.0001)  cg2d: iter=    75 ; resid.=  9.25497694976993E-08
(PID.TID 0000.0001)  cg2d: iter=    76 ; resid.=  7.64496773979190E-08
(PID.TID 0000.0001)  cg2d: iter=    77 ; resid.=  7.06157110971993E-08
(PID.TID 0000.0001)  cg2d: iter=    78 ; resid.=  6.27503185731887E-08
(PID.TID 0000.0001)  cg2d: iter=    79 ; resid.=  5.82742958784852E-08
(PID.TID 0000.0001)  cg2d: iter=    80 ; resid.=  5.12801912250624E-08
(PID.TID 0000.0001)  cg2d: iter=    81 ; resid.=  4.15916863968002E-08
(PID.TID 0000.0001)  cg2d: iter=    82 ; resid.=  3.42991030708623E-08
(PID.TID 0000.0001)  cg2d: iter=    83 ; resid.=  2.64494147162989E-08
(PID.TID 0000.0001)  cg2d: iter=    84 ; resid.=  1.88629920741007E-08
(PID.TID 0000.0001)  cg2d: iter=    85 ; resid.=  1.28604865722942E-08
(PID.TID 0000.0001)  cg2d: iter=    86 ; resid.=  1.01326871844876E-08
(PID.TID 0000.0001)  cg2d: iter=    87 ; resid.=  7.84212230746849E-09
(PID.TID 0000.0001)  cg2d: iter=    88 ; resid.=  5.96184035242759E-09
(PID.TID 0000.0001)  cg2d: iter=    89 ; resid.=  4.84729863651075E-09
(PID.TID 0000.0001)  cg2d: iter=    90 ; resid.=  4.21462015318685E-09
(PID.TID 0000.0001)  cg2d: iter=    91 ; resid.=  3.27675905747948E-09
(PID.TID 0000.0001)  cg2d: iter=    92 ; resid.=  2.52213066175492E-09
(PID.TID 0000.0001)  cg2d: iter=    93 ; resid.=  1.99866000170776E-09
(PID.TID 0000.0001)  cg2d: iter=    94 ; resid.=  1.59166839991973E-09
(PID.TID 0000.0001)  cg2d: iter=    95 ; resid.=  1.24706850894499E-09
(PID.TID 0000.0001)  cg2d: iter=    96 ; resid.=  9.07376550664228E-10
(PID.TID 0000.0001)  cg2d: iter=    97 ; resid.=  6.87072345019831E-10
(PID.TID 0000.0001)  cg2d: iter=    98 ; resid.=  5.20642896745267E-10
(PID.TID 0000.0001)  cg2d: iter=    99 ; resid.=  3.67068495093274E-10
(PID.TID 0000.0001)  cg2d: iter=   100 ; resid.=  2.84087457786370E-10
(PID.TID 0000.0001)  cg2d: iter=   101 ; resid.=  1.96496430037462E-10
(PID.TID 0000.0001)  cg2d: iter=   102 ; resid.=  1.45922570364027E-10
(PID.TID 0000.0001)  cg2d: iter=   103 ; resid.=  1.26421471500764E-10
(PID.TID 0000.0001)  cg2d: iter=   104 ; resid.=  1.10400647547221E-10
(PID.TID 0000.0001)  cg2d: iter=   105 ; resid.=  9.75084728529730E-11
(PID.TID 0000.0001)  cg2d: iter=   106 ; resid.=  8.55947988660963E-11
(PID.TID 0000.0001)  cg2d: iter=   107 ; resid.=  7.54943943027991E-11
(PID.TID 0000.0001)  cg2d: iter=   108 ; resid.=  5.93929191402898E-11
(PID.TID 0000.0001)  cg2d: iter=   109 ; resid.=  4.42617219890373E-11
(PID.TID 0000.0001)  cg2d: iter=   110 ; resid.=  3.54995229885277E-11
(PID.TID 0000.0001)  cg2d: iter=   111 ; resid.=  3.01009419446903E-11
(PID.TID 0000.0001)  cg2d: iter=   112 ; resid.=  2.43233100315368E-11
(PID.TID 0000.0001)  cg2d: iter=   113 ; resid.=  1.74415631131973E-11
(PID.TID 0000.0001)  cg2d: iter=   114 ; resid.=  1.33973999538677E-11
(PID.TID 0000.0001)  cg2d: iter=   115 ; resid.=  1.05737536836499E-11
(PID.TID 0000.0001)  cg2d: iter=   116 ; resid.=  7.98994268397900E-12
(PID.TID 0000.0001)  cg2d: iter=   117 ; resid.=  5.83900541574026E-12
(PID.TID 0000.0001)  cg2d: iter=   118 ; resid.=  4.57022825746075E-12
(PID.TID 0000.0001)  cg2d: iter=   119 ; resid.=  3.56671588053432E-12
(PID.TID 0000.0001)  cg2d: iter=   120 ; resid.=  2.72330011782591E-12
(PID.TID 0000.0001)  cg2d: iter=   121 ; resid.=  2.01897908360167E-12
(PID.TID 0000.0001)  cg2d: iter=   122 ; resid.=  1.52848070314040E-12
(PID.TID 0000.0001)  cg2d: iter=   123 ; resid.=  1.17906995573625E-12
(PID.TID 0000.0001)  cg2d: iter=   124 ; resid.=  8.92810465203776E-13
(PID.TID 0000.0001)  cg2d: iter=   125 ; resid.=  7.40199368239302E-13
(PID.TID 0000.0001)  cg2d: iter=   126 ; resid.=  5.88751481816995E-13
(PID.TID 0000.0001)  cg2d: iter=   127 ; resid.=  4.25847487709374E-13
(PID.TID 0000.0001)  cg2d: iter=   128 ; resid.=  2.97656189784939E-13
(PID.TID 0000.0001)  cg2d: iter=   129 ; resid.=  2.11144853321051E-13
(PID.TID 0000.0001)  cg2d: iter=   130 ; resid.=  1.62365385457814E-13
(PID.TID 0000.0001)  cg2d: iter=   131 ; resid.=  1.25778264106535E-13
(PID.TID 0000.0001)  cg2d: iter=   132 ; resid.=  9.17851211928787E-14
DEBUG_STATS_RL:    cg2d_x (SOLVE_FOR_PRESSURE)  min= -1.83332193262709E+01
DEBUG_STATS_RL:    cg2d_x (SOLVE_FOR_PRESSURE)  max=  8.49052838347869E+00
DEBUG_STATS_RL:    cg2d_x (SOLVE_FOR_PRESSURE) mean= -1.69878991766350E+00
DEBUG_STATS_RL:    cg2d_x (SOLVE_FOR_PRESSURE) S.D.=  6.82254142673474E+00
(PID.TID 0000.0001)      cg2d_init_res =   2.35750242061636E-01
(PID.TID 0000.0001)      cg2d_iters(min,last) =      -1     132
(PID.TID 0000.0001)      cg2d_last_res =   9.17851211928787E-14
(PID.TID 0000.0001) // =======================================================
(PID.TID 0000.0001) // Begin MONITOR dynamic field statistics
(PID.TID 0000.0001) // =======================================================
(PID.TID 0000.0001) %MON time_tsnumber                =                    97
(PID.TID 0000.0001) %MON time_secondsf                =   8.3808000000000E+06
(PID.TID 0000.0001) %MON dynstat_eta_max              =   8.6549728679701E-01
(PID.TID 0000.0001) %MON dynstat_eta_min              =  -1.8688296968678E+00
(PID.TID 0000.0001) %MON dynstat_eta_mean             =  -5.8598026890822E-03
(PID.TID 0000.0001) %MON dynstat_eta_sd               =   5.9054616783703E-01
(PID.TID 0000.0001) %MON dynstat_eta_del2             =   2.6611485199584E-03
(PID.TID 0000.0001) %MON dynstat_uvel_max             =   1.3121977797784E-01
(PID.TID 0000.0001) %MON dynstat_uvel_min             =  -1.4784997063962E-01
(PID.TID 0000.0001) %MON dynstat_uvel_mean            =   2.0099385955070E-03
(PID.TID 0000.0001) %MON dynstat_uvel_sd              =   1.7593661845903E-02
(PID.TID 0000.0001) %MON dynstat_uvel_del2            =   1.5494793362322E-04
(PID.TID 0000.0001) %MON dynstat_vvel_max             =   1.3899435922379E-01
(PID.TID 0000.0001) %MON dynstat_vvel_min             =  -1.0718866805949E-01
(PID.TID 0000.0001) %MON dynstat_vvel_mean            =   1.0030271369606E-04
(PID.TID 0000.0001) %MON dynstat_vvel_sd              =   9.4958149777622E-03
(PID.TID 0000.0001) %MON dynstat_vvel_del2            =   8.8721987039056E-05
(PID.TID 0000.0001) %MON dynstat_wvel_max             =   1.0827072105782E-04
(PID.TID 0000.0001) %MON dynstat_wvel_min             =  -1.0217147073094E-04
(PID.TID 0000.0001) %MON dynstat_wvel_mean            =   5.8764396426949E-23
(PID.TID 0000.0001) %MON dynstat_wvel_sd              =   1.2406749976831E-05
(PID.TID 0000.0001) %MON dynstat_wvel_del2            =   1.2196951368330E-07
(PID.TID 0000.0001) %MON dynstat_theta_max            =   3.1314267177592E+01
(PID.TID 0000.0001) %MON dynstat_theta_min            =  -1.9264448758012E+00
(PID.TID 0000.0001) %MON dynstat_theta_mean           =   3.6541895826822E+00
(PID.TID 0000.0001) %MON dynstat_theta_sd             =   4.4292561789142E+00
(PID.TID 0000.0001) %MON dynstat_theta_del2           =   4.8518257615469E-03
(PID.TID 0000.0001) %MON dynstat_salt_max             =   3.7497911314022E+01
(PID.TID 0000.0001) %MON dynstat_salt_min             =   3.0000843646346E+01
(PID.TID 0000.0001) %MON dynstat_salt_mean            =   3.4747974602527E+01
(PID.TID 0000.0001) %MON dynstat_salt_sd              =   2.9662590618549E-01
(PID.TID 0000.0001) %MON dynstat_salt_del2            =   1.0012186492126E-03
(PID.TID 0000.0001) %MON dynstat_sst_max              =   3.1314267177592E+01
(PID.TID 0000.0001) %MON dynstat_sst_min              =  -1.9264448758012E+00
(PID.TID 0000.0001) %MON dynstat_sst_mean             =   1.9059980294878E+01
(PID.TID 0000.0001) %MON dynstat_sst_sd               =   9.3084568160093E+00
(PID.TID 0000.0001) %MON dynstat_sst_del2             =   2.9420223895010E-02
(PID.TID 0000.0001) %MON dynstat_sss_max              =   3.7497911314022E+01
(PID.TID 0000.0001) %MON dynstat_sss_min              =   3.0000843646346E+01
(PID.TID 0000.0001) %MON dynstat_sss_mean             =   3.4866766971331E+01
(PID.TID 0000.0001) %MON dynstat_sss_sd               =   9.9395157448813E-01
(PID.TID 0000.0001) %MON dynstat_sss_del2             =   8.3617040379067E-03
(PID.TID 0000.0001) %MON forcing_qnet_max             =   1.7569776000977E+02
(PID.TID 0000.0001) %MON forcing_qnet_min             =  -1.5486766815186E+02
(PID.TID 0000.0001) %MON forcing_qnet_mean            =   1.0726990182177E+00
(PID.TID 0000.0001) %MON forcing_qnet_sd              =   4.1320424539580E+01
(PID.TID 0000.0001) %MON forcing_qnet_del2            =   7.8843737531048E-01
(PID.TID 0000.0001) %MON forcing_qsw_max              =   0.0000000000000E+00
(PID.TID 0000.0001) %MON forcing_qsw_min              =   0.0000000000000E+00
(PID.TID 0000.0001) %MON forcing_qsw_mean             =   0.0000000000000E+00
(PID.TID 0000.0001) %MON forcing_qsw_sd               =   0.0000000000000E+00
(PID.TID 0000.0001) %MON forcing_qsw_del2             =   0.0000000000000E+00
(PID.TID 0000.0001) %MON forcing_empmr_max            =   6.7089230526562E-05
(PID.TID 0000.0001) %MON forcing_empmr_min            =  -8.3576185261336E-05
(PID.TID 0000.0001) %MON forcing_empmr_mean           =   7.9358392299823E-08
(PID.TID 0000.0001) %MON forcing_empmr_sd             =   2.5503892670617E-05
(PID.TID 0000.0001) %MON forcing_empmr_del2           =   3.6761681237783E-07
(PID.TID 0000.0001) %MON forcing_fu_max               =   3.4493733644485E-01
(PID.TID 0000.0001) %MON forcing_fu_min               =  -4.0815093219280E-01
(PID.TID 0000.0001) %MON forcing_fu_mean              =   1.7785695264799E-02
(PID.TID 0000.0001) %MON forcing_fu_sd                =   1.0114758509639E-01
(PID.TID 0000.0001) %MON forcing_fu_del2              =   7.9173719462986E-04
(PID.TID 0000.0001) %MON forcing_fv_max               =   1.8128432035446E-01
(PID.TID 0000.0001) %MON forcing_fv_min               =  -1.4479391127825E-01
(PID.TID 0000.0001) %MON forcing_fv_mean              =  -6.7635653202109E-03
(PID.TID 0000.0001) %MON forcing_fv_sd                =   3.8824397894992E-02
(PID.TID 0000.0001) %MON forcing_fv_del2              =   4.2076797046063E-04
(PID.TID 0000.0001) %MON trAdv_CFL_u_max              =   4.7072146522928E-02
(PID.TID 0000.0001) %MON trAdv_CFL_v_max              =   2.7782916562281E-02
(PID.TID 0000.0001) %MON trAdv_CFL_w_max              =   4.4204189212350E-02
(PID.TID 0000.0001) %MON advcfl_uvel_max              =   4.6089884578266E-02
(PID.TID 0000.0001) %MON advcfl_vvel_max              =   2.7004374795667E-02
(PID.TID 0000.0001) %MON advcfl_wvel_max              =   3.9468387852559E-02
(PID.TID 0000.0001) %MON advcfl_W_hf_max              =   4.7714197224186E-02
(PID.TID 0000.0001) %MON pe_b_mean                    =   4.4630491522930E-04
(PID.TID 0000.0001) %MON ke_max                       =   1.2013876278524E-02
(PID.TID 0000.0001) %MON ke_mean                      =   1.8294868894496E-04
(PID.TID 0000.0001) %MON ke_vol                       =   1.3226782436723E+18
(PID.TID 0000.0001) %MON vort_r_min                   =  -3.8927029640867E-07
(PID.TID 0000.0001) %MON vort_r_max                   =   5.8325027492596E-07
(PID.TID 0000.0001) %MON vort_a_mean                  =  -2.5274807307416E-05
(PID.TID 0000.0001) %MON vort_a_sd                    =   7.3604602022422E-05
(PID.TID 0000.0001) %MON vort_p_mean                  =  -3.1845655686031E-05
(PID.TID 0000.0001) %MON vort_p_sd                    =   1.3162435506605E-04
(PID.TID 0000.0001) %MON surfExpan_theta_mean         =   1.6717587023852E-09
(PID.TID 0000.0001) %MON surfExpan_salt_mean          =   4.9589334487915E-08
(PID.TID 0000.0001) // =======================================================
(PID.TID 0000.0001) // End MONITOR dynamic field statistics
(PID.TID 0000.0001) // =======================================================
 EXTERNAL_FIELDS_LOAD,        97 : iP,iLd,i0,i1=    3    4    3    4 ; Wght=  0.2666666667  0.7333333333
 EXTERNAL_FIELDS_LOAD: (fu0,1),fu,fv= -2.7199E-02 -3.7252E-02 -3.4571E-02 -2.5979E-02
 EXTERNAL_FIELDS_LOAD: SST,SSS,Q,E-P= -2.3128E-02  3.4572E+01  1.3379E+02  8.1189E-06
DEBUG_STATS_RL:          Uvel (THERMODYNAMICS)  min= -1.47849970639618E-01
DEBUG_STATS_RL:          Uvel (THERMODYNAMICS)  max=  1.31219777977839E-01
DEBUG_STATS_RL:          Uvel (THERMODYNAMICS) mean=  5.46314860736167E-03
DEBUG_STATS_RL:          Uvel (THERMODYNAMICS) S.D.=  2.44455650436427E-02
DEBUG_STATS_RL:          Vvel (THERMODYNAMICS)  min= -1.07188668059493E-01
DEBUG_STATS_RL:          Vvel (THERMODYNAMICS)  max=  1.38994359223786E-01
DEBUG_STATS_RL:          Vvel (THERMODYNAMICS) mean=  8.64466216432036E-04
DEBUG_STATS_RL:          Vvel (THERMODYNAMICS) S.D.=  1.42006302488330E-02
DEBUG_STATS_RL:          Wvel (THERMODYNAMICS)  min= -1.02171470730937E-04
DEBUG_STATS_RL:          Wvel (THERMODYNAMICS)  max=  1.08270721057820E-04
DEBUG_STATS_RL:          Wvel (THERMODYNAMICS) mean= -3.66005478891140E-08
DEBUG_STATS_RL:          Wvel (THERMODYNAMICS) S.D.=  1.05824506872847E-05
DEBUG_STATS_RL:         Theta (THERMODYNAMICS)  min= -1.92519006320271E+00
DEBUG_STATS_RL:         Theta (THERMODYNAMICS)  max=  3.13140958627990E+01
DEBUG_STATS_RL:         Theta (THERMODYNAMICS) mean=  3.24913010298879E+00
DEBUG_STATS_RL:         Theta (THERMODYNAMICS) S.D.=  5.88918952944564E+00
DEBUG_STATS_RL:          Salt (THERMODYNAMICS)  min=  3.00000000000000E-02
DEBUG_STATS_RL:          Salt (THERMODYNAMICS)  max=  3.74980438909729E+01
DEBUG_STATS_RL:          Salt (THERMODYNAMICS) mean=  1.88747060376916E+01
DEBUG_STATS_RL:          Salt (THERMODYNAMICS) S.D.=  1.73002729249054E+01
DEBUG_STATS_RL:         GtNm1 (THERMODYNAMICS)  min= -1.91545603099046E-06
DEBUG_STATS_RL:         GtNm1 (THERMODYNAMICS)  max=  1.97009998616214E-06
DEBUG_STATS_RL:         GtNm1 (THERMODYNAMICS) mean= -2.45093741186070E-09
DEBUG_STATS_RL:         GtNm1 (THERMODYNAMICS) S.D.=  1.42658442940470E-07
DEBUG_STATS_RL:         GsNm1 (THERMODYNAMICS)  min= -6.28207347131260E-07
DEBUG_STATS_RL:         GsNm1 (THERMODYNAMICS)  max=  3.72840466301781E-07
DEBUG_STATS_RL:         GsNm1 (THERMODYNAMICS) mean= -1.88758150496875E-10
DEBUG_STATS_RL:         GsNm1 (THERMODYNAMICS) S.D.=  1.45539340537667E-08
DEBUG_STATS_RL:                EtaN (DYNAMICS)  min= -1.86882969686782E+00
DEBUG_STATS_RL:                EtaN (DYNAMICS)  max=  8.65497286797009E-01
DEBUG_STATS_RL:                EtaN (DYNAMICS) mean= -1.73169206693529E-01
DEBUG_STATS_RL:                EtaN (DYNAMICS) S.D.=  6.95468035345037E-01
DEBUG_STATS_RL:                Uvel (DYNAMICS)  min= -1.47849970639618E-01
DEBUG_STATS_RL:                Uvel (DYNAMICS)  max=  1.31219777977839E-01
DEBUG_STATS_RL:                Uvel (DYNAMICS) mean=  5.46314860736167E-03
DEBUG_STATS_RL:                Uvel (DYNAMICS) S.D.=  2.44455650436427E-02
DEBUG_STATS_RL:                Vvel (DYNAMICS)  min= -1.07188668059493E-01
DEBUG_STATS_RL:                Vvel (DYNAMICS)  max=  1.38994359223786E-01
DEBUG_STATS_RL:                Vvel (DYNAMICS) mean=  8.64466216432036E-04
DEBUG_STATS_RL:                Vvel (DYNAMICS) S.D.=  1.42006302488330E-02
DEBUG_STATS_RL:                Wvel (DYNAMICS)  min= -1.02171470730937E-04
DEBUG_STATS_RL:                Wvel (DYNAMICS)  max=  1.08270721057820E-04
DEBUG_STATS_RL:                Wvel (DYNAMICS) mean= -3.66005478891140E-08
DEBUG_STATS_RL:                Wvel (DYNAMICS) S.D.=  1.05824506872847E-05
DEBUG_STATS_RL:               Theta (DYNAMICS)  min= -1.92519006320271E+00
DEBUG_STATS_RL:               Theta (DYNAMICS)  max=  3.13140958627990E+01
DEBUG_STATS_RL:               Theta (DYNAMICS) mean=  3.24913010298879E+00
DEBUG_STATS_RL:               Theta (DYNAMICS) S.D.=  5.88918952944564E+00
DEBUG_STATS_RL:                Salt (DYNAMICS)  min=  3.00000000000000E-02
DEBUG_STATS_RL:                Salt (DYNAMICS)  max=  3.74980438909729E+01
DEBUG_STATS_RL:                Salt (DYNAMICS) mean=  1.88747060376916E+01
DEBUG_STATS_RL:                Salt (DYNAMICS) S.D.=  1.73002729249054E+01
DEBUG_STATS_RL:                  Gu (DYNAMICS)  min= -1.46960272884869E-01
DEBUG_STATS_RL:                  Gu (DYNAMICS)  max=  1.35523980792170E-01
DEBUG_STATS_RL:                  Gu (DYNAMICS) mean=  5.41596370025664E-03
DEBUG_STATS_RL:                  Gu (DYNAMICS) S.D.=  2.47461168689747E-02
DEBUG_STATS_RL:                  Gv (DYNAMICS)  min= -1.04392060334927E-01
DEBUG_STATS_RL:                  Gv (DYNAMICS)  max=  1.38662235874656E-01
DEBUG_STATS_RL:                  Gv (DYNAMICS) mean=  3.49263570152102E-03
DEBUG_STATS_RL:                  Gv (DYNAMICS) S.D.=  1.57036632510584E-02
DEBUG_STATS_RL:               GuNm1 (DYNAMICS)  min= -9.77742612937816E-06
DEBUG_STATS_RL:               GuNm1 (DYNAMICS)  max=  1.03756055821054E-05
DEBUG_STATS_RL:               GuNm1 (DYNAMICS) mean=  2.07629026342164E-08
DEBUG_STATS_RL:               GuNm1 (DYNAMICS) S.D.=  1.24329623339735E-06
DEBUG_STATS_RL:               GvNm1 (DYNAMICS)  min= -9.36484980175324E-06
DEBUG_STATS_RL:               GvNm1 (DYNAMICS)  max=  1.48763887130026E-05
DEBUG_STATS_RL:               GvNm1 (DYNAMICS) mean=  7.48313621636270E-07
DEBUG_STATS_RL:               GvNm1 (DYNAMICS) S.D.=  2.61903080353115E-06
DEBUG_STATS_RL:               GtNm1 (DYNAMICS)  min= -1.91545603099046E-06
DEBUG_STATS_RL:               GtNm1 (DYNAMICS)  max=  1.97009998616214E-06
DEBUG_STATS_RL:               GtNm1 (DYNAMICS) mean= -2.45093741186070E-09
DEBUG_STATS_RL:               GtNm1 (DYNAMICS) S.D.=  1.42658442940470E-07
DEBUG_STATS_RL:               GsNm1 (DYNAMICS)  min= -6.28207347131260E-07
DEBUG_STATS_RL:               GsNm1 (DYNAMICS)  max=  3.72840466301781E-07
DEBUG_STATS_RL:               GsNm1 (DYNAMICS) mean= -1.88758150496875E-10
DEBUG_STATS_RL:               GsNm1 (DYNAMICS) S.D.=  1.45539340537667E-08
DEBUG_STATS_RL:    cg2d_b (SOLVE_FOR_PRESSURE)  min= -2.79388015625528E+04
DEBUG_STATS_RL:    cg2d_b (SOLVE_FOR_PRESSURE)  max=  3.47091523232704E+04
DEBUG_STATS_RL:    cg2d_b (SOLVE_FOR_PRESSURE) mean=  5.62074809716491E+00
DEBUG_STATS_RL:    cg2d_b (SOLVE_FOR_PRESSURE) S.D.=  4.16324553973077E+03
 cg2d: Sum(rhs),rhsMax =   3.74887629745299E-01  2.27979005576926E+00
(PID.TID 0000.0001)  cg2d: iter=     1 ; resid.=  1.13196769035150E-01
(PID.TID 0000.0001)  cg2d: iter=     2 ; resid.=  7.98578128072634E-02
(PID.TID 0000.0001)  cg2d: iter=     3 ; resid.=  6.83305958425330E-02
(PID.TID 0000.0001)  cg2d: iter=     4 ; resid.=  5.50003411739790E-02
(PID.TID 0000.0001)  cg2d: iter=     5 ; resid.=  3.94932980321963E-02
(PID.TID 0000.0001)  cg2d: iter=     6 ; resid.=  3.23368498465341E-02
(PID.TID 0000.0001)  cg2d: iter=     7 ; resid.=  2.64171948592198E-02
(PID.TID 0000.0001)  cg2d: iter=     8 ; resid.=  2.25663479318329E-02
(PID.TID 0000.0001)  cg2d: iter=     9 ; resid.=  1.93891814388770E-02
(PID.TID 0000.0001)  cg2d: iter=    10 ; resid.=  1.70618940557927E-02
(PID.TID 0000.0001)  cg2d: iter=    11 ; resid.=  1.59866719102604E-02
(PID.TID 0000.0001)  cg2d: iter=    12 ; resid.=  1.40168500524157E-02
(PID.TID 0000.0001)  cg2d: iter=    13 ; resid.=  1.18208264217616E-02
(PID.TID 0000.0001)  cg2d: iter=    14 ; resid.=  1.04349851179353E-02
(PID.TID 0000.0001)  cg2d: iter=    15 ; resid.=  8.96628340201621E-03
(PID.TID 0000.0001)  cg2d: iter=    16 ; resid.=  7.50080448048775E-03
(PID.TID 0000.0001)  cg2d: iter=    17 ; resid.=  6.34076175511076E-03
(PID.TID 0000.0001)  cg2d: iter=    18 ; resid.=  5.27160436079267E-03
(PID.TID 0000.0001)  cg2d: iter=    19 ; resid.=  4.50070266403128E-03
(PID.TID 0000.0001)  cg2d: iter=    20 ; resid.=  3.55134548083795E-03
(PID.TID 0000.0001)  cg2d: iter=    21 ; resid.=  3.04664622851423E-03
(PID.TID 0000.0001)  cg2d: iter=    22 ; resid.=  2.55706606137561E-03
(PID.TID 0000.0001)  cg2d: iter=    23 ; resid.=  2.11953830393345E-03
(PID.TID 0000.0001)  cg2d: iter=    24 ; resid.=  1.66872741157859E-03
(PID.TID 0000.0001)  cg2d: iter=    25 ; resid.=  1.29471111704886E-03
(PID.TID 0000.0001)  cg2d: iter=    26 ; resid.=  1.09318261283969E-03
(PID.TID 0000.0001)  cg2d: iter=    27 ; resid.=  9.70793232789784E-04
(PID.TID 0000.0001)  cg2d: iter=    28 ; resid.=  8.46196558252584E-04
(PID.TID 0000.0001)  cg2d: iter=    29 ; resid.=  6.97244740808640E-04
(PID.TID 0000.0001)  cg2d: iter=    30 ; resid.=  5.95870182698290E-04
(PID.TID 0000.0001)  cg2d: iter=    31 ; resid.=  5.21747165549045E-04
(PID.TID 0000.0001)  cg2d: iter=    32 ; resid.=  4.18298931146445E-04
(PID.TID 0000.0001)  cg2d: iter=    33 ; resid.=  3.38588873168280E-04
(PID.TID 0000.0001)  cg2d: iter=    34 ; resid.=  2.82067829208326E-04
(PID.TID 0000.0001)  cg2d: iter=    35 ; resid.=  2.22093229701355E-04
(PID.TID 0000.0001)  cg2d: iter=    36 ; resid.=  1.88795401884388E-04
(PID.TID 0000.0001)  cg2d: iter=    37 ; resid.=  1.49362545369779E-04
(PID.TID 0000.0001)  cg2d: iter=    38 ; resid.=  1.16532057775977E-04
(PID.TID 0000.0001)  cg2d: iter=    39 ; resid.=  9.12504737432291E-05
(PID.TID 0000.0001)  cg2d: iter=    40 ; resid.=  7.14001553858480E-05
(PID.TID 0000.0001)  cg2d: iter=    41 ; resid.=  5.63968330785476E-05
(PID.TID 0000.0001)  cg2d: iter=    42 ; resid.=  5.01197694957579E-05
(PID.TID 0000.0001)  cg2d: iter=    43 ; resid.=  4.53651740171886E-05
(PID.TID 0000.0001)  cg2d: iter=    44 ; resid.=  3.83330966466379E-05
(PID.TID 0000.0001)  cg2d: iter=    45 ; resid.=  3.12253541506695E-05
(PID.TID 0000.0001)  cg2d: iter=    46 ; resid.=  2.56923931970190E-05
(PID.TID 0000.0001)  cg2d: iter=    47 ; resid.=  2.40124322154318E-05
(PID.TID 0000.0001)  cg2d: iter=    48 ; resid.=  2.11969065825205E-05
(PID.TID 0000.0001)  cg2d: iter=    49 ; resid.=  1.75643349604371E-05
(PID.TID 0000.0001)  cg2d: iter=    50 ; resid.=  1.31931085221910E-05
(PID.TID 0000.0001)  cg2d: iter=    51 ; resid.=  1.04030236780045E-05
(PID.TID 0000.0001)  cg2d: iter=    52 ; resid.=  8.38413578452515E-06
(PID.TID 0000.0001)  cg2d: iter=    53 ; resid.=  7.01902243253048E-06
(PID.TID 0000.0001)  cg2d: iter=    54 ; resid.=  5.92165841362965E-06
(PID.TID 0000.0001)  cg2d: iter=    55 ; resid.=  5.36264661996064E-06
(PID.TID 0000.0001)  cg2d: iter=    56 ; resid.=  4.49411361818689E-06
(PID.TID 0000.0001)  cg2d: iter=    57 ; resid.=  3.91400840044790E-06
(PID.TID 0000.0001)  cg2d: iter=    58 ; resid.=  3.05996179681924E-06
(PID.TID 0000.0001)  cg2d: iter=    59 ; resid.=  2.32254124673907E-06
(PID.TID 0000.0001)  cg2d: iter=    60 ; resid.=  1.85495219486528E-06
(PID.TID 0000.0001)  cg2d: iter=    61 ; resid.=  1.32211535573964E-06
(PID.TID 0000.0001)  cg2d: iter=    62 ; resid.=  9.23231619108141E-07
(PID.TID 0000.0001)  cg2d: iter=    63 ; resid.=  7.25562617343914E-07
(PID.TID 0000.0001)  cg2d: iter=    64 ; resid.=  6.39805356091707E-07
(PID.TID 0000.0001)  cg2d: iter=    65 ; resid.=  5.33005500207888E-07
(PID.TID 0000.0001)  cg2d: iter=    66 ; resid.=  4.34981807346849E-07
(PID.TID 0000.0001)  cg2d: iter=    67 ; resid.=  3.94422959285088E-07
(PID.TID 0000.0001)  cg2d: iter=    68 ; resid.=  3.08450248691501E-07
(PID.TID 0000.0001)  cg2d: iter=    69 ; resid.=  2.50502305683932E-07
(PID.TID 0000.0001)  cg2d: iter=    70 ; resid.=  1.94828572423543E-07
(PID.TID 0000.0001)  cg2d: iter=    71 ; resid.=  1.68499068495195E-07
(PID.TID 0000.0001)  cg2d: iter=    72 ; resid.=  1.41131850009383E-07
(PID.TID 0000.0001)  cg2d: iter=    73 ; resid.=  1.26442837615063E-07
(PID.TID 0000.0001)  cg2d: iter=    74 ; resid.=  9.30056796734833E-08
(PID.TID 0000.0001)  cg2d: iter=    75 ; resid.=  6.83085359789430E-08
(PID.TID 0000.0001)  cg2d: iter=    76 ; resid.=  5.34959189563984E-08
(PID.TID 0000.0001)  cg2d: iter=    77 ; resid.=  4.55256233521391E-08
(PID.TID 0000.0001)  cg2d: iter=    78 ; resid.=  3.78376959919259E-08
(PID.TID 0000.0001)  cg2d: iter=    79 ; resid.=  3.40595697389880E-08
(PID.TID 0000.0001)  cg2d: iter=    80 ; resid.=  3.02502378993228E-08
(PID.TID 0000.0001)  cg2d: iter=    81 ; resid.=  2.59357934383915E-08
(PID.TID 0000.0001)  cg2d: iter=    82 ; resid.=  2.29839593990822E-08
(PID.TID 0000.0001)  cg2d: iter=    83 ; resid.=  1.92602904462970E-08
(PID.TID 0000.0001)  cg2d: iter=    84 ; resid.=  1.52300362433227E-08
(PID.TID 0000.0001)  cg2d: iter=    85 ; resid.=  1.09212372906300E-08
(PID.TID 0000.0001)  cg2d: iter=    86 ; resid.=  8.83155761967997E-09
(PID.TID 0000.0001)  cg2d: iter=    87 ; resid.=  7.10118928707439E-09
(PID.TID 0000.0001)  cg2d: iter=    88 ; resid.=  5.56080977255137E-09
(PID.TID 0000.0001)  cg2d: iter=    89 ; resid.=  4.49531432628840E-09
(PID.TID 0000.0001)  cg2d: iter=    90 ; resid.=  3.84762745483005E-09
(PID.TID 0000.0001)  cg2d: iter=    91 ; resid.=  3.01540657445808E-09
(PID.TID 0000.0001)  cg2d: iter=    92 ; resid.=  2.34712721255939E-09
(PID.TID 0000.0001)  cg2d: iter=    93 ; resid.=  1.83962066992846E-09
(PID.TID 0000.0001)  cg2d: iter=    94 ; resid.=  1.45809947286707E-09
(PID.TID 0000.0001)  cg2d: iter=    95 ; resid.=  1.13095127084360E-09
(PID.TID 0000.0001)  cg2d: iter=    96 ; resid.=  8.37684918683073E-10
(PID.TID 0000.0001)  cg2d: iter=    97 ; resid.=  6.51688067828748E-10
(PID.TID 0000.0001)  cg2d: iter=    98 ; resid.=  5.15349888098480E-10
(PID.TID 0000.0001)  cg2d: iter=    99 ; resid.=  3.74294821955659E-10
(PID.TID 0000.0001)  cg2d: iter=   100 ; resid.=  2.97993299170634E-10
(PID.TID 0000.0001)  cg2d: iter=   101 ; resid.=  2.12883672635953E-10
(PID.TID 0000.0001)  cg2d: iter=   102 ; resid.=  1.64985068442336E-10
(PID.TID 0000.0001)  cg2d: iter=   103 ; resid.=  1.45584546023518E-10
(PID.TID 0000.0001)  cg2d: iter=   104 ; resid.=  1.22118471372624E-10
(PID.TID 0000.0001)  cg2d: iter=   105 ; resid.=  1.02893301340891E-10
(PID.TID 0000.0001)  cg2d: iter=   106 ; resid.=  8.49195404377601E-11
(PID.TID 0000.0001)  cg2d: iter=   107 ; resid.=  7.28365612972427E-11
(PID.TID 0000.0001)  cg2d: iter=   108 ; resid.=  5.71196655128252E-11
(PID.TID 0000.0001)  cg2d: iter=   109 ; resid.=  4.30730620872592E-11
(PID.TID 0000.0001)  cg2d: iter=   110 ; resid.=  3.47126047491322E-11
(PID.TID 0000.0001)  cg2d: iter=   111 ; resid.=  3.09848083449284E-11
(PID.TID 0000.0001)  cg2d: iter=   112 ; resid.=  2.65689452336623E-11
(PID.TID 0000.0001)  cg2d: iter=   113 ; resid.=  1.98264970167319E-11
(PID.TID 0000.0001)  cg2d: iter=   114 ; resid.=  1.57303978062703E-11
(PID.TID 0000.0001)  cg2d: iter=   115 ; resid.=  1.27059687237310E-11
(PID.TID 0000.0001)  cg2d: iter=   116 ; resid.=  9.65324543734350E-12
(PID.TID 0000.0001)  cg2d: iter=   117 ; resid.=  6.97861732191688E-12
(PID.TID 0000.0001)  cg2d: iter=   118 ; resid.=  5.47882254396206E-12
(PID.TID 0000.0001)  cg2d: iter=   119 ; resid.=  4.26632866657562E-12
(PID.TID 0000.0001)  cg2d: iter=   120 ; resid.=  3.17803613516090E-12
(PID.TID 0000.0001)  cg2d: iter=   121 ; resid.=  2.30802144390876E-12
(PID.TID 0000.0001)  cg2d: iter=   122 ; resid.=  1.77857748551173E-12
(PID.TID 0000.0001)  cg2d: iter=   123 ; resid.=  1.40695725309404E-12
(PID.TID 0000.0001)  cg2d: iter=   124 ; resid.=  1.09150995852050E-12
(PID.TID 0000.0001)  cg2d: iter=   125 ; resid.=  8.81327819937416E-13
(PID.TID 0000.0001)  cg2d: iter=   126 ; resid.=  6.73781326776918E-13
(PID.TID 0000.0001)  cg2d: iter=   127 ; resid.=  4.60829430494544E-13
(PID.TID 0000.0001)  cg2d: iter=   128 ; resid.=  3.04879376736266E-13
(PID.TID 0000.0001)  cg2d: iter=   129 ; resid.=  2.06466867235935E-13
(PID.TID 0000.0001)  cg2d: iter=   130 ; resid.=  1.54370699096401E-13
(PID.TID 0000.0001)  cg2d: iter=   131 ; resid.=  1.20927896071702E-13
(PID.TID 0000.0001)  cg2d: iter=   132 ; resid.=  8.94999745581502E-14
DEBUG_STATS_RL:    cg2d_x (SOLVE_FOR_PRESSURE)  min= -1.85424619722554E+01
DEBUG_STATS_RL:    cg2d_x (SOLVE_FOR_PRESSURE)  max=  8.51792449880087E+00
DEBUG_STATS_RL:    cg2d_x (SOLVE_FOR_PRESSURE) mean= -1.69579498970667E+00
DEBUG_STATS_RL:    cg2d_x (SOLVE_FOR_PRESSURE) S.D.=  6.85948517048139E+00
(PID.TID 0000.0001)      cg2d_init_res =   2.32806175448570E-01
(PID.TID 0000.0001)      cg2d_iters(min,last) =      -1     132
(PID.TID 0000.0001)      cg2d_last_res =   8.94999745581502E-14
(PID.TID 0000.0001) // =======================================================
(PID.TID 0000.0001) // Begin MONITOR dynamic field statistics
(PID.TID 0000.0001) // =======================================================
(PID.TID 0000.0001) %MON time_tsnumber                =                    98
(PID.TID 0000.0001) %MON time_secondsf                =   8.4672000000000E+06
(PID.TID 0000.0001) %MON dynstat_eta_max              =   8.6828995910304E-01
(PID.TID 0000.0001) %MON dynstat_eta_min              =  -1.8901592224522E+00
(PID.TID 0000.0001) %MON dynstat_eta_mean             =  -5.8645536896364E-03
(PID.TID 0000.0001) %MON dynstat_eta_sd               =   5.9336006920320E-01
(PID.TID 0000.0001) %MON dynstat_eta_del2             =   2.6523301153685E-03
(PID.TID 0000.0001) %MON dynstat_uvel_max             =   1.3656596710087E-01
(PID.TID 0000.0001) %MON dynstat_uvel_min             =  -1.4740976835588E-01
(PID.TID 0000.0001) %MON dynstat_uvel_mean            =   2.0918832100042E-03
(PID.TID 0000.0001) %MON dynstat_uvel_sd              =   1.7500322106788E-02
(PID.TID 0000.0001) %MON dynstat_uvel_del2            =   1.5491535110096E-04
(PID.TID 0000.0001) %MON dynstat_vvel_max             =   1.3521207431577E-01
(PID.TID 0000.0001) %MON dynstat_vvel_min             =  -1.0532447907387E-01
(PID.TID 0000.0001) %MON dynstat_vvel_mean            =   8.6259666858633E-05
(PID.TID 0000.0001) %MON dynstat_vvel_sd              =   9.4145327942758E-03
(PID.TID 0000.0001) %MON dynstat_vvel_del2            =   8.8088381066776E-05
(PID.TID 0000.0001) %MON dynstat_wvel_max             =   9.9991427696748E-05
(PID.TID 0000.0001) %MON dynstat_wvel_min             =  -9.6448321878167E-05
(PID.TID 0000.0001) %MON dynstat_wvel_mean            =   9.8743453012495E-23
(PID.TID 0000.0001) %MON dynstat_wvel_sd              =   1.2262722541169E-05
(PID.TID 0000.0001) %MON dynstat_wvel_del2            =   1.2079718134983E-07
(PID.TID 0000.0001) %MON dynstat_theta_max            =   3.1314095862799E+01
(PID.TID 0000.0001) %MON dynstat_theta_min            =  -1.9251900632027E+00
(PID.TID 0000.0001) %MON dynstat_theta_mean           =   3.6541786126135E+00
(PID.TID 0000.0001) %MON dynstat_theta_sd             =   4.4292447256102E+00
(PID.TID 0000.0001) %MON dynstat_theta_del2           =   4.8502493042969E-03
(PID.TID 0000.0001) %MON dynstat_salt_max             =   3.7498043890973E+01
(PID.TID 0000.0001) %MON dynstat_salt_min             =   3.0004957594640E+01
(PID.TID 0000.0001) %MON dynstat_salt_mean            =   3.4747974256490E+01
(PID.TID 0000.0001) %MON dynstat_salt_sd              =   2.9663252282773E-01
(PID.TID 0000.0001) %MON dynstat_salt_del2            =   1.0017297156953E-03
(PID.TID 0000.0001) %MON dynstat_sst_max              =   3.1314095862799E+01
(PID.TID 0000.0001) %MON dynstat_sst_min              =  -1.9251900632027E+00
(PID.TID 0000.0001) %MON dynstat_sst_mean             =   1.9055958996119E+01
(PID.TID 0000.0001) %MON dynstat_sst_sd               =   9.3154936571182E+00
(PID.TID 0000.0001) %MON dynstat_sst_del2             =   2.9444581153780E-02
(PID.TID 0000.0001) %MON dynstat_sss_max              =   3.7498043890973E+01
(PID.TID 0000.0001) %MON dynstat_sss_min              =   3.0004957594640E+01
(PID.TID 0000.0001) %MON dynstat_sss_mean             =   3.4866541034547E+01
(PID.TID 0000.0001) %MON dynstat_sss_sd               =   9.9435152983330E-01
(PID.TID 0000.0001) %MON dynstat_sss_del2             =   8.3734931681011E-03
(PID.TID 0000.0001) %MON forcing_qnet_max             =   1.7099252522786E+02
(PID.TID 0000.0001) %MON forcing_qnet_min             =  -1.5443967183431E+02
(PID.TID 0000.0001) %MON forcing_qnet_mean            =   1.4697354471873E+00
(PID.TID 0000.0001) %MON forcing_qnet_sd              =   4.1898539270687E+01
(PID.TID 0000.0001) %MON forcing_qnet_del2            =   7.9096758072099E-01
(PID.TID 0000.0001) %MON forcing_qsw_max              =   0.0000000000000E+00
(PID.TID 0000.0001) %MON forcing_qsw_min              =   0.0000000000000E+00
(PID.TID 0000.0001) %MON forcing_qsw_mean             =   0.0000000000000E+00
(PID.TID 0000.0001) %MON forcing_qsw_sd               =   0.0000000000000E+00
(PID.TID 0000.0001) %MON forcing_qsw_del2             =   0.0000000000000E+00
(PID.TID 0000.0001) %MON forcing_empmr_max            =   6.6993059514668E-05
(PID.TID 0000.0001) %MON forcing_empmr_min            =  -8.3591031341257E-05
(PID.TID 0000.0001) %MON forcing_empmr_mean           =   5.6913027472259E-08
(PID.TID 0000.0001) %MON forcing_empmr_sd             =   2.5506549223614E-05
(PID.TID 0000.0001) %MON forcing_empmr_del2           =   3.6847966604449E-07
(PID.TID 0000.0001) %MON forcing_fu_max               =   3.4444528222084E-01
(PID.TID 0000.0001) %MON forcing_fu_min               =  -4.0908400416374E-01
(PID.TID 0000.0001) %MON forcing_fu_mean              =   1.7658503167866E-02
(PID.TID 0000.0001) %MON forcing_fu_sd                =   1.0136293778860E-01
(PID.TID 0000.0001) %MON forcing_fu_del2              =   7.9668426587324E-04
(PID.TID 0000.0001) %MON forcing_fv_max               =   1.8118831912676E-01
(PID.TID 0000.0001) %MON forcing_fv_min               =  -1.4509931405385E-01
(PID.TID 0000.0001) %MON forcing_fv_mean              =  -6.7270886478379E-03
(PID.TID 0000.0001) %MON forcing_fv_sd                =   3.8931335911595E-02
(PID.TID 0000.0001) %MON forcing_fv_del2              =   4.2395820174704E-04
(PID.TID 0000.0001) %MON trAdv_CFL_u_max              =   4.6099245763464E-02
(PID.TID 0000.0001) %MON trAdv_CFL_v_max              =   2.6960488518064E-02
(PID.TID 0000.0001) %MON trAdv_CFL_w_max              =   4.4661596780528E-02
(PID.TID 0000.0001) %MON advcfl_uvel_max              =   4.5580386015141E-02
(PID.TID 0000.0001) %MON advcfl_vvel_max              =   2.6269537498597E-02
(PID.TID 0000.0001) %MON advcfl_wvel_max              =   3.8758767489645E-02
(PID.TID 0000.0001) %MON advcfl_W_hf_max              =   4.5677404213650E-02
(PID.TID 0000.0001) %MON pe_b_mean                    =   4.5056790843571E-04
(PID.TID 0000.0001) %MON ke_max                       =   1.1872930188991E-02
(PID.TID 0000.0001) %MON ke_mean                      =   1.8092197468693E-04
(PID.TID 0000.0001) %MON ke_vol                       =   1.3226782436723E+18
(PID.TID 0000.0001) %MON vort_r_min                   =  -3.9528967210309E-07
(PID.TID 0000.0001) %MON vort_r_max                   =   5.6126861195990E-07
(PID.TID 0000.0001) %MON vort_a_mean                  =  -2.5274807266162E-05
(PID.TID 0000.0001) %MON vort_a_sd                    =   7.3604619858419E-05
(PID.TID 0000.0001) %MON vort_p_mean                  =  -3.1845655634051E-05
(PID.TID 0000.0001) %MON vort_p_sd                    =   1.3162440144714E-04
(PID.TID 0000.0001) %MON surfExpan_theta_mean         =   1.3716072271644E-07
(PID.TID 0000.0001) %MON surfExpan_salt_mean          =   1.7121491906617E-08
(PID.TID 0000.0001) // =======================================================
(PID.TID 0000.0001) // End MONITOR dynamic field statistics
(PID.TID 0000.0001) // =======================================================
 EXTERNAL_FIELDS_LOAD,        98 : iP,iLd,i0,i1=    3    4    3    4 ; Wght=  0.2333333333  0.7666666667
 EXTERNAL_FIELDS_LOAD: (fu0,1),fu,fv= -2.7199E-02 -3.7252E-02 -3.4906E-02 -2.7134E-02
 EXTERNAL_FIELDS_LOAD: SST,SSS,Q,E-P= -1.5820E-02  3.4571E+01  1.3008E+02  8.0751E-06
DEBUG_STATS_RL:          Uvel (THERMODYNAMICS)  min= -1.47409768355876E-01
DEBUG_STATS_RL:          Uvel (THERMODYNAMICS)  max=  1.36565967100865E-01
DEBUG_STATS_RL:          Uvel (THERMODYNAMICS) mean=  5.54793277374248E-03
DEBUG_STATS_RL:          Uvel (THERMODYNAMICS) S.D.=  2.43904624743846E-02
DEBUG_STATS_RL:          Vvel (THERMODYNAMICS)  min= -1.05324479073870E-01
DEBUG_STATS_RL:          Vvel (THERMODYNAMICS)  max=  1.35212074315773E-01
DEBUG_STATS_RL:          Vvel (THERMODYNAMICS) mean=  8.37585099264636E-04
DEBUG_STATS_RL:          Vvel (THERMODYNAMICS) S.D.=  1.40815173087040E-02
DEBUG_STATS_RL:          Wvel (THERMODYNAMICS)  min= -9.64483218781668E-05
DEBUG_STATS_RL:          Wvel (THERMODYNAMICS)  max=  9.99914276967484E-05
DEBUG_STATS_RL:          Wvel (THERMODYNAMICS) mean= -4.10902429072007E-08
DEBUG_STATS_RL:          Wvel (THERMODYNAMICS) S.D.=  1.04454152973009E-05
DEBUG_STATS_RL:         Theta (THERMODYNAMICS)  min= -1.92377553719071E+00
DEBUG_STATS_RL:         Theta (THERMODYNAMICS)  max=  3.13219381127630E+01
DEBUG_STATS_RL:         Theta (THERMODYNAMICS) mean=  3.24893525540269E+00
DEBUG_STATS_RL:         Theta (THERMODYNAMICS) S.D.=  5.88907613162613E+00
DEBUG_STATS_RL:          Salt (THERMODYNAMICS)  min=  3.00000000000000E-02
DEBUG_STATS_RL:          Salt (THERMODYNAMICS)  max=  3.74981837121616E+01
DEBUG_STATS_RL:          Salt (THERMODYNAMICS) mean=  1.88747016663091E+01
DEBUG_STATS_RL:          Salt (THERMODYNAMICS) S.D.=  1.73002697042229E+01
DEBUG_STATS_RL:         GtNm1 (THERMODYNAMICS)  min= -1.72943073781177E-06
DEBUG_STATS_RL:         GtNm1 (THERMODYNAMICS)  max=  1.89852480009822E-06
DEBUG_STATS_RL:         GtNm1 (THERMODYNAMICS) mean= -2.68716612163123E-09
DEBUG_STATS_RL:         GtNm1 (THERMODYNAMICS) S.D.=  1.40525114208422E-07
DEBUG_STATS_RL:         GsNm1 (THERMODYNAMICS)  min= -4.36966552357503E-07
DEBUG_STATS_RL:         GsNm1 (THERMODYNAMICS)  max=  3.23819392020732E-07
DEBUG_STATS_RL:         GsNm1 (THERMODYNAMICS) mean= -1.67694886926856E-10
DEBUG_STATS_RL:         GsNm1 (THERMODYNAMICS) S.D.=  1.37689884079620E-08
DEBUG_STATS_RL:                EtaN (DYNAMICS)  min= -1.89015922245217E+00
DEBUG_STATS_RL:                EtaN (DYNAMICS)  max=  8.68289959103043E-01
DEBUG_STATS_RL:                EtaN (DYNAMICS) mean= -1.72863913323819E-01
DEBUG_STATS_RL:                EtaN (DYNAMICS) S.D.=  6.99233962332461E-01
DEBUG_STATS_RL:                Uvel (DYNAMICS)  min= -1.47409768355876E-01
DEBUG_STATS_RL:                Uvel (DYNAMICS)  max=  1.36565967100865E-01
DEBUG_STATS_RL:                Uvel (DYNAMICS) mean=  5.54793277374248E-03
DEBUG_STATS_RL:                Uvel (DYNAMICS) S.D.=  2.43904624743846E-02
DEBUG_STATS_RL:                Vvel (DYNAMICS)  min= -1.05324479073870E-01
DEBUG_STATS_RL:                Vvel (DYNAMICS)  max=  1.35212074315773E-01
DEBUG_STATS_RL:                Vvel (DYNAMICS) mean=  8.37585099264636E-04
DEBUG_STATS_RL:                Vvel (DYNAMICS) S.D.=  1.40815173087040E-02
DEBUG_STATS_RL:                Wvel (DYNAMICS)  min= -9.64483218781668E-05
DEBUG_STATS_RL:                Wvel (DYNAMICS)  max=  9.99914276967484E-05
DEBUG_STATS_RL:                Wvel (DYNAMICS) mean= -4.10902429072007E-08
DEBUG_STATS_RL:                Wvel (DYNAMICS) S.D.=  1.04454152973009E-05
DEBUG_STATS_RL:               Theta (DYNAMICS)  min= -1.92377553719071E+00
DEBUG_STATS_RL:               Theta (DYNAMICS)  max=  3.13219381127630E+01
DEBUG_STATS_RL:               Theta (DYNAMICS) mean=  3.24893525540269E+00
DEBUG_STATS_RL:               Theta (DYNAMICS) S.D.=  5.88907613162613E+00
DEBUG_STATS_RL:                Salt (DYNAMICS)  min=  3.00000000000000E-02
DEBUG_STATS_RL:                Salt (DYNAMICS)  max=  3.74981837121616E+01
DEBUG_STATS_RL:                Salt (DYNAMICS) mean=  1.88747016663091E+01
DEBUG_STATS_RL:                Salt (DYNAMICS) S.D.=  1.73002697042229E+01
DEBUG_STATS_RL:                  Gu (DYNAMICS)  min= -1.46527244719844E-01
DEBUG_STATS_RL:                  Gu (DYNAMICS)  max=  1.37991047792928E-01
DEBUG_STATS_RL:                  Gu (DYNAMICS) mean=  5.50988458767758E-03
DEBUG_STATS_RL:                  Gu (DYNAMICS) S.D.=  2.47008060837804E-02
DEBUG_STATS_RL:                  Gv (DYNAMICS)  min= -1.06409304205730E-01
DEBUG_STATS_RL:                  Gv (DYNAMICS)  max=  1.34455768490172E-01
DEBUG_STATS_RL:                  Gv (DYNAMICS) mean=  3.51109506656982E-03
DEBUG_STATS_RL:                  Gv (DYNAMICS) S.D.=  1.55980181648244E-02
DEBUG_STATS_RL:               GuNm1 (DYNAMICS)  min= -9.70291350843365E-06
DEBUG_STATS_RL:               GuNm1 (DYNAMICS)  max=  1.03666362306387E-05
DEBUG_STATS_RL:               GuNm1 (DYNAMICS) mean=  2.09338985101741E-08
DEBUG_STATS_RL:               GuNm1 (DYNAMICS) S.D.=  1.24376514471640E-06
DEBUG_STATS_RL:               GvNm1 (DYNAMICS)  min= -9.38540046283750E-06
DEBUG_STATS_RL:               GvNm1 (DYNAMICS)  max=  1.48541578009858E-05
DEBUG_STATS_RL:               GvNm1 (DYNAMICS) mean=  7.49240960278595E-07
DEBUG_STATS_RL:               GvNm1 (DYNAMICS) S.D.=  2.61910689441175E-06
DEBUG_STATS_RL:               GtNm1 (DYNAMICS)  min= -1.72943073781177E-06
DEBUG_STATS_RL:               GtNm1 (DYNAMICS)  max=  1.89852480009822E-06
DEBUG_STATS_RL:               GtNm1 (DYNAMICS) mean= -2.68716612163123E-09
DEBUG_STATS_RL:               GtNm1 (DYNAMICS) S.D.=  1.40525114208422E-07
DEBUG_STATS_RL:               GsNm1 (DYNAMICS)  min= -4.36966552357503E-07
DEBUG_STATS_RL:               GsNm1 (DYNAMICS)  max=  3.23819392020732E-07
DEBUG_STATS_RL:               GsNm1 (DYNAMICS) mean= -1.67694886926856E-10
DEBUG_STATS_RL:               GsNm1 (DYNAMICS) S.D.=  1.37689884079620E-08
DEBUG_STATS_RL:    cg2d_b (SOLVE_FOR_PRESSURE)  min= -2.70917369162158E+04
DEBUG_STATS_RL:    cg2d_b (SOLVE_FOR_PRESSURE)  max=  3.46881182651937E+04
DEBUG_STATS_RL:    cg2d_b (SOLVE_FOR_PRESSURE) mean=  5.62350578041838E+00
DEBUG_STATS_RL:    cg2d_b (SOLVE_FOR_PRESSURE) S.D.=  4.15939487164305E+03
 cg2d: Sum(rhs),rhsMax =   3.75298993797874E-01  2.27840848251766E+00
(PID.TID 0000.0001)  cg2d: iter=     1 ; resid.=  1.12233648949773E-01
(PID.TID 0000.0001)  cg2d: iter=     2 ; resid.=  7.92557007645009E-02
(PID.TID 0000.0001)  cg2d: iter=     3 ; resid.=  6.80289518786815E-02
(PID.TID 0000.0001)  cg2d: iter=     4 ; resid.=  5.50350847288321E-02
(PID.TID 0000.0001)  cg2d: iter=     5 ; resid.=  3.93039297868937E-02
(PID.TID 0000.0001)  cg2d: iter=     6 ; resid.=  3.21857037030850E-02
(PID.TID 0000.0001)  cg2d: iter=     7 ; resid.=  2.68761233402970E-02
(PID.TID 0000.0001)  cg2d: iter=     8 ; resid.=  2.32469399559286E-02
(PID.TID 0000.0001)  cg2d: iter=     9 ; resid.=  1.99137150307380E-02
(PID.TID 0000.0001)  cg2d: iter=    10 ; resid.=  1.71381289784537E-02
(PID.TID 0000.0001)  cg2d: iter=    11 ; resid.=  1.57686011257885E-02
(PID.TID 0000.0001)  cg2d: iter=    12 ; resid.=  1.39305093636005E-02
(PID.TID 0000.0001)  cg2d: iter=    13 ; resid.=  1.16242608675789E-02
(PID.TID 0000.0001)  cg2d: iter=    14 ; resid.=  1.01328260147001E-02
(PID.TID 0000.0001)  cg2d: iter=    15 ; resid.=  8.61254622121082E-03
(PID.TID 0000.0001)  cg2d: iter=    16 ; resid.=  7.03812177142720E-03
(PID.TID 0000.0001)  cg2d: iter=    17 ; resid.=  5.90281467455860E-03
(PID.TID 0000.0001)  cg2d: iter=    18 ; resid.=  4.90210292646807E-03
(PID.TID 0000.0001)  cg2d: iter=    19 ; resid.=  4.12789071039579E-03
(PID.TID 0000.0001)  cg2d: iter=    20 ; resid.=  3.34870016408808E-03
(PID.TID 0000.0001)  cg2d: iter=    21 ; resid.=  2.89159662739065E-03
(PID.TID 0000.0001)  cg2d: iter=    22 ; resid.=  2.53225240821046E-03
(PID.TID 0000.0001)  cg2d: iter=    23 ; resid.=  2.20577470686392E-03
(PID.TID 0000.0001)  cg2d: iter=    24 ; resid.=  1.79120757548374E-03
(PID.TID 0000.0001)  cg2d: iter=    25 ; resid.=  1.41802291869646E-03
(PID.TID 0000.0001)  cg2d: iter=    26 ; resid.=  1.24230864596417E-03
(PID.TID 0000.0001)  cg2d: iter=    27 ; resid.=  1.13756688509083E-03
(PID.TID 0000.0001)  cg2d: iter=    28 ; resid.=  1.00450922153272E-03
(PID.TID 0000.0001)  cg2d: iter=    29 ; resid.=  8.24976367938818E-04
(PID.TID 0000.0001)  cg2d: iter=    30 ; resid.=  6.86214729664108E-04
(PID.TID 0000.0001)  cg2d: iter=    31 ; resid.=  5.71751165768184E-04
(PID.TID 0000.0001)  cg2d: iter=    32 ; resid.=  4.40418366715456E-04
(PID.TID 0000.0001)  cg2d: iter=    33 ; resid.=  3.37862346481809E-04
(PID.TID 0000.0001)  cg2d: iter=    34 ; resid.=  2.67036461421093E-04
(PID.TID 0000.0001)  cg2d: iter=    35 ; resid.=  2.06657549350303E-04
(PID.TID 0000.0001)  cg2d: iter=    36 ; resid.=  1.70950574298037E-04
(PID.TID 0000.0001)  cg2d: iter=    37 ; resid.=  1.30985486173799E-04
(PID.TID 0000.0001)  cg2d: iter=    38 ; resid.=  9.91232339010032E-05
(PID.TID 0000.0001)  cg2d: iter=    39 ; resid.=  7.46925276876918E-05
(PID.TID 0000.0001)  cg2d: iter=    40 ; resid.=  5.60549294365666E-05
(PID.TID 0000.0001)  cg2d: iter=    41 ; resid.=  4.07115867976668E-05
(PID.TID 0000.0001)  cg2d: iter=    42 ; resid.=  3.27816176346843E-05
(PID.TID 0000.0001)  cg2d: iter=    43 ; resid.=  2.78042025861681E-05
(PID.TID 0000.0001)  cg2d: iter=    44 ; resid.=  2.29025851536028E-05
(PID.TID 0000.0001)  cg2d: iter=    45 ; resid.=  1.79019212092937E-05
(PID.TID 0000.0001)  cg2d: iter=    46 ; resid.=  1.39614273812103E-05
(PID.TID 0000.0001)  cg2d: iter=    47 ; resid.=  1.22933452183157E-05
(PID.TID 0000.0001)  cg2d: iter=    48 ; resid.=  1.07062549576250E-05
(PID.TID 0000.0001)  cg2d: iter=    49 ; resid.=  9.09520500476167E-06
(PID.TID 0000.0001)  cg2d: iter=    50 ; resid.=  6.87432228183963E-06
(PID.TID 0000.0001)  cg2d: iter=    51 ; resid.=  5.26499835414260E-06
(PID.TID 0000.0001)  cg2d: iter=    52 ; resid.=  4.01538301112216E-06
(PID.TID 0000.0001)  cg2d: iter=    53 ; resid.=  2.99255892429489E-06
(PID.TID 0000.0001)  cg2d: iter=    54 ; resid.=  2.18041285145163E-06
(PID.TID 0000.0001)  cg2d: iter=    55 ; resid.=  1.76957733897076E-06
(PID.TID 0000.0001)  cg2d: iter=    56 ; resid.=  1.38410194770263E-06
(PID.TID 0000.0001)  cg2d: iter=    57 ; resid.=  1.24472480677513E-06
(PID.TID 0000.0001)  cg2d: iter=    58 ; resid.=  1.06311128218095E-06
(PID.TID 0000.0001)  cg2d: iter=    59 ; resid.=  8.93976287447740E-07
(PID.TID 0000.0001)  cg2d: iter=    60 ; resid.=  7.98548621074291E-07
(PID.TID 0000.0001)  cg2d: iter=    61 ; resid.=  6.42358885562511E-07
(PID.TID 0000.0001)  cg2d: iter=    62 ; resid.=  4.73742659737510E-07
(PID.TID 0000.0001)  cg2d: iter=    63 ; resid.=  3.65573178704994E-07
(PID.TID 0000.0001)  cg2d: iter=    64 ; resid.=  3.21604830905159E-07
(PID.TID 0000.0001)  cg2d: iter=    65 ; resid.=  2.70448743319383E-07
(PID.TID 0000.0001)  cg2d: iter=    66 ; resid.=  2.21490688987990E-07
(PID.TID 0000.0001)  cg2d: iter=    67 ; resid.=  2.02345422477053E-07
(PID.TID 0000.0001)  cg2d: iter=    68 ; resid.=  1.67270181121571E-07
(PID.TID 0000.0001)  cg2d: iter=    69 ; resid.=  1.38871878717958E-07
(PID.TID 0000.0001)  cg2d: iter=    70 ; resid.=  1.05778296434985E-07
(PID.TID 0000.0001)  cg2d: iter=    71 ; resid.=  8.73781201064517E-08
(PID.TID 0000.0001)  cg2d: iter=    72 ; resid.=  7.25298152937376E-08
(PID.TID 0000.0001)  cg2d: iter=    73 ; resid.=  6.77204953587621E-08
(PID.TID 0000.0001)  cg2d: iter=    74 ; resid.=  5.28847296574976E-08
(PID.TID 0000.0001)  cg2d: iter=    75 ; resid.=  3.92550864702504E-08
(PID.TID 0000.0001)  cg2d: iter=    76 ; resid.=  2.95325727561822E-08
(PID.TID 0000.0001)  cg2d: iter=    77 ; resid.=  2.35908337215621E-08
(PID.TID 0000.0001)  cg2d: iter=    78 ; resid.=  1.81093576577463E-08
(PID.TID 0000.0001)  cg2d: iter=    79 ; resid.=  1.44306320606728E-08
(PID.TID 0000.0001)  cg2d: iter=    80 ; resid.=  1.18484003272533E-08
(PID.TID 0000.0001)  cg2d: iter=    81 ; resid.=  9.61148413149457E-09
(PID.TID 0000.0001)  cg2d: iter=    82 ; resid.=  8.42076613540464E-09
(PID.TID 0000.0001)  cg2d: iter=    83 ; resid.=  7.18401744551903E-09
(PID.TID 0000.0001)  cg2d: iter=    84 ; resid.=  6.27006867233321E-09
(PID.TID 0000.0001)  cg2d: iter=    85 ; resid.=  4.78343104475675E-09
(PID.TID 0000.0001)  cg2d: iter=    86 ; resid.=  3.78846834943674E-09
(PID.TID 0000.0001)  cg2d: iter=    87 ; resid.=  3.05729248711489E-09
(PID.TID 0000.0001)  cg2d: iter=    88 ; resid.=  2.39363623497828E-09
(PID.TID 0000.0001)  cg2d: iter=    89 ; resid.=  1.92593155133547E-09
(PID.TID 0000.0001)  cg2d: iter=    90 ; resid.=  1.63833622634309E-09
(PID.TID 0000.0001)  cg2d: iter=    91 ; resid.=  1.33500712408913E-09
(PID.TID 0000.0001)  cg2d: iter=    92 ; resid.=  1.09144468606126E-09
(PID.TID 0000.0001)  cg2d: iter=    93 ; resid.=  8.84166673754469E-10
(PID.TID 0000.0001)  cg2d: iter=    94 ; resid.=  7.16060022312260E-10
(PID.TID 0000.0001)  cg2d: iter=    95 ; resid.=  5.66812442666586E-10
(PID.TID 0000.0001)  cg2d: iter=    96 ; resid.=  4.37070225583573E-10
(PID.TID 0000.0001)  cg2d: iter=    97 ; resid.=  3.50532911561950E-10
(PID.TID 0000.0001)  cg2d: iter=    98 ; resid.=  2.87550703759716E-10
(PID.TID 0000.0001)  cg2d: iter=    99 ; resid.=  2.16467106991967E-10
(PID.TID 0000.0001)  cg2d: iter=   100 ; resid.=  1.78611224665342E-10
(PID.TID 0000.0001)  cg2d: iter=   101 ; resid.=  1.34156977255862E-10
(PID.TID 0000.0001)  cg2d: iter=   102 ; resid.=  1.06698822252429E-10
(PID.TID 0000.0001)  cg2d: iter=   103 ; resid.=  9.59788725082498E-11
(PID.TID 0000.0001)  cg2d: iter=   104 ; resid.=  8.12427654629252E-11
(PID.TID 0000.0001)  cg2d: iter=   105 ; resid.=  7.19140985700313E-11
(PID.TID 0000.0001)  cg2d: iter=   106 ; resid.=  6.23483820851993E-11
(PID.TID 0000.0001)  cg2d: iter=   107 ; resid.=  5.76436646620135E-11
(PID.TID 0000.0001)  cg2d: iter=   108 ; resid.=  4.91750378789463E-11
(PID.TID 0000.0001)  cg2d: iter=   109 ; resid.=  3.90642047019300E-11
(PID.TID 0000.0001)  cg2d: iter=   110 ; resid.=  3.18065618420289E-11
(PID.TID 0000.0001)  cg2d: iter=   111 ; resid.=  2.87379701933406E-11
(PID.TID 0000.0001)  cg2d: iter=   112 ; resid.=  2.56335734769250E-11
(PID.TID 0000.0001)  cg2d: iter=   113 ; resid.=  1.92995660808908E-11
(PID.TID 0000.0001)  cg2d: iter=   114 ; resid.=  1.51370396809501E-11
(PID.TID 0000.0001)  cg2d: iter=   115 ; resid.=  1.20302959632249E-11
(PID.TID 0000.0001)  cg2d: iter=   116 ; resid.=  9.21079315614997E-12
(PID.TID 0000.0001)  cg2d: iter=   117 ; resid.=  6.69429262643797E-12
(PID.TID 0000.0001)  cg2d: iter=   118 ; resid.=  5.26938999218734E-12
(PID.TID 0000.0001)  cg2d: iter=   119 ; resid.=  4.10720994927242E-12
(PID.TID 0000.0001)  cg2d: iter=   120 ; resid.=  3.06980403952274E-12
(PID.TID 0000.0001)  cg2d: iter=   121 ; resid.=  2.26957305186995E-12
(PID.TID 0000.0001)  cg2d: iter=   122 ; resid.=  1.80839061470119E-12
(PID.TID 0000.0001)  cg2d: iter=   123 ; resid.=  1.46829426441020E-12
(PID.TID 0000.0001)  cg2d: iter=   124 ; resid.=  1.16675709183978E-12
(PID.TID 0000.0001)  cg2d: iter=   125 ; resid.=  9.29766292586541E-13
(PID.TID 0000.0001)  cg2d: iter=   126 ; resid.=  6.99483769199551E-13
(PID.TID 0000.0001)  cg2d: iter=   127 ; resid.=  4.58734771094611E-13
(PID.TID 0000.0001)  cg2d: iter=   128 ; resid.=  2.90146195167308E-13
(PID.TID 0000.0001)  cg2d: iter=   129 ; resid.=  1.88029833091464E-13
(PID.TID 0000.0001)  cg2d: iter=   130 ; resid.=  1.33468330535249E-13
(PID.TID 0000.0001)  cg2d: iter=   131 ; resid.=  1.00712077215880E-13
(PID.TID 0000.0001)  cg2d: iter=   132 ; resid.=  7.36333796842383E-14
DEBUG_STATS_RL:    cg2d_x (SOLVE_FOR_PRESSURE)  min= -1.87377209748760E+01
DEBUG_STATS_RL:    cg2d_x (SOLVE_FOR_PRESSURE)  max=  8.39511414672831E+00
DEBUG_STATS_RL:    cg2d_x (SOLVE_FOR_PRESSURE) mean= -1.69798172535621E+00
DEBUG_STATS_RL:    cg2d_x (SOLVE_FOR_PRESSURE) S.D.=  6.90031685892005E+00
(PID.TID 0000.0001)      cg2d_init_res =   2.30311137892398E-01
(PID.TID 0000.0001)      cg2d_iters(min,last) =      -1     132
(PID.TID 0000.0001)      cg2d_last_res =   7.36333796842383E-14
(PID.TID 0000.0001) // =======================================================
(PID.TID 0000.0001) // Begin MONITOR dynamic field statistics
(PID.TID 0000.0001) // =======================================================
(PID.TID 0000.0001) %MON time_tsnumber                =                    99
(PID.TID 0000.0001) %MON time_secondsf                =   8.5536000000000E+06
(PID.TID 0000.0001) %MON dynstat_eta_max              =   8.5577106490605E-01
(PID.TID 0000.0001) %MON dynstat_eta_min              =  -1.9100633001911E+00
(PID.TID 0000.0001) %MON dynstat_eta_mean             =  -5.8674309901707E-03
(PID.TID 0000.0001) %MON dynstat_eta_sd               =   5.9630299914734E-01
(PID.TID 0000.0001) %MON dynstat_eta_del2             =   2.6428450238244E-03
(PID.TID 0000.0001) %MON dynstat_uvel_max             =   1.4017334806274E-01
(PID.TID 0000.0001) %MON dynstat_uvel_min             =  -1.4681050794556E-01
(PID.TID 0000.0001) %MON dynstat_uvel_mean            =   2.1878592064179E-03
(PID.TID 0000.0001) %MON dynstat_uvel_sd              =   1.7418733241033E-02
(PID.TID 0000.0001) %MON dynstat_uvel_del2            =   1.5497245318455E-04
(PID.TID 0000.0001) %MON dynstat_vvel_max             =   1.3503883991586E-01
(PID.TID 0000.0001) %MON dynstat_vvel_min             =  -1.0332795787299E-01
(PID.TID 0000.0001) %MON dynstat_vvel_mean            =   7.1039747549283E-05
(PID.TID 0000.0001) %MON dynstat_vvel_sd              =   9.3318112978916E-03
(PID.TID 0000.0001) %MON dynstat_vvel_del2            =   8.7477864300321E-05
(PID.TID 0000.0001) %MON dynstat_wvel_max             =   8.9381837116167E-05
(PID.TID 0000.0001) %MON dynstat_wvel_min             =  -9.1982971645612E-05
(PID.TID 0000.0001) %MON dynstat_wvel_mean            =   8.8112189256098E-23
(PID.TID 0000.0001) %MON dynstat_wvel_sd              =   1.2136611328304E-05
(PID.TID 0000.0001) %MON dynstat_wvel_del2            =   1.1965583569812E-07
(PID.TID 0000.0001) %MON dynstat_theta_max            =   3.1321938112763E+01
(PID.TID 0000.0001) %MON dynstat_theta_min            =  -1.9237755371907E+00
(PID.TID 0000.0001) %MON dynstat_theta_mean           =   3.6541624689975E+00
(PID.TID 0000.0001) %MON dynstat_theta_sd             =   4.4292156395251E+00
(PID.TID 0000.0001) %MON dynstat_theta_del2           =   4.8487625754398E-03
(PID.TID 0000.0001) %MON dynstat_salt_max             =   3.7498183712162E+01
(PID.TID 0000.0001) %MON dynstat_salt_min             =   3.0008860567966E+01
(PID.TID 0000.0001) %MON dynstat_salt_mean            =   3.4747974609207E+01
(PID.TID 0000.0001) %MON dynstat_salt_sd              =   2.9664073100753E-01
(PID.TID 0000.0001) %MON dynstat_salt_del2            =   1.0022040138372E-03
(PID.TID 0000.0001) %MON dynstat_sst_max              =   3.1321938112763E+01
(PID.TID 0000.0001) %MON dynstat_sst_min              =  -1.9237755371907E+00
(PID.TID 0000.0001) %MON dynstat_sst_mean             =   1.9051715341992E+01
(PID.TID 0000.0001) %MON dynstat_sst_sd               =   9.3225062845467E+00
(PID.TID 0000.0001) %MON dynstat_sst_del2             =   2.9462364890281E-02
(PID.TID 0000.0001) %MON dynstat_sss_max              =   3.7498183712162E+01
(PID.TID 0000.0001) %MON dynstat_sss_min              =   3.0008860567966E+01
(PID.TID 0000.0001) %MON dynstat_sss_mean             =   3.4866314112404E+01
(PID.TID 0000.0001) %MON dynstat_sss_sd               =   9.9474883997703E-01
(PID.TID 0000.0001) %MON dynstat_sss_del2             =   8.3834296641026E-03
(PID.TID 0000.0001) %MON forcing_qnet_max             =   1.6628729044596E+02
(PID.TID 0000.0001) %MON forcing_qnet_min             =  -1.5401167551676E+02
(PID.TID 0000.0001) %MON forcing_qnet_mean            =   1.8667718761569E+00
(PID.TID 0000.0001) %MON forcing_qnet_sd              =   4.2543345917318E+01
(PID.TID 0000.0001) %MON forcing_qnet_del2            =   7.9400470474141E-01
(PID.TID 0000.0001) %MON forcing_qsw_max              =   0.0000000000000E+00
(PID.TID 0000.0001) %MON forcing_qsw_min              =   0.0000000000000E+00
(PID.TID 0000.0001) %MON forcing_qsw_mean             =   0.0000000000000E+00
(PID.TID 0000.0001) %MON forcing_qsw_sd               =   0.0000000000000E+00
(PID.TID 0000.0001) %MON forcing_qsw_del2             =   0.0000000000000E+00
(PID.TID 0000.0001) %MON forcing_empmr_max            =   6.6896888502773E-05
(PID.TID 0000.0001) %MON forcing_empmr_min            =  -8.3605877421178E-05
(PID.TID 0000.0001) %MON forcing_empmr_mean           =   3.4467662644683E-08
(PID.TID 0000.0001) %MON forcing_empmr_sd             =   2.5512895431700E-05
(PID.TID 0000.0001) %MON forcing_empmr_del2           =   3.6941383160522E-07
(PID.TID 0000.0001) %MON forcing_fu_max               =   3.4395322799683E-01
(PID.TID 0000.0001) %MON forcing_fu_min               =  -4.1001707613468E-01
(PID.TID 0000.0001) %MON forcing_fu_mean              =   1.7531311070933E-02
(PID.TID 0000.0001) %MON forcing_fu_sd                =   1.0160162235513E-01
(PID.TID 0000.0001) %MON forcing_fu_del2              =   8.0229753052437E-04
(PID.TID 0000.0001) %MON forcing_fv_max               =   1.8109231789907E-01
(PID.TID 0000.0001) %MON forcing_fv_min               =  -1.4540471682946E-01
(PID.TID 0000.0001) %MON forcing_fv_mean              =  -6.6906119754649E-03
(PID.TID 0000.0001) %MON forcing_fv_sd                =   3.9065099338649E-02
(PID.TID 0000.0001) %MON forcing_fv_del2              =   4.2781951918176E-04
(PID.TID 0000.0001) %MON trAdv_CFL_u_max              =   4.5589643717537E-02
(PID.TID 0000.0001) %MON trAdv_CFL_v_max              =   2.6226845445036E-02
(PID.TID 0000.0001) %MON trAdv_CFL_w_max              =   4.3858605317230E-02
(PID.TID 0000.0001) %MON advcfl_uvel_max              =   4.4959047567273E-02
(PID.TID 0000.0001) %MON advcfl_vvel_max              =   2.6235880833040E-02
(PID.TID 0000.0001) %MON advcfl_wvel_max              =   3.6964319768283E-02
(PID.TID 0000.0001) %MON advcfl_W_hf_max              =   4.2869107052361E-02
(PID.TID 0000.0001) %MON pe_b_mean                    =   4.5504802476664E-04
(PID.TID 0000.0001) %MON ke_max                       =   1.1715029966898E-02
(PID.TID 0000.0001) %MON ke_mean                      =   1.7911697565943E-04
(PID.TID 0000.0001) %MON ke_vol                       =   1.3226782436723E+18
(PID.TID 0000.0001) %MON vort_r_min                   =  -4.0089126796794E-07
(PID.TID 0000.0001) %MON vort_r_max                   =   5.3284155546633E-07
(PID.TID 0000.0001) %MON vort_a_mean                  =  -2.5274807225923E-05
(PID.TID 0000.0001) %MON vort_a_sd                    =   7.3604639024751E-05
(PID.TID 0000.0001) %MON vort_p_mean                  =  -3.1845655583351E-05
(PID.TID 0000.0001) %MON vort_p_sd                    =   1.3162446012662E-04
(PID.TID 0000.0001) %MON surfExpan_theta_mean         =   2.6501253197778E-07
(PID.TID 0000.0001) %MON surfExpan_salt_mean          =  -1.3353341722897E-08
(PID.TID 0000.0001) // =======================================================
(PID.TID 0000.0001) // End MONITOR dynamic field statistics
(PID.TID 0000.0001) // =======================================================
 EXTERNAL_FIELDS_LOAD,        99 : iP,iLd,i0,i1=    3    4    3    4 ; Wght=  0.2000000000  0.8000000000
 EXTERNAL_FIELDS_LOAD: (fu0,1),fu,fv= -2.7199E-02 -3.7252E-02 -3.5241E-02 -2.8288E-02
 EXTERNAL_FIELDS_LOAD: SST,SSS,Q,E-P= -8.5119E-03  3.4571E+01  1.2637E+02  8.0314E-06
DEBUG_STATS_RL:          Uvel (THERMODYNAMICS)  min= -1.46810507945562E-01
DEBUG_STATS_RL:          Uvel (THERMODYNAMICS)  max=  1.40173348062740E-01
DEBUG_STATS_RL:          Uvel (THERMODYNAMICS) mean=  5.65534530732510E-03
DEBUG_STATS_RL:          Uvel (THERMODYNAMICS) S.D.=  2.43401044199236E-02
DEBUG_STATS_RL:          Vvel (THERMODYNAMICS)  min= -1.03327957872988E-01
DEBUG_STATS_RL:          Vvel (THERMODYNAMICS)  max=  1.35038839915861E-01
DEBUG_STATS_RL:          Vvel (THERMODYNAMICS) mean=  8.12620170538421E-04
DEBUG_STATS_RL:          Vvel (THERMODYNAMICS) S.D.=  1.39648231143139E-02
DEBUG_STATS_RL:          Wvel (THERMODYNAMICS)  min= -9.19829716456119E-05
DEBUG_STATS_RL:          Wvel (THERMODYNAMICS)  max=  8.93818371161675E-05
DEBUG_STATS_RL:          Wvel (THERMODYNAMICS) mean= -4.50612496395102E-08
DEBUG_STATS_RL:          Wvel (THERMODYNAMICS) S.D.=  1.03235049781354E-05
DEBUG_STATS_RL:         Theta (THERMODYNAMICS)  min= -1.92273932580494E+00
DEBUG_STATS_RL:         Theta (THERMODYNAMICS)  max=  3.13304799790550E+01
DEBUG_STATS_RL:         Theta (THERMODYNAMICS) mean=  3.24872775624757E+00
DEBUG_STATS_RL:         Theta (THERMODYNAMICS) S.D.=  5.88893759857009E+00
DEBUG_STATS_RL:          Salt (THERMODYNAMICS)  min=  3.00000000000000E-02
DEBUG_STATS_RL:          Salt (THERMODYNAMICS)  max=  3.74983370797980E+01
DEBUG_STATS_RL:          Salt (THERMODYNAMICS) mean=  1.88746981182055E+01
DEBUG_STATS_RL:          Salt (THERMODYNAMICS) S.D.=  1.73002672701725E+01
DEBUG_STATS_RL:         GtNm1 (THERMODYNAMICS)  min= -1.58946638538990E-06
DEBUG_STATS_RL:         GtNm1 (THERMODYNAMICS)  max=  1.62739752182510E-06
DEBUG_STATS_RL:         GtNm1 (THERMODYNAMICS) mean= -2.94717728496638E-09
DEBUG_STATS_RL:         GtNm1 (THERMODYNAMICS) S.D.=  1.38806759774727E-07
DEBUG_STATS_RL:         GsNm1 (THERMODYNAMICS)  min= -4.16767665904610E-07
DEBUG_STATS_RL:         GsNm1 (THERMODYNAMICS)  max=  2.85324759082228E-07
DEBUG_STATS_RL:         GsNm1 (THERMODYNAMICS) mean= -1.49159938787843E-10
DEBUG_STATS_RL:         GsNm1 (THERMODYNAMICS) S.D.=  1.34016109872770E-08
DEBUG_STATS_RL:                EtaN (DYNAMICS)  min= -1.91006330019107E+00
DEBUG_STATS_RL:                EtaN (DYNAMICS)  max=  8.55771064906045E-01
DEBUG_STATS_RL:                EtaN (DYNAMICS) mean= -1.73086822156598E-01
DEBUG_STATS_RL:                EtaN (DYNAMICS) S.D.=  7.03396213957198E-01
DEBUG_STATS_RL:                Uvel (DYNAMICS)  min= -1.46810507945562E-01
DEBUG_STATS_RL:                Uvel (DYNAMICS)  max=  1.40173348062740E-01
DEBUG_STATS_RL:                Uvel (DYNAMICS) mean=  5.65534530732510E-03
DEBUG_STATS_RL:                Uvel (DYNAMICS) S.D.=  2.43401044199236E-02
DEBUG_STATS_RL:                Vvel (DYNAMICS)  min= -1.03327957872988E-01
DEBUG_STATS_RL:                Vvel (DYNAMICS)  max=  1.35038839915861E-01
DEBUG_STATS_RL:                Vvel (DYNAMICS) mean=  8.12620170538421E-04
DEBUG_STATS_RL:                Vvel (DYNAMICS) S.D.=  1.39648231143139E-02
DEBUG_STATS_RL:                Wvel (DYNAMICS)  min= -9.19829716456119E-05
DEBUG_STATS_RL:                Wvel (DYNAMICS)  max=  8.93818371161675E-05
DEBUG_STATS_RL:                Wvel (DYNAMICS) mean= -4.50612496395102E-08
DEBUG_STATS_RL:                Wvel (DYNAMICS) S.D.=  1.03235049781354E-05
DEBUG_STATS_RL:               Theta (DYNAMICS)  min= -1.92273932580494E+00
DEBUG_STATS_RL:               Theta (DYNAMICS)  max=  3.13304799790550E+01
DEBUG_STATS_RL:               Theta (DYNAMICS) mean=  3.24872775624757E+00
DEBUG_STATS_RL:               Theta (DYNAMICS) S.D.=  5.88893759857009E+00
DEBUG_STATS_RL:                Salt (DYNAMICS)  min=  3.00000000000000E-02
DEBUG_STATS_RL:                Salt (DYNAMICS)  max=  3.74983370797980E+01
DEBUG_STATS_RL:                Salt (DYNAMICS) mean=  1.88746981182055E+01
DEBUG_STATS_RL:                Salt (DYNAMICS) S.D.=  1.73002672701725E+01
DEBUG_STATS_RL:                  Gu (DYNAMICS)  min= -1.45936105200546E-01
DEBUG_STATS_RL:                  Gu (DYNAMICS)  max=  1.39941118517131E-01
DEBUG_STATS_RL:                  Gu (DYNAMICS) mean=  5.62617583078486E-03
DEBUG_STATS_RL:                  Gu (DYNAMICS) S.D.=  2.46631089174330E-02
DEBUG_STATS_RL:                  Gv (DYNAMICS)  min= -1.08587037797570E-01
DEBUG_STATS_RL:                  Gv (DYNAMICS)  max=  1.34259327939485E-01
DEBUG_STATS_RL:                  Gv (DYNAMICS) mean=  3.52972010261545E-03
DEBUG_STATS_RL:                  Gv (DYNAMICS) S.D.=  1.54965574155698E-02
DEBUG_STATS_RL:               GuNm1 (DYNAMICS)  min= -9.63852609456314E-06
DEBUG_STATS_RL:               GuNm1 (DYNAMICS)  max=  1.03493751216884E-05
DEBUG_STATS_RL:               GuNm1 (DYNAMICS) mean=  2.10753843143155E-08
DEBUG_STATS_RL:               GuNm1 (DYNAMICS) S.D.=  1.24445806665903E-06
DEBUG_STATS_RL:               GvNm1 (DYNAMICS)  min= -9.40514546084756E-06
DEBUG_STATS_RL:               GvNm1 (DYNAMICS)  max=  1.48361748264890E-05
DEBUG_STATS_RL:               GvNm1 (DYNAMICS) mean=  7.50046303691155E-07
DEBUG_STATS_RL:               GvNm1 (DYNAMICS) S.D.=  2.61916537798797E-06
DEBUG_STATS_RL:               GtNm1 (DYNAMICS)  min= -1.58946638538990E-06
DEBUG_STATS_RL:               GtNm1 (DYNAMICS)  max=  1.62739752182510E-06
DEBUG_STATS_RL:               GtNm1 (DYNAMICS) mean= -2.94717728496638E-09
DEBUG_STATS_RL:               GtNm1 (DYNAMICS) S.D.=  1.38806759774727E-07
DEBUG_STATS_RL:               GsNm1 (DYNAMICS)  min= -4.16767665904610E-07
DEBUG_STATS_RL:               GsNm1 (DYNAMICS)  max=  2.85324759082228E-07
DEBUG_STATS_RL:               GsNm1 (DYNAMICS) mean= -1.49159938787843E-10
DEBUG_STATS_RL:               GsNm1 (DYNAMICS) S.D.=  1.34016109872770E-08
DEBUG_STATS_RL:    cg2d_b (SOLVE_FOR_PRESSURE)  min= -2.62992663671363E+04
DEBUG_STATS_RL:    cg2d_b (SOLVE_FOR_PRESSURE)  max=  3.46548209706886E+04
DEBUG_STATS_RL:    cg2d_b (SOLVE_FOR_PRESSURE) mean=  5.62446765850434E+00
DEBUG_STATS_RL:    cg2d_b (SOLVE_FOR_PRESSURE) S.D.=  4.15580746404677E+03
 cg2d: Sum(rhs),rhsMax =   3.75723846343095E-01  2.27622142706353E+00
(PID.TID 0000.0001)  cg2d: iter=     1 ; resid.=  1.12354198801235E-01
(PID.TID 0000.0001)  cg2d: iter=     2 ; resid.=  8.09311727343950E-02
(PID.TID 0000.0001)  cg2d: iter=     3 ; resid.=  7.09555734148274E-02
(PID.TID 0000.0001)  cg2d: iter=     4 ; resid.=  5.87973963056099E-02
(PID.TID 0000.0001)  cg2d: iter=     5 ; resid.=  4.33131659188661E-02
(PID.TID 0000.0001)  cg2d: iter=     6 ; resid.=  3.67338568473193E-02
(PID.TID 0000.0001)  cg2d: iter=     7 ; resid.=  3.22129367866960E-02
(PID.TID 0000.0001)  cg2d: iter=     8 ; resid.=  2.84130270705558E-02
(PID.TID 0000.0001)  cg2d: iter=     9 ; resid.=  2.41513497822813E-02
(PID.TID 0000.0001)  cg2d: iter=    10 ; resid.=  2.01976705879113E-02
(PID.TID 0000.0001)  cg2d: iter=    11 ; resid.=  1.79420925731868E-02
(PID.TID 0000.0001)  cg2d: iter=    12 ; resid.=  1.55240321787835E-02
(PID.TID 0000.0001)  cg2d: iter=    13 ; resid.=  1.24953220021722E-02
(PID.TID 0000.0001)  cg2d: iter=    14 ; resid.=  1.05019499509832E-02
(PID.TID 0000.0001)  cg2d: iter=    15 ; resid.=  8.66137823499277E-03
(PID.TID 0000.0001)  cg2d: iter=    16 ; resid.=  6.92417076956234E-03
(PID.TID 0000.0001)  cg2d: iter=    17 ; resid.=  5.80436058516786E-03
(PID.TID 0000.0001)  cg2d: iter=    18 ; resid.=  4.85786881512030E-03
(PID.TID 0000.0001)  cg2d: iter=    19 ; resid.=  4.05178481269892E-03
(PID.TID 0000.0001)  cg2d: iter=    20 ; resid.=  3.41859027430383E-03
(PID.TID 0000.0001)  cg2d: iter=    21 ; resid.=  2.99340497812357E-03
(PID.TID 0000.0001)  cg2d: iter=    22 ; resid.=  2.71008425012260E-03
(PID.TID 0000.0001)  cg2d: iter=    23 ; resid.=  2.42768067854185E-03
(PID.TID 0000.0001)  cg2d: iter=    24 ; resid.=  1.99536355791669E-03
(PID.TID 0000.0001)  cg2d: iter=    25 ; resid.=  1.58577476484879E-03
(PID.TID 0000.0001)  cg2d: iter=    26 ; resid.=  1.38935851651631E-03
(PID.TID 0000.0001)  cg2d: iter=    27 ; resid.=  1.26269226074418E-03
(PID.TID 0000.0001)  cg2d: iter=    28 ; resid.=  1.10807246920093E-03
(PID.TID 0000.0001)  cg2d: iter=    29 ; resid.=  8.96604062993846E-04
(PID.TID 0000.0001)  cg2d: iter=    30 ; resid.=  7.30511331166897E-04
(PID.TID 0000.0001)  cg2d: iter=    31 ; resid.=  5.88127573071843E-04
(PID.TID 0000.0001)  cg2d: iter=    32 ; resid.=  4.47780710093583E-04
(PID.TID 0000.0001)  cg2d: iter=    33 ; resid.=  3.41868589531364E-04
(PID.TID 0000.0001)  cg2d: iter=    34 ; resid.=  2.72137580679803E-04
(PID.TID 0000.0001)  cg2d: iter=    35 ; resid.=  2.21460831526122E-04
(PID.TID 0000.0001)  cg2d: iter=    36 ; resid.=  1.92969704927978E-04
(PID.TID 0000.0001)  cg2d: iter=    37 ; resid.=  1.54348751862657E-04
(PID.TID 0000.0001)  cg2d: iter=    38 ; resid.=  1.25827910105729E-04
(PID.TID 0000.0001)  cg2d: iter=    39 ; resid.=  1.04574069820602E-04
(PID.TID 0000.0001)  cg2d: iter=    40 ; resid.=  8.69221368412874E-05
(PID.TID 0000.0001)  cg2d: iter=    41 ; resid.=  7.06258944936167E-05
(PID.TID 0000.0001)  cg2d: iter=    42 ; resid.=  6.22766895603308E-05
(PID.TID 0000.0001)  cg2d: iter=    43 ; resid.=  5.58849403314090E-05
(PID.TID 0000.0001)  cg2d: iter=    44 ; resid.=  4.71397277321486E-05
(PID.TID 0000.0001)  cg2d: iter=    45 ; resid.=  3.70807941926999E-05
(PID.TID 0000.0001)  cg2d: iter=    46 ; resid.=  2.90788435915197E-05
(PID.TID 0000.0001)  cg2d: iter=    47 ; resid.=  2.47445515255165E-05
(PID.TID 0000.0001)  cg2d: iter=    48 ; resid.=  2.01695629156086E-05
(PID.TID 0000.0001)  cg2d: iter=    49 ; resid.=  1.64223616198551E-05
(PID.TID 0000.0001)  cg2d: iter=    50 ; resid.=  1.24961317841175E-05
(PID.TID 0000.0001)  cg2d: iter=    51 ; resid.=  1.01219995883623E-05
(PID.TID 0000.0001)  cg2d: iter=    52 ; resid.=  8.47424279462243E-06
(PID.TID 0000.0001)  cg2d: iter=    53 ; resid.=  7.24433358949852E-06
(PID.TID 0000.0001)  cg2d: iter=    54 ; resid.=  6.40433286697818E-06
(PID.TID 0000.0001)  cg2d: iter=    55 ; resid.=  6.23495068512741E-06
(PID.TID 0000.0001)  cg2d: iter=    56 ; resid.=  5.31997185862883E-06
(PID.TID 0000.0001)  cg2d: iter=    57 ; resid.=  4.76938243494440E-06
(PID.TID 0000.0001)  cg2d: iter=    58 ; resid.=  3.66550685319063E-06
(PID.TID 0000.0001)  cg2d: iter=    59 ; resid.=  2.76377430610249E-06
(PID.TID 0000.0001)  cg2d: iter=    60 ; resid.=  2.19293878482510E-06
(PID.TID 0000.0001)  cg2d: iter=    61 ; resid.=  1.58522551757593E-06
(PID.TID 0000.0001)  cg2d: iter=    62 ; resid.=  1.14094486095665E-06
(PID.TID 0000.0001)  cg2d: iter=    63 ; resid.=  8.71093243746045E-07
(PID.TID 0000.0001)  cg2d: iter=    64 ; resid.=  7.42953531920391E-07
(PID.TID 0000.0001)  cg2d: iter=    65 ; resid.=  5.92776750439529E-07
(PID.TID 0000.0001)  cg2d: iter=    66 ; resid.=  4.64277681261978E-07
(PID.TID 0000.0001)  cg2d: iter=    67 ; resid.=  3.93268388513256E-07
(PID.TID 0000.0001)  cg2d: iter=    68 ; resid.=  3.10441608348342E-07
(PID.TID 0000.0001)  cg2d: iter=    69 ; resid.=  2.51065943295985E-07
(PID.TID 0000.0001)  cg2d: iter=    70 ; resid.=  1.90650890506862E-07
(PID.TID 0000.0001)  cg2d: iter=    71 ; resid.=  1.59098309170927E-07
(PID.TID 0000.0001)  cg2d: iter=    72 ; resid.=  1.41375641589764E-07
(PID.TID 0000.0001)  cg2d: iter=    73 ; resid.=  1.36597222173328E-07
(PID.TID 0000.0001)  cg2d: iter=    74 ; resid.=  1.09931596113984E-07
(PID.TID 0000.0001)  cg2d: iter=    75 ; resid.=  8.77081455676826E-08
(PID.TID 0000.0001)  cg2d: iter=    76 ; resid.=  7.32751009915447E-08
(PID.TID 0000.0001)  cg2d: iter=    77 ; resid.=  6.50455349408198E-08
(PID.TID 0000.0001)  cg2d: iter=    78 ; resid.=  5.48065288506881E-08
(PID.TID 0000.0001)  cg2d: iter=    79 ; resid.=  4.63331703931009E-08
(PID.TID 0000.0001)  cg2d: iter=    80 ; resid.=  3.88207437754251E-08
(PID.TID 0000.0001)  cg2d: iter=    81 ; resid.=  3.12346926435562E-08
(PID.TID 0000.0001)  cg2d: iter=    82 ; resid.=  2.54463991491413E-08
(PID.TID 0000.0001)  cg2d: iter=    83 ; resid.=  1.93405410503970E-08
(PID.TID 0000.0001)  cg2d: iter=    84 ; resid.=  1.52533501028576E-08
(PID.TID 0000.0001)  cg2d: iter=    85 ; resid.=  1.07167062892578E-08
(PID.TID 0000.0001)  cg2d: iter=    86 ; resid.=  8.01138013148150E-09
(PID.TID 0000.0001)  cg2d: iter=    87 ; resid.=  6.24286984486738E-09
(PID.TID 0000.0001)  cg2d: iter=    88 ; resid.=  4.86663718801344E-09
(PID.TID 0000.0001)  cg2d: iter=    89 ; resid.=  4.06572426784878E-09
(PID.TID 0000.0001)  cg2d: iter=    90 ; resid.=  3.51337563395681E-09
(PID.TID 0000.0001)  cg2d: iter=    91 ; resid.=  2.95171502019800E-09
(PID.TID 0000.0001)  cg2d: iter=    92 ; resid.=  2.51700053711119E-09
(PID.TID 0000.0001)  cg2d: iter=    93 ; resid.=  2.12831826146787E-09
(PID.TID 0000.0001)  cg2d: iter=    94 ; resid.=  1.76628496856086E-09
(PID.TID 0000.0001)  cg2d: iter=    95 ; resid.=  1.43742244417191E-09
(PID.TID 0000.0001)  cg2d: iter=    96 ; resid.=  1.16417448092321E-09
(PID.TID 0000.0001)  cg2d: iter=    97 ; resid.=  9.84660026307531E-10
(PID.TID 0000.0001)  cg2d: iter=    98 ; resid.=  8.05380998228466E-10
(PID.TID 0000.0001)  cg2d: iter=    99 ; resid.=  6.08350177574807E-10
(PID.TID 0000.0001)  cg2d: iter=   100 ; resid.=  4.93197154145499E-10
(PID.TID 0000.0001)  cg2d: iter=   101 ; resid.=  3.67170724074325E-10
(PID.TID 0000.0001)  cg2d: iter=   102 ; resid.=  2.88297239213344E-10
(PID.TID 0000.0001)  cg2d: iter=   103 ; resid.=  2.33123056697398E-10
(PID.TID 0000.0001)  cg2d: iter=   104 ; resid.=  1.71944975469629E-10
(PID.TID 0000.0001)  cg2d: iter=   105 ; resid.=  1.36321625371781E-10
(PID.TID 0000.0001)  cg2d: iter=   106 ; resid.=  1.03908706045315E-10
(PID.TID 0000.0001)  cg2d: iter=   107 ; resid.=  8.26742160336550E-11
(PID.TID 0000.0001)  cg2d: iter=   108 ; resid.=  6.22194492704065E-11
(PID.TID 0000.0001)  cg2d: iter=   109 ; resid.=  4.37979930340958E-11
(PID.TID 0000.0001)  cg2d: iter=   110 ; resid.=  3.18684955201252E-11
(PID.TID 0000.0001)  cg2d: iter=   111 ; resid.=  2.57861116446680E-11
(PID.TID 0000.0001)  cg2d: iter=   112 ; resid.=  2.17464767754606E-11
(PID.TID 0000.0001)  cg2d: iter=   113 ; resid.=  1.57477601377785E-11
(PID.TID 0000.0001)  cg2d: iter=   114 ; resid.=  1.18201809308220E-11
(PID.TID 0000.0001)  cg2d: iter=   115 ; resid.=  8.88026545503724E-12
(PID.TID 0000.0001)  cg2d: iter=   116 ; resid.=  6.66775687570459E-12
(PID.TID 0000.0001)  cg2d: iter=   117 ; resid.=  4.81350541458511E-12
(PID.TID 0000.0001)  cg2d: iter=   118 ; resid.=  3.64112541753763E-12
(PID.TID 0000.0001)  cg2d: iter=   119 ; resid.=  2.72963123999054E-12
(PID.TID 0000.0001)  cg2d: iter=   120 ; resid.=  1.98387160677639E-12
(PID.TID 0000.0001)  cg2d: iter=   121 ; resid.=  1.46039506893830E-12
(PID.TID 0000.0001)  cg2d: iter=   122 ; resid.=  1.16932014407458E-12
(PID.TID 0000.0001)  cg2d: iter=   123 ; resid.=  9.68414521303964E-13
(PID.TID 0000.0001)  cg2d: iter=   124 ; resid.=  8.22096543999802E-13
(PID.TID 0000.0001)  cg2d: iter=   125 ; resid.=  7.20069125649894E-13
(PID.TID 0000.0001)  cg2d: iter=   126 ; resid.=  6.09193163710822E-13
(PID.TID 0000.0001)  cg2d: iter=   127 ; resid.=  4.18369045438191E-13
(PID.TID 0000.0001)  cg2d: iter=   128 ; resid.=  2.64058609888521E-13
(PID.TID 0000.0001)  cg2d: iter=   129 ; resid.=  1.69048196525401E-13
(PID.TID 0000.0001)  cg2d: iter=   130 ; resid.=  1.15679641404339E-13
(PID.TID 0000.0001)  cg2d: iter=   131 ; resid.=  8.39298764280940E-14
DEBUG_STATS_RL:    cg2d_x (SOLVE_FOR_PRESSURE)  min= -1.89152770393947E+01
DEBUG_STATS_RL:    cg2d_x (SOLVE_FOR_PRESSURE)  max=  8.13567754862793E+00
DEBUG_STATS_RL:    cg2d_x (SOLVE_FOR_PRESSURE) mean= -1.70508821838623E+00
DEBUG_STATS_RL:    cg2d_x (SOLVE_FOR_PRESSURE) S.D.=  6.94414823563133E+00
(PID.TID 0000.0001)      cg2d_init_res =   2.28196894060322E-01
(PID.TID 0000.0001)      cg2d_iters(min,last) =      -1     131
(PID.TID 0000.0001)      cg2d_last_res =   8.39298764280940E-14
(PID.TID 0000.0001) // =======================================================
(PID.TID 0000.0001) // Begin MONITOR dynamic field statistics
(PID.TID 0000.0001) // =======================================================
(PID.TID 0000.0001) %MON time_tsnumber                =                   100
(PID.TID 0000.0001) %MON time_secondsf                =   8.6400000000000E+06
(PID.TID 0000.0001) %MON dynstat_eta_max              =   8.2932492850438E-01
(PID.TID 0000.0001) %MON dynstat_eta_min              =  -1.9281627970839E+00
(PID.TID 0000.0001) %MON dynstat_eta_mean             =  -5.8684345906837E-03
(PID.TID 0000.0001) %MON dynstat_eta_sd               =   5.9940922928233E-01
(PID.TID 0000.0001) %MON dynstat_eta_del2             =   2.6330402538627E-03
(PID.TID 0000.0001) %MON dynstat_uvel_max             =   1.4194417707540E-01
(PID.TID 0000.0001) %MON dynstat_uvel_min             =  -1.4606381965992E-01
(PID.TID 0000.0001) %MON dynstat_uvel_mean            =   2.2951194584279E-03
(PID.TID 0000.0001) %MON dynstat_uvel_sd              =   1.7350784342960E-02
(PID.TID 0000.0001) %MON dynstat_uvel_del2            =   1.5514585192888E-04
(PID.TID 0000.0001) %MON dynstat_vvel_max             =   1.3471879190574E-01
(PID.TID 0000.0001) %MON dynstat_vvel_min             =  -1.0124353017743E-01
(PID.TID 0000.0001) %MON dynstat_vvel_mean            =   5.4912200635901E-05
(PID.TID 0000.0001) %MON dynstat_vvel_sd              =   9.2488595897789E-03
(PID.TID 0000.0001) %MON dynstat_vvel_del2            =   8.6896998018246E-05
(PID.TID 0000.0001) %MON dynstat_wvel_max             =   7.7083308505404E-05
(PID.TID 0000.0001) %MON dynstat_wvel_min             =  -8.4987858951330E-05
(PID.TID 0000.0001) %MON dynstat_wvel_mean            =   8.5440037740196E-23
(PID.TID 0000.0001) %MON dynstat_wvel_sd              =   1.2029520243767E-05
(PID.TID 0000.0001) %MON dynstat_wvel_del2            =   1.1857323336112E-07
(PID.TID 0000.0001) %MON dynstat_theta_max            =   3.1330479979055E+01
(PID.TID 0000.0001) %MON dynstat_theta_min            =  -1.9227393258049E+00
(PID.TID 0000.0001) %MON dynstat_theta_mean           =   3.6541413670156E+00
(PID.TID 0000.0001) %MON dynstat_theta_sd             =   4.4291699652259E+00
(PID.TID 0000.0001) %MON dynstat_theta_del2           =   4.8476249248976E-03
(PID.TID 0000.0001) %MON dynstat_salt_max             =   3.7498337079798E+01
(PID.TID 0000.0001) %MON dynstat_salt_min             =   3.0012535986291E+01
(PID.TID 0000.0001) %MON dynstat_salt_mean            =   3.4747975605336E+01
(PID.TID 0000.0001) %MON dynstat_salt_sd              =   2.9665052199120E-01
(PID.TID 0000.0001) %MON dynstat_salt_del2            =   1.0027000446252E-03
(PID.TID 0000.0001) %MON dynstat_sst_max              =   3.1330479979055E+01
(PID.TID 0000.0001) %MON dynstat_sst_min              =  -1.9227393258049E+00
(PID.TID 0000.0001) %MON dynstat_sst_mean             =   1.9047206109023E+01
(PID.TID 0000.0001) %MON dynstat_sst_sd               =   9.3296035227546E+00
(PID.TID 0000.0001) %MON dynstat_sst_del2             =   2.9484508948144E-02
(PID.TID 0000.0001) %MON dynstat_sss_max              =   3.7498337079798E+01
(PID.TID 0000.0001) %MON dynstat_sss_min              =   3.0012535986291E+01
(PID.TID 0000.0001) %MON dynstat_sss_mean             =   3.4866077136731E+01
(PID.TID 0000.0001) %MON dynstat_sss_sd               =   9.9514820047810E-01
(PID.TID 0000.0001) %MON dynstat_sss_del2             =   8.3940958619756E-03
(PID.TID 0000.0001) %MON forcing_qnet_max             =   1.6158205566406E+02
(PID.TID 0000.0001) %MON forcing_qnet_min             =  -1.5358367919922E+02
(PID.TID 0000.0001) %MON forcing_qnet_mean            =   2.2638083051266E+00
(PID.TID 0000.0001) %MON forcing_qnet_sd              =   4.3251861816584E+01
(PID.TID 0000.0001) %MON forcing_qnet_del2            =   7.9754295620117E-01
(PID.TID 0000.0001) %MON forcing_qsw_max              =   0.0000000000000E+00
(PID.TID 0000.0001) %MON forcing_qsw_min              =   0.0000000000000E+00
(PID.TID 0000.0001) %MON forcing_qsw_mean             =   0.0000000000000E+00
(PID.TID 0000.0001) %MON forcing_qsw_sd               =   0.0000000000000E+00
(PID.TID 0000.0001) %MON forcing_qsw_del2             =   0.0000000000000E+00
(PID.TID 0000.0001) %MON forcing_empmr_max            =   6.6800717490878E-05
(PID.TID 0000.0001) %MON forcing_empmr_min            =  -8.3620723501099E-05
(PID.TID 0000.0001) %MON forcing_empmr_mean           =   1.2022297817123E-08
(PID.TID 0000.0001) %MON forcing_empmr_sd             =   2.5522928542606E-05
(PID.TID 0000.0001) %MON forcing_empmr_del2           =   3.7041876953226E-07
(PID.TID 0000.0001) %MON forcing_fu_max               =   3.4346117377281E-01
(PID.TID 0000.0001) %MON forcing_fu_min               =  -4.1095014810562E-01
(PID.TID 0000.0001) %MON forcing_fu_mean              =   1.7404118974000E-02
(PID.TID 0000.0001) %MON forcing_fu_sd                =   1.0186347478370E-01
(PID.TID 0000.0001) %MON forcing_fu_del2              =   8.0856311401579E-04
(PID.TID 0000.0001) %MON forcing_fv_max               =   1.8099631667137E-01
(PID.TID 0000.0001) %MON forcing_fv_min               =  -1.4571011960506E-01
(PID.TID 0000.0001) %MON forcing_fv_mean              =  -6.6541353030919E-03
(PID.TID 0000.0001) %MON forcing_fv_sd                =   3.9225413743387E-02
(PID.TID 0000.0001) %MON forcing_fv_del2              =   4.3233394206160E-04
(PID.TID 0000.0001) %MON trAdv_CFL_u_max              =   4.4968179071386E-02
(PID.TID 0000.0001) %MON trAdv_CFL_v_max              =   2.6193243476756E-02
(PID.TID 0000.0001) %MON trAdv_CFL_w_max              =   4.1828046053584E-02
(PID.TID 0000.0001) %MON advcfl_uvel_max              =   4.4627427114188E-02
(PID.TID 0000.0001) %MON advcfl_vvel_max              =   2.6173700637627E-02
(PID.TID 0000.0001) %MON advcfl_wvel_max              =   3.4153260527418E-02
(PID.TID 0000.0001) %MON advcfl_W_hf_max              =   3.9362089713690E-02
(PID.TID 0000.0001) %MON pe_b_mean                    =   4.5980075185399E-04
(PID.TID 0000.0001) %MON ke_max                       =   1.1543206637117E-02
(PID.TID 0000.0001) %MON ke_mean                      =   1.7756922025433E-04
(PID.TID 0000.0001) %MON ke_vol                       =   1.3226782436723E+18
(PID.TID 0000.0001) %MON vort_r_min                   =  -4.0581973779913E-07
(PID.TID 0000.0001) %MON vort_r_max                   =   4.9877380892775E-07
(PID.TID 0000.0001) %MON vort_a_mean                  =  -2.5274807187996E-05
(PID.TID 0000.0001) %MON vort_a_sd                    =   7.3604659029296E-05
(PID.TID 0000.0001) %MON vort_p_mean                  =  -3.1845655535564E-05
(PID.TID 0000.0001) %MON vort_p_sd                    =   1.3162452729558E-04
(PID.TID 0000.0001) %MON surfExpan_theta_mean         =   3.8244353783716E-07
(PID.TID 0000.0001) %MON surfExpan_salt_mean          =  -4.1173097391044E-08
(PID.TID 0000.0001) // =======================================================
(PID.TID 0000.0001) // End MONITOR dynamic field statistics
(PID.TID 0000.0001) // =======================================================
(PID.TID 0000.0001) // =======================================================
(PID.TID 0000.0001) // Field Current uVel   at iteration        100
(PID.TID 0000.0001) // CMIN =         -1.460638196599190E-01
(PID.TID 0000.0001) // CMAX =          1.419441770753967E-01
(PID.TID 0000.0001) // CINT =          1.066696284204873E-02
(PID.TID 0000.0001) // SYMBOLS (CMIN->CMAX): -abcdefghijklmnopqrstuvwxyz+
(PID.TID 0000.0001) //                  0.0: .
(PID.TID 0000.0001) // RANGE I (Lo:Hi:Step):(     1:    90:     1)
(PID.TID 0000.0001) // RANGE J (Lo:Hi:Step):(    40:     1:    -1)
(PID.TID 0000.0001) // RANGE K (Lo:Hi:Step):(   1:   1:   1)
(PID.TID 0000.0001) // =======================================================
(PID.TID 0000.0001) K =   1
(PID.TID 0000.0001)                I=10      I=20      I=30      I=40      I=50      I=60      I=70      I=80      I=90
(PID.TID 0000.0001) |--J--|123456789|123456789|123456789|123456789|123456789|123456789|123456789|123456789|123456789|
(PID.TID 0000.0001)     40 mnmmn..mmmmmnnnnnnn...................................................................mmmm
(PID.TID 0000.0001)     39 nnnnmmnnnnooon....n......................................................nmn.........lllmm
(PID.TID 0000.0001)     38 ooppooppoonnn............................................................nnnn.......mmmnnn
(PID.TID 0000.0001)     37 ooo...................................................................n....mn....mnnn..noo
(PID.TID 0000.0001)     36 po..........................................mmm.....................mmmmmllllm..llnnnoppop
(PID.TID 0000.0001)     35 nn..................................nmm...nmmmnn....mnnn............nn.....mllmjjnooonnonn
(PID.TID 0000.0001)     34 ....................................nnn..mmnnnoo..nllmnno...................onmmnoppppon..
(PID.TID 0000.0001)     33 .....................................omjlopppppoooonooooonn..................rrqqqrqponll.
(PID.TID 0000.0001)     32 .....................................oppqrrrrqqpppppqqqppnm.................svwrqqqpommln.
(PID.TID 0000.0001)     31 .....................................qrsssrrqqqpqqqqqqqqpon...............rx+ywtrqponmmm..
(PID.TID 0000.0001)     30 ....................................suutttssrqqqrrqqqqqppnm.............pstuuutrqqqpnnnn..
(PID.TID 0000.0001)     29 ..................................qtvuuuutttsrrqqqpppooonmmm............rssrqponoonmllmm..
(PID.TID 0000.0001)     28 ................................prttsrrrrrqqqppoooooonnmmmmmm..........rsqponnmmnnnnmmnn..
(PID.TID 0000.0001)     27 ...............n...............twtrqooopppoooonnnooppoonnnnmmm....nno..rpoooooooooooon....
(PID.TID 0000.0001)     26 ...............no............loqqnlkklmnnnmlllllllmmmllkkkjjklmm..nnonoolklmmnnmmmmlkk....
(PID.TID 0000.0001)     25 ...............ppn....oo....khiklhfffhhhhhhhhhhhhhihhgffggghjkmmn....lkieeghhiiiijihgi....
(PID.TID 0000.0001)     24 .............nqttqm..pqp....nn..oliiiiihiijjjkllllkkjjjklmnnpopooonn..nmijklmnonnoppoo....
(PID.TID 0000.0001)     23 .............rttrpn..opo....po...lkklklmmnnnopqqqqoooprsssstsrqooppoo.....nnrspoprtutq....
(PID.TID 0000.0001)     22 o............lkhgfehjhil....m..ojhhgghijihggijjjkkjklmoqrqqqponllllllm.......nhffimoqpqqpp
(PID.TID 0000.0001)     21 ppp.........ljjgfc-cefiml......ojmmliijjhggfghhhhghhjjlmonmllnooonmmll.........fccglmmpsrq
(PID.TID 0000.0001)     20 nom........nmoqqolgjlmoqp.........ppoonomnonnnnmmkjjlkklmkkjkmopomllll..........jegikkmonn
(PID.TID 0000.0001)     19 jkl........ljlnommjjkjknool....jm......onnpqppooonlkkjkkjiijihjjihhhik............ihiijkjj
(PID.TID 0000.0001)     18 jkl........mhfhhgihihfhjlkiiihgjl....lmnllmmllkklnljihhiiijjiijjjiiiikk...........ljkkkjii
(PID.TID 0000.0001)     17 lll..........jhhhghhhiijlmlkkkn......oonlmmklmljkmnmkjiiijjjjijjkkklllk..........onkkkkjjk
(PID.TID 0000.0001)     16 ghi.......p..okjhijjjkkjlnnnmm........mnmomkkmmlllmnmmkjjiiiiiiiijjjjiil.........omjihhhgg
(PID.TID 0000.0001)     15 gfhk.....mn..nllkklmmlllmnnmm..........lmolkkmmmmlmmmmkkjjjjjijjiiiihgfim.......lkkjiihhhg
(PID.TID 0000.0001)     14 jjjk.....lljjkllmnnnnlmlmnnno..........mmmnnlnmnnnnoonnmmmmmlllllllllkjjl......jjkkkkkjjjj
(PID.TID 0000.0001)     13 nmlj.....oonmmmmnopponnnnoono..........opoppopoopqqqqqqqrrrqqqqppppppponm.....npppooooooon
(PID.TID 0000.0001)     12 qpnlntvooqrrqpoooopppppppoonooppon.....opqpmnonoopppppqqrsssssrpppqppoon......prrrrrrrrrrq
(PID.TID 0000.0001)     11 rqpoonmnqtvvvusrqqqqqqqqpooooooooon...nnnnn..nnnmmmnnnnnnoppppppooooonnn.....norsssssssrrr
(PID.TID 0000.0001)     10 srqqqqrssuwxxxwvuvwvtsrrrrqqqqppoonn..noonl..oommmmmmnnnnmnoooopppoooooo...lnnprsttuuutttt
(PID.TID 0000.0001)      9 wvvvvvvvvvvvvvwwuvxyxwvvvvuuutttssrqpoqqpo..oppppppppppqqqqqqqqrrqqppool..morstuuuvwxxxxxw
(PID.TID 0000.0001)      8 wxyyyxwwwvuuuuutsqquwxxxxxxxwwwxxyyyxxwvtstttsssttuuuuuuuvvuuuuuttsrrqpm..rtsststuvwwxyyxw
(PID.TID 0000.0001)      7 tuvvuttuuuutttsssqppsttttuuuuvvwxxyzzzzyyxwvutttuuvwxyyxxxxwvvvvuutttttttvwutssrqrsstttutt
(PID.TID 0000.0001)      6 qqppppqqrrrrqqqqqrrpooppqqqrrsttuuuuuuvwxyywvuuuuvvwxyyyxwvuuuuuuuuuuuuuvwwwxvtrqppopppqqq
(PID.TID 0000.0001)      5 nnmmnnnooooonnnnoooonnnnmmnooppqqqqqqqrstuvuuuuuuvvuuttttsttttttttsttttttsrqqooonnnnnnnonn
(PID.TID 0000.0001)      4 llllllmmmmmmmmmmnnnnmmmlkklmmmmmmnnnooooppqqrssssrqqpoooopqqrqqqqqqqqqqppn...lmmmmmmmmmlll
(PID.TID 0000.0001)      3 mllllllllm.............................nnnnnnoooonnmmllmmmnnnnnnnnnnnnnnn...mklmmmmmmmmmmm
(PID.TID 0000.0001)      2 ...........................................mmmmmmmmmmmmmmmmmnnnn...mmm......nnmmmmmmmnm...
(PID.TID 0000.0001)      1 ..........................................................................................
(PID.TID 0000.0001) // =======================================================
(PID.TID 0000.0001) // END OF FIELD                                          =
(PID.TID 0000.0001) // =======================================================
(PID.TID 0000.0001) 
(PID.TID 0000.0001) // =======================================================
(PID.TID 0000.0001) // Field Current vVel   at iteration        100
(PID.TID 0000.0001) // CMIN =         -1.012435301774303E-01
(PID.TID 0000.0001) // CMAX =          1.347187919057438E-01
(PID.TID 0000.0001) // CINT =          8.739345262339779E-03
(PID.TID 0000.0001) // SYMBOLS (CMIN->CMAX): -abcdefghijklmnopqrstuvwxyz+
(PID.TID 0000.0001) //                  0.0: .
(PID.TID 0000.0001) // RANGE I (Lo:Hi:Step):(     1:    90:     1)
(PID.TID 0000.0001) // RANGE J (Lo:Hi:Step):(    40:     1:    -1)
(PID.TID 0000.0001) // RANGE K (Lo:Hi:Step):(   1:   1:   1)
(PID.TID 0000.0001) // =======================================================
(PID.TID 0000.0001) K =   1
(PID.TID 0000.0001)                I=10      I=20      I=30      I=40      I=50      I=60      I=70      I=80      I=90
(PID.TID 0000.0001) |--J--|123456789|123456789|123456789|123456789|123456789|123456789|123456789|123456789|123456789|
(PID.TID 0000.0001)     40 kloom.ijmnnnml...kk..................................................................kkjjj
(PID.TID 0000.0001)     39 klllkklmnnnmk...........................................................klmm........hjjkkk
(PID.TID 0000.0001)     38 kmm.......................................................................llk......ki.lllk
(PID.TID 0000.0001)     37 mn...................................................................ll...lmj...ilnli.llkk
(PID.TID 0000.0001)     36 ll.........................................mmmm....................kll....kkkj.ghlmllkjllk
(PID.TID 0000.0001)     35 ...................................lkll..lmllllk...jjmnl...................hjjjikmmmmmom..
(PID.TID 0000.0001)     34 ....................................kjk.ilkkkklj.jiijlmmk...................fhiknoppomnn..
(PID.TID 0000.0001)     33 ....................................lgfhkljjjjjiihhhijkkkll.................ebhmopppnmlnm.
(PID.TID 0000.0001)     32 ....................................nihjklkjjihhhggghhiiijk................ukcilmmllkkkl..
(PID.TID 0000.0001)     31 ....................................ojhijjjjiihgggffgghhhhj..............nlkhhiiiiiiiijk..
(PID.TID 0000.0001)     30 ...................................pojiijkjiijjiiiiiijjjigg............ormkjhhhhhhhhiijk..
(PID.TID 0000.0001)     29 .................................nppnlkkmnmllmnnmmlmnnmlkihi...........oqmkjjjjjjiiiijkk..
(PID.TID 0000.0001)     28 ...............................poppnmmmmoonmmnnnoonooommlkjjj.........mnnlkkkjjkkjjjij....
(PID.TID 0000.0001)     27 ..............lk..............tqonnonnnoponmnnnoppoopoonnmlljj...lmmm.nmlkjjjjklmmllkk....
(PID.TID 0000.0001)     26 ..............klm...........jlpronnnopqrrqppqqqrrqppqqqponnmljkk....onlmoljklmnoonmmlj....
(PID.TID 0000.0001)     25 ..............kmnn...nnl...gil.oklnoprttsqqqrrrrrqpooonnnmllllllj....lmnplkkkkllmljjjk....
(PID.TID 0000.0001)     24 ............mpqsqpp.oqpl...kjk..ggmqrstsqpooppppqqpnmmlkklmmmnmljjkl.....kimjjmoonmllk....
(PID.TID 0000.0001)     23 ............wyxxtqp.pqok...on...ggnsuuttsttttuttuvvtsssstttssrpommnmk.......lpvxxxwtpk....
(PID.TID 0000.0001)     22 j...........wyyupllijnpm......kginsvxzzxvttsssrrrsssrrrstsrrrpomlmnmki........twy+zwspmjkj
(PID.TID 0000.0001)     21 jkm........npqpliggffhjje......c.lnqttvsqonmlkkkklllkklllllkjihhhikkji.........orvtrolkkjj
(PID.TID 0000.0001)     20 hkl.......onnligggeghjjhe......-......qqpponmnoomihiiiiihgeedccdeeeggg...........sojgeeeef
(PID.TID 0000.0001)     19 hjl.......ppsrponkjlnonmlno...ijl.....qppqrstuuurnjklmmlkihhgffedcdfhj...........pojgedefg
(PID.TID 0000.0001)     18 kkl.......o.uxrolmkmnkkkllkiiif.....kjkkklorrpnnoomlmmmmmlmmmmlkjhhjmnm..........nqonlkkll
(PID.TID 0000.0001)     17 nmm.......n.oqkiihhgfghhggfffi.......khfegjkjiggiklkkkkkkklmlllkjjklonk.........lkmmmnlkln
(PID.TID 0000.0001)     16 jjk......kn.ljiiigiifghihgfdf.........jeegiiiiiiijkkklkkkkllkklkiijjllkj........lllkklkjjj
(PID.TID 0000.0001)     15 jklj....jjm.jijjiikmkijllkjff.........iffiiillllkkkkklkkkklllmmlkjjkkkllk......gjmmllmmmmk
(PID.TID 0000.0001)     14 lmom....fjmifghhghjlljkmnnmjg.........gfhhhhilllkjjiiiiijjkklmlllkllllmnl.....bfhjjijkkmml
(PID.TID 0000.0001)     13 mnon....fjlighjjjikkjjknonnmk.........hgiihihjkkkjiihiiiiijkllklmmmmmmml.....keijjjijkkmnn
(PID.TID 0000.0001)     12 pooorolihknmllnonnoponopqqppnmlkjk....jkkjf.kkkllkkkkkklllmmmmlnpponnonj.....ljklmnmmnopqq
(PID.TID 0000.0001)     11 qpppomllmoqqomnopppqqqrrrrrqpoonnnm..kjlkhh.kllkmmllmmmnonnonmmoqqpooomi....mmoonnnnnopqrr
(PID.TID 0000.0001)     10 oooponmmostspnmoqpnnopqqqppponmmmmmo.jjlkf..mmkjlmmmmmmmnoonmmmopqpooolg..hnmorqonnnmmoqqp
(PID.TID 0000.0001)      9 mmoppnllnqsrqpnntwplnopqpooonmlkkklonllmlh.pqolllmmmnnnnnnonmmmnppooomha.ilmpsuspnnnmloqqo
(PID.TID 0000.0001)      8 oooonnmmnoqrrponqxvqpppppponmmmlllmoolkklmrtqpooooonoooooooonmnoppoonmgd.qoptvvtqponnnoqrq
(PID.TID 0000.0001)      7 qponmmnooopqqponnqusqooooonmmnnnmmopolkklorssrqqqqqqqpooonnnnnooppponnmmoqqsvvusqqponoppqr
(PID.TID 0000.0001)      6 onmmmmnnnnnnnnmmmnooonnnllllmmmmmmnnnmlmmnoopqqqrrssrpnmmllnooooopponnopqqqrqpppooonmnoooo
(PID.TID 0000.0001)      5 llkllllllkjjjjjkkllllkjiijjjjkjjjjkklllllmmllnpqqqqqpnmlkklmnnnnnoonnnnnmm..pkmmmmmmmmmmmm
(PID.TID 0000.0001)      4 ihiiiigggh............................iijkkkklmnonnmmlllllllmmllllmmlkjkk...lklllllkkkkjji
(PID.TID 0000.0001)      3 ..........................................kkkkkkkkkkjjjjkkkjjjjk..lkkk.....jmmlkkkkkjjj...
(PID.TID 0000.0001)      2 ..........................................................................................
(PID.TID 0000.0001)      1 ..........................................................................................
(PID.TID 0000.0001) // =======================================================
(PID.TID 0000.0001) // END OF FIELD                                          =
(PID.TID 0000.0001) // =======================================================
(PID.TID 0000.0001) 
(PID.TID 0000.0001) // =======================================================
(PID.TID 0000.0001) // Field Current theta  at iteration        100
(PID.TID 0000.0001) // CMIN =         -1.922739325804939E+00
(PID.TID 0000.0001) // CMAX =          3.133047997905496E+01
(PID.TID 0000.0001) // CINT =          1.231600714994811E+00
(PID.TID 0000.0001) // SYMBOLS (CMIN->CMAX): -abcdefghijklmnopqrstuvwxyz+
(PID.TID 0000.0001) //                  0.0: .
(PID.TID 0000.0001) // RANGE I (Lo:Hi:Step):(     1:    90:     1)
(PID.TID 0000.0001) // RANGE J (Lo:Hi:Step):(    40:     1:    -1)
(PID.TID 0000.0001) // RANGE K (Lo:Hi:Step):(   1:   1:   1)
(PID.TID 0000.0001) // =======================================================
(PID.TID 0000.0001) K =   1
(PID.TID 0000.0001)                I=10      I=20      I=30      I=40      I=50      I=60      I=70      I=80      I=90
(PID.TID 0000.0001) |--J--|123456789|123456789|123456789|123456789|123456789|123456789|123456789|123456789|123456789|
(PID.TID 0000.0001)     40 -bbccb--------abcddbbbbbbbbbbbbbbbbbbbbbbbbbbbbbbbbbbbbbbbbbbbbbbbbbbbbbbbbbbbbbbbbbbaa---
(PID.TID 0000.0001)     39 bbccccbbaa----bbbddbbbbbbbbbbbbbbbbbbbbbbbbbbbbbbbbbbbbbbbbbbbbbbbbbbbbb----bbbbbbbbaaaaaa
(PID.TID 0000.0001)     38 deeeeecbcbaa-bbbbbbbbbbbbbbbbbbbbbbbbbbbbbbbbbbbbbbbbbbbbbbbbbbbbbbbbbbb-----bbbbbba--abcc
(PID.TID 0000.0001)     37 ffgbbbbbbbbbbbbbbbbbbbbbbbbbbbbbbbbbbbbbbbbbbbbbbbbbbbbbbbbbbbbbbbbbbbbbbb--abbbbbeeebddde
(PID.TID 0000.0001)     36 ggbbbbbbbbbbbbbbbbbbbbbbbbbbbbbbbbbbbbbbbbbba--bbbbbbbbbbbbbbbbbbbbccbbbaaaaacbcefgghhhggg
(PID.TID 0000.0001)     35 ffbbbbbbbbbbbbbbbbbbbbbbbbbbbbbbbbb----bbabcccb-bbbddeefbbbbbbbbbbbbbbbbbbbcddddeffhhiiihg
(PID.TID 0000.0001)     34 bbbbbbbbbbbbbbbbbbbbbbbbbbbbbbbbbbb----bacccccccbccedefffbbbbbbbbbbbbbbbbbbcabdefgghiiiibb
(PID.TID 0000.0001)     33 bbbbbbbbbbbbbbbbbbbbbbbbbbbbbbbbbbbb--abbccdddddeeeeefffgghbbbbbbbbbbbbbbbbbbabfhijjkjjjjb
(PID.TID 0000.0001)     32 bbbbbbbbbbbbbbbbbbbbbbbbbbbbbbbbbbbbaabbccddddeefffgggghhhibbbbbbbbbbbbbbbbfec-hjklllkkkjb
(PID.TID 0000.0001)     31 bbbbbbbbbbbbbbbbbbbbbbbbbbbbbbbbbbbbeeffgggghhhhhhhhiijjjjjbbbbbbbbbbbbbbhillgjlmmmmmllmbb
(PID.TID 0000.0001)     30 bbbbbbbbbbbbbbbbbbbbbbbbbbbbbbbbbbbkkjjjjkkkkkkkkkkkllmmmllbbbbbbbbbbbbmmmoooooooooonnnnbb
(PID.TID 0000.0001)     29 bbbbbbbbbbbbbbbbbbbbbbbbbbbbbbbbbnnnnnmmmnnnnnnnnnnnnooonnmmbbbbbbbbbbbnpqqppppppppooooobb
(PID.TID 0000.0001)     28 bbbbbbbbbbbbbbbbbbbbbbbbbbbbbbbmooppppoopppppppppqppqqqpponnnbbbbbbbbbqrrrqqrqqqqqppppppbb
(PID.TID 0000.0001)     27 bbbbbbbbbbbbbbtubbbbbbbbbbbbbbqqrrrrrrrrsssrrssssssrrrrqqppoppbbbrrrsbstttsttssssrrqqqbbbb
(PID.TID 0000.0001)     26 bbbbbbbbbbbbbbuuubbbbbbbbbbbtstttttuuuuuuuuuttttttttsssrrqqppqsubttuvuuuuuuuutttssrrqqbbbb
(PID.TID 0000.0001)     25 bbbbbbbbbbbbbbuvvvbbbwwwbbbuuvvvvvvwwwwvvvvvuuuuuuuutttssrrrsstvwbbbvvvvvvvuuuuttsrqqqbbbb
(PID.TID 0000.0001)     24 bbbbbbbbbbbbwvvwxxybwwxxbbbwwwbwwwwwwwwwwwvvvvvvvvuuvvvvvvvvvvvwwvwwbwvvvvuuuuuuttttttbbbb
(PID.TID 0000.0001)     23 bbbbbbbbbbbbwwxxyyzbxxyybbbxwwbbwxxxxxxxxxxwwwwwwwwwwxwwwwwxxwwwwwwxwbbbbwvvvvvvvvwwwwbbbb
(PID.TID 0000.0001)     22 vbbbbbbbbbbbwwxxxyyxxxyzbbbxxbzyxxyyyyzzyyxxxxxxxxxxxxxwwwwwxwwwwwwvvvbbbbbbwwwwwxxxyyyyxw
(PID.TID 0000.0001)     21 vvwbbbbbbbbxxxxxxxxxxyzzzbbbbbzyyzzzzz+zzzzyyyyyyzyyyyyxxxxxxxxxxxwvvvbbbbbbbbxxxxxyyyyyxw
(PID.TID 0000.0001)     20 vwvbbbbbbbyyyyyxyyyyyzzz+bbbbbbzbzzzzzzzz++zzzzzzzzzyyyxxxxxxxxxxxwwwvbbbbbbbbbyyyxxxxxxww
(PID.TID 0000.0001)     19 vvwbbbbbbbzzzyyyzzyyzyzzzzybbbzzzbbbbbz+zz++zzzzzzzzyyyxxxxxwwwwvwvvvvbbbbbbbbbbbxxwwwwvvv
(PID.TID 0000.0001)     18 uuubbbbbbbzyxxxyyyyyyyyyzyzzzz+zzbbb++zzzzzzzzzzzzzyyyyyxxxxwwwvvvvuuutbbbbbbbbbbyxxwwvwwv
(PID.TID 0000.0001)     17 uutbbbbbbbzbxwwxxxxxxxxxyyyyyzzbbbbbyyyyyzzzzzzyyyyyyxxxxxxwwwvvvvvuttvbbbbbbbbbxxxxwvuvvv
(PID.TID 0000.0001)     16 tssbbbbbbyzbxxwxwwwwwwwwwwxxyybbbbbbbxwxxyyyyyyyyyyyyxxxxxxxwwwvvvvuttstbbbbbbbbxxxxxwvvut
(PID.TID 0000.0001)     15 srrrbbbbwxxbvwwwwvvvvvvvuuvvwbbbbbbbbbvwwwxxxxxxxxxxxxxxxxxxwwvvvvuutsssrbbbbbbwxxxxxwwvut
(PID.TID 0000.0001)     14 tsqqbbbbvxvvvwvvvvvvututtstttbbbbbbbbbuvvvwwvvwwwwwwwwwwwxxwwwvvvvuutrssrbbbbbvvwwwwxwwwvu
(PID.TID 0000.0001)     13 ttspbbbbvwvvvvuuuvvuuuttsssrsbbbbbbbbbtuuuuvuuuuuuuuvvvvvvwwwwvuuuuutsrspbbbbuvwwvvvwwvvuu
(PID.TID 0000.0001)     12 sssrssqrtutttutssssssttrrrrrqppqrqbbbbstttttttssssssttttstuuutttssssssrrbbbbbtuvvutuuuttss
(PID.TID 0000.0001)     11 ppooppqrrrrqqrrqqppopqqppppooppqqpqbbrrsrssbqrqqqrrrrrrrrrrrqqqrqqqrrrqpbbbboprssrrrrrrqqp
(PID.TID 0000.0001)     10 mmlklmnoooooooommlmmmmmllllllmnnoooobpqqqqqbopqpqqpppppppppoooooonnooooobbnpooooooonnooonm
(PID.TID 0000.0001)      9 ijiiiijjjjijkkjjjiijjjiiihiiiijkkmmmlmnnopbnmnnoooonnnoonnmllmmmlllllmmlblmmmmlllllkkklkji
(PID.TID 0000.0001)      8 fffgggghhggghiiihgghhhhgggghhhhiijjjjjklllmlkllllkkllllkkkkjjjjkjjjjjjlkbjkkkjjiiihhhhhggf
(PID.TID 0000.0001)      7 eedeeefffgfffggggfefffeeeefggggggghgghhijjjiiijjkjiiiiiihhiiihhhhhhhiiijiiiihhhggfffffeeee
(PID.TID 0000.0001)      6 ccdddeeeeeeeeeeeeeeeeeeeeeeedddeeeeeffggghgghgghhhhgfffffggffffffgggggghggggggffeedddddddc
(PID.TID 0000.0001)      5 cddddddddddddddddddddddddcdddddeeeedddeeeeffffeeeeedddeeeeeedddeeeeeeeeeeeeddeddddcccccccc
(PID.TID 0000.0001)      4 ccccccccccccccbbbbccccbbbbbbcccccbbbbcccccccccccccccccccccccccccccccccccdcbbbaabbbcccccccc
(PID.TID 0000.0001)      3 cccbbbaaaabbbbbbbbbbbbbbbbbbbbbbbbbbbbbbaaaabbbbbbbbbbbbbaaaaaaaaaaaabbbbbbbaaaaabbbbbbbbb
(PID.TID 0000.0001)      2 bbbbbbbbbbbbbbbbbbbbbbbbbbbbbbbbbbbbbbbbbbaaaabbbbbbbaaaaaaaaaaabbaaaabbbbbaaaaaaabbbbabbb
(PID.TID 0000.0001)      1 bbbbbbbbbbbbbbbbbbbbbbbbbbbbbbbbbbbbbbbbbbbbbbbbbbbbbbbbbbbbbbbbbbbbbbbbbbbbbbbbbbbbbbbbbb
(PID.TID 0000.0001) // =======================================================
(PID.TID 0000.0001) // END OF FIELD                                          =
(PID.TID 0000.0001) // =======================================================
(PID.TID 0000.0001) 
(PID.TID 0000.0001) // =======================================================
(PID.TID 0000.0001) // Field Current etaN   at iteration        100
(PID.TID 0000.0001) // CMIN =         -1.928162797083855E+00
(PID.TID 0000.0001) // CMAX =          8.293249285043779E-01
(PID.TID 0000.0001) // CINT =          1.021291750217864E-01
(PID.TID 0000.0001) // SYMBOLS (CMIN->CMAX): -abcdefghijklmnopqrstuvwxyz+
(PID.TID 0000.0001) //                  0.0: .
(PID.TID 0000.0001) // RANGE I (Lo:Hi:Step):(    -1:    92:     1)
(PID.TID 0000.0001) // RANGE J (Lo:Hi:Step):(    42:    -1:    -1)
(PID.TID 0000.0001) // RANGE K (Lo:Hi:Step):(   1:   1:   1)
(PID.TID 0000.0001) // =======================================================
(PID.TID 0000.0001) K =   1
(PID.TID 0000.0001)                I=8       I=18      I=28      I=38      I=48      I=58      I=68      I=78      I=88
(PID.TID 0000.0001) |--J--|101234567|901234567|901234567|901234567|901234567|901234567|901234567|901234567|901234567|9012
(PID.TID 0000.0001)     42 ............................................-----aaaabbbccbbbbbbbb..bbba.....efeddddddddd.....
(PID.TID 0000.0001)     41 ..............................................................................................
(PID.TID 0000.0001)     40 qqpppqq.ppqrrrsssssss..................................................................qqqqqpp
(PID.TID 0000.0001)     39 qqppppqqqqrrstuv...rq.....................................................nooo........rrqqqqpp
(PID.TID 0000.0001)     38 qqrrrssrrrsstuv...........................................................ooopq......sqqqqqqrr
(PID.TID 0000.0001)     37 rrrsu..................................................................nn...qqq...ttsts.prrrrs
(PID.TID 0000.0001)     36 sssu.........................................pppp....................ooopppoopqp.urqqrssrssssu
(PID.TID 0000.0001)     35 tuut.................................mmll..ooooppq...trrss...........ppp....onnnooopqqqrsstuut
(PID.TID 0000.0001)     34 .....................................mlll.mnnooppq.qqqqqqrs..................nnnnnnopqrssv....
(PID.TID 0000.0001)     33 s.....................................nnllmnnoooppqqppppqqqrr.................onnnopqrsssrs...
(PID.TID 0000.0001)     32 t.....................................ponmmnooopqqqqqqqqqrqqr................lqpppqsstttsst...
(PID.TID 0000.0001)     31 ......................................ooooooppqqrrrrrrrrrrrrr..............ttssrrrsttttsss....
(PID.TID 0000.0001)     30 .....................................pqqqqqrrrrrssssssssstssr............quuuvvvvvuuuutttt....
(PID.TID 0000.0001)     29 ...................................qrstutttuuuttttuuttttttttrq...........svxxxxwwwvvvuuttt....
(PID.TID 0000.0001)     28 .................................rstuvwwwvvwwvvvvuuuuuuuttttsrr.........vwxyyxxwwvvvvuuttt....
(PID.TID 0000.0001)     27 ................uu..............vvvwwwwxxwwxwwwwvvvvvuuuutttssrr...+zzy.xyyyyxxwvvvvuutt......
(PID.TID 0000.0001)     26 ................uut...........zyyxxxxxxxxxxxxxwwwwvvvvvuuuttsssrrs.++z++zzzzyyxxwvvvuuut......
(PID.TID 0000.0001)     25 ................uuuu...vww...yyxwyxxxxxxyyyxxxxwwwvvvvvuuuutttssstt...zzzzzyyyxwwvvvuuut......
(PID.TID 0000.0001)     24 ..............uuuvvvv.wwww...yyx.zyxwwwxxxxxxxxwwwwvvvvuuuuuuuttttttts.zyyyyyyyxwwwvvvvv......
(PID.TID 0000.0001)     23 ..............uuvvvww.wwww...yyx..yxxwxxxxxxxxxwwwwwvvvvuuuuuuuuttttttt....yyyyxwwwwwwvw......
(PID.TID 0000.0001)     22 wvv...........uvvuuvvvvvvw...yy.yxxxxxxxxxwwwwwwwwwwwvvvvuuuuuuuttttttts......xwwwwwwwwwwwwvv.
(PID.TID 0000.0001)     21 vvvvv........wvvuuuuuuuuvvw.....yxxxxxwwwvvvvvvvvvvvvvvvvuuuuuutttttssss........xxxwwwwwwwvvvv
(PID.TID 0000.0001)     20 vuuvv.......wwvvuuuuuuuuuvv......x.xwwvvvuvvwvvvvvvvvvvuuuutttttssssssss.........xxwwvvvvvvuuv
(PID.TID 0000.0001)     19 uuuuv.......xwwvuuuvuuvvvvvvv...xxx.....wwwwwwwwwwwvvvvuuuuutttsssssssss...........xwvvvvuuuuu
(PID.TID 0000.0001)     18 uuuuu.......xwwvvvvvvvvvwwwvvvwwxxx...xxwwwwwxxxxxxxwwvvvvvuutttttsssssrr..........xwwvvvuuuuu
(PID.TID 0000.0001)     17 uuuuu.......x.zwwvvwwwwvvvwvvvvwx.....wwwwwwwxxxwxxxxwwvvvvvuuuttttssssrs.........yxwwwvuuuuuu
(PID.TID 0000.0001)     16 vuuut......xy.xwwwwwwwvwvvvvuvvw.......vvvwwwwxwwwwwxwwwwvvvvvvuuttttssrrr........xxwwwwvvvuuu
(PID.TID 0000.0001)     15 vvuutt....wwx.wwxxxwxwvvvvuuttv.........vvwwwwwwwwwwwxxwwwwwwwvvuutttssrrqq......wxxxxxxwwvvuu
(PID.TID 0000.0001)     14 wvvuts....xxwvwwwwwwwvuuuuttsst.........uvvvvvwvvvvvwwwwwwwwwwwvvuutttssrrq.....wxxxxyyxxxwvvu
(PID.TID 0000.0001)     13 xwwvus....wyxwwwvvvvvvuuuutssrq.........uvvvuvvuuuuuuuuvvvvwwwwvvvuuttssrrq....svwxxxxyyyyxwwv
(PID.TID 0000.0001)     12 wwvvuutpqswxxwwwwvvvvuuuuutssrqqqqrq....tuutttttttttttuuuuuuuvvuvvutsssrrq.....suvwwwxxxxxwwvv
(PID.TID 0000.0001)     11 vuutttsstuvwwvuvvuuuuuttttsssrqqrrrrr..qssssr.ttstsstttttuttuutuuuusrrrrqp....rstuuvvvwwwvvuut
(PID.TID 0000.0001)     10 ssrrrrqqqrrrrqpqrrrrrrrrrqqqqpppqqrrrs.qrrsst.ssrsstttttuuttttstttsrqqpppp..yuttrrqrssttttssrr
(PID.TID 0000.0001)      9 onnooonnnnonmllklllkkmnnnnnnnnnnopqrsrqqrrqq.usrrsssttttttttsrrsssrqpooonm.stsrqpnnnnnoppponno
(PID.TID 0000.0001)      8 jiijjjiiijkjjjiiijkhfhiijiijjjkkllmnopoppqrrsqqqqqrrrsssrrrrrqqqqqpooonnnp.rqqpnljjjjjjkkkjiij
(PID.TID 0000.0001)      7 gfeeeeefggggggfffghjgeeeeeeeffgghhiijjijkmoppooooooonnonoonnnmmmnmmmmmmmmnpooonljiggffgggggfee
(PID.TID 0000.0001)      6 ddcbbcccdddeeeddeeeeedcccccccdddeeeeeeefghijkkkkkkkkjjihhhhiijjjjjjjiijjjkkjjjihffeeedeeedddcb
(PID.TID 0000.0001)      5 ccbbbcccccccccccccddcccbbaaabbbbbbbbccccddeeefggggffedcbbccdefffffffeeeffeedccabccccccccccccbb
(PID.TID 0000.0001)      4 cccbccccccccdddddcccbbbbbbbbbaaaaabaaabbbbbbbbcccbbaa--aaabbccccccccccbbbbcd..cdcccccccccccccb
(PID.TID 0000.0001)      3 ddddddcccccc............................aaaaaaaaaaa----aaaaaaaaaaabbbbbbbcb..gfedddddddddddddd
(PID.TID 0000.0001)      2 ............................................-----aaaabbbccbbbbbbbb..bbba.....efeddddddddd.....
(PID.TID 0000.0001)      1 ..............................................................................................
(PID.TID 0000.0001)      0 qqpppqq.ppqrrrsssssss..................................................................qqqqqpp
(PID.TID 0000.0001)     -1 qqppppqqqqrrstuv...rq.....................................................nooo........rrqqqqpp
(PID.TID 0000.0001) // =======================================================
(PID.TID 0000.0001) // END OF FIELD                                          =
(PID.TID 0000.0001) // =======================================================
(PID.TID 0000.0001) 
(PID.TID 0000.0001)  MDS_WRITE_FIELD: it,rec,kS,kL,kH=     100     1  15   1  15 file=U.0000000100
(PID.TID 0000.0001)  MDS_WRITE_FIELD: it,rec,kS,kL,kH=     100     1  15   1  15 file=V.0000000100
(PID.TID 0000.0001)  MDS_WRITE_FIELD: it,rec,kS,kL,kH=     100     1  15   1  15 file=T.0000000100
(PID.TID 0000.0001)  MDS_WRITE_FIELD: it,rec,kS,kL,kH=     100     1  15   1  15 file=S.0000000100
(PID.TID 0000.0001)  MDS_WRITE_FIELD: it,rec,kS,kL,kH=     100     1   1   1   1 file=Eta.0000000100
(PID.TID 0000.0001)  MDS_WRITE_FIELD: it,rec,kS,kL,kH=     100     1  15   1  15 file=W.0000000100
(PID.TID 0000.0001)  MDS_WRITE_FIELD: it,rec,kS,kL,kH=     100     1  15   1  15 file=PH.0000000100
(PID.TID 0000.0001)  MDS_WRITE_FIELD: it,rec,kS,kL,kH=     100     1   1   1   1 file=PHL.0000000100
(PID.TID 0000.0001)  MDS_WRITE_FIELD: it,rec,kS,kL,kH=     100     1   1   1   1 file=ETAtave.0000000100
(PID.TID 0000.0001)  MDS_WRITE_FIELD: it,rec,kS,kL,kH=     100     1  15   1  15 file=Ttave.0000000100
(PID.TID 0000.0001)  MDS_WRITE_FIELD: it,rec,kS,kL,kH=     100     1  15   1  15 file=Stave.0000000100
(PID.TID 0000.0001)  MDS_WRITE_FIELD: it,rec,kS,kL,kH=     100     1  15   1  15 file=uVeltave.0000000100
(PID.TID 0000.0001)  MDS_WRITE_FIELD: it,rec,kS,kL,kH=     100     1  15   1  15 file=vVeltave.0000000100
(PID.TID 0000.0001)  MDS_WRITE_FIELD: it,rec,kS,kL,kH=     100     1  15   1  15 file=wVeltave.0000000100
(PID.TID 0000.0001)  MDS_WRITE_FIELD: it,rec,kS,kL,kH=     100     1   1   1   1 file=Eta2tave.0000000100
(PID.TID 0000.0001)  MDS_WRITE_FIELD: it,rec,kS,kL,kH=     100     1  15   1  15 file=UTtave.0000000100
(PID.TID 0000.0001)  MDS_WRITE_FIELD: it,rec,kS,kL,kH=     100     1  15   1  15 file=VTtave.0000000100
(PID.TID 0000.0001)  MDS_WRITE_FIELD: it,rec,kS,kL,kH=     100     1  15   1  15 file=WTtave.0000000100
(PID.TID 0000.0001)  MDS_WRITE_FIELD: it,rec,kS,kL,kH=     100     1  15   1  15 file=UStave.0000000100
(PID.TID 0000.0001)  MDS_WRITE_FIELD: it,rec,kS,kL,kH=     100     1  15   1  15 file=VStave.0000000100
(PID.TID 0000.0001)  MDS_WRITE_FIELD: it,rec,kS,kL,kH=     100     1  15   1  15 file=WStave.0000000100
(PID.TID 0000.0001)  MDS_WRITE_FIELD: it,rec,kS,kL,kH=     100     1  15   1  15 file=TTtave.0000000100
(PID.TID 0000.0001)  MDS_WRITE_FIELD: it,rec,kS,kL,kH=     100     1  15   1  15 file=UUtave.0000000100
(PID.TID 0000.0001)  MDS_WRITE_FIELD: it,rec,kS,kL,kH=     100     1  15   1  15 file=VVtave.0000000100
(PID.TID 0000.0001)  MDS_WRITE_FIELD: it,rec,kS,kL,kH=     100     1  15   1  15 file=UVtave.0000000100
(PID.TID 0000.0001)  MDS_WRITE_FIELD: it,rec,kS,kL,kH=     100     1  15   1  15 file=Tdiftave.0000000100
(PID.TID 0000.0001)  MDS_WRITE_FIELD: it,rec,kS,kL,kH=     100     1  15   1  15 file=PhHytave.0000000100
(PID.TID 0000.0001)  MDS_WRITE_FIELD: it,rec,kS,kL,kH=     100     1   1   1   1 file=PHLtave.0000000100
(PID.TID 0000.0001)  MDS_WRITE_FIELD: it,rec,kS,kL,kH=     100     1   1   1   1 file=uFluxtave.0000000100
(PID.TID 0000.0001)  MDS_WRITE_FIELD: it,rec,kS,kL,kH=     100     1   1   1   1 file=vFluxtave.0000000100
(PID.TID 0000.0001)  MDS_WRITE_FIELD: it,rec,kS,kL,kH=     100     1   1   1   1 file=tFluxtave.0000000100
(PID.TID 0000.0001)  MDS_WRITE_FIELD: it,rec,kS,kL,kH=     100     1   1   1   1 file=sFluxtave.0000000100
(PID.TID 0000.0001)  MDS_WRITE_FIELD: it,rec,kS,kL,kH=     100     1   1   1   1 file=PHL2tave.0000000100
(PID.TID 0000.0001)  MDS_WRITE_FIELD: it,rec,kS,kL,kH=     100     1  15   1  15 file=Convtave.0000000100
(PID.TID 0000.0001) // Time-average data written, t-step       100
(PID.TID 0000.0001) 
(PID.TID 0000.0001)  MDS_WRITE_FIELD: it,rec,kS,kL,kH=     100     1  15   1  15 file=GM_Kwx-T.0000000100
(PID.TID 0000.0001)  MDS_WRITE_FIELD: it,rec,kS,kL,kH=     100     1  15   1  15 file=GM_Kwy-T.0000000100
(PID.TID 0000.0001)  MDS_WRITE_FIELD: it,rec,kS,kL,kH=     100     1  15   1  15 file=GM_Kwz-T.0000000100
(PID.TID 0000.0001)  MDS_WRITE_FIELD: it,rec,kS,kL,kH=     100     1  15   1  15 file=pickup_cd.0000000100
(PID.TID 0000.0001)  MDS_WRITE_FIELD: it,rec,kS,kL,kH=     100     2  15   1  15 file=pickup_cd.0000000100
(PID.TID 0000.0001)  MDS_WRITE_FIELD: it,rec,kS,kL,kH=     100     3  15   1  15 file=pickup_cd.0000000100
(PID.TID 0000.0001)  MDS_WRITE_FIELD: it,rec,kS,kL,kH=     100     4  15   1  15 file=pickup_cd.0000000100
(PID.TID 0000.0001)  MDS_WRITE_FIELD: it,rec,kS,kL,kH=     100    61   1   1   1 file=pickup_cd.0000000100
(PID.TID 0000.0001)  MDS_WRITE_FIELD: it,rec,kS,kL,kH=     100    -1  15   1  15 file=pickup.0000000100
(PID.TID 0000.0001)  MDS_WRITE_FIELD: it,rec,kS,kL,kH=     100    -2  15   1  15 file=pickup.0000000100
(PID.TID 0000.0001)  MDS_WRITE_FIELD: it,rec,kS,kL,kH=     100    -3  15   1  15 file=pickup.0000000100
(PID.TID 0000.0001)  MDS_WRITE_FIELD: it,rec,kS,kL,kH=     100    -4  15   1  15 file=pickup.0000000100
(PID.TID 0000.0001)  MDS_WRITE_FIELD: it,rec,kS,kL,kH=     100    -5  15   1  15 file=pickup.0000000100
(PID.TID 0000.0001)  MDS_WRITE_FIELD: it,rec,kS,kL,kH=     100    -6  15   1  15 file=pickup.0000000100
(PID.TID 0000.0001)  MDS_WRITE_FIELD: it,rec,kS,kL,kH=     100    -7  15   1  15 file=pickup.0000000100
(PID.TID 0000.0001)  MDS_WRITE_FIELD: it,rec,kS,kL,kH=     100    -8  15   1  15 file=pickup.0000000100
(PID.TID 0000.0001)  MDS_WRITE_FIELD: it,rec,kS,kL,kH=     100  -121   1   1   1 file=pickup.0000000100
(PID.TID 0000.0001)  MDS_WRITE_FIELD: it,rec,kS,kL,kH=     100  -122   1   1   1 file=pickup.0000000100
(PID.TID 0000.0001)  MDS_WRITE_FIELD: it,rec,kS,kL,kH=     100  -123   1   1   1 file=pickup.0000000100
(PID.TID 0000.0001) %CHECKPOINT       100 0000000100
(PID.TID 0000.0001)   Seconds in section "ALL                    [THE_MODEL_MAIN]":
(PID.TID 0000.0001)           User time:   31.0154222138226
(PID.TID 0000.0001)         System time:  0.000000000000000E+000
(PID.TID 0000.0001)     Wall clock time:   31.7551219463348
(PID.TID 0000.0001)          No. starts:           1
(PID.TID 0000.0001)           No. stops:           1
(PID.TID 0000.0001)   Seconds in section "INITIALISE_FIXED       [THE_MODEL_MAIN]":
(PID.TID 0000.0001)           User time:  7.555000483989716E-003
(PID.TID 0000.0001)         System time:  0.000000000000000E+000
(PID.TID 0000.0001)     Wall clock time:  4.564309120178223E-002
(PID.TID 0000.0001)          No. starts:           1
(PID.TID 0000.0001)           No. stops:           1
(PID.TID 0000.0001)   Seconds in section "THE_MAIN_LOOP          [THE_MODEL_MAIN]":
(PID.TID 0000.0001)           User time:   31.0078544933349
(PID.TID 0000.0001)         System time:  0.000000000000000E+000
(PID.TID 0000.0001)     Wall clock time:   31.7094609737396
(PID.TID 0000.0001)          No. starts:           1
(PID.TID 0000.0001)           No. stops:           1
(PID.TID 0000.0001)   Seconds in section "INITIALISE_VARIA    [THE_MAIN_LOOP]":
(PID.TID 0000.0001)           User time:  1.212600059807301E-002
(PID.TID 0000.0001)         System time:  0.000000000000000E+000
(PID.TID 0000.0001)     Wall clock time:  2.354001998901367E-002
(PID.TID 0000.0001)          No. starts:           1
(PID.TID 0000.0001)           No. stops:           1
(PID.TID 0000.0001)   Seconds in section "MAIN LOOP           [THE_MAIN_LOOP]":
(PID.TID 0000.0001)           User time:   30.9957196787000
(PID.TID 0000.0001)         System time:  0.000000000000000E+000
(PID.TID 0000.0001)     Wall clock time:   31.6859049797058
(PID.TID 0000.0001)          No. starts:           1
(PID.TID 0000.0001)           No. stops:           1
(PID.TID 0000.0001)   Seconds in section "INIT_PDAF           [THE_MAIN_LOOP]":
(PID.TID 0000.0001)           User time:  1.098300144076347E-002
(PID.TID 0000.0001)         System time:  0.000000000000000E+000
(PID.TID 0000.0001)     Wall clock time:  1.207304000854492E-002
(PID.TID 0000.0001)          No. starts:           1
(PID.TID 0000.0001)           No. stops:           1
(PID.TID 0000.0001)   Seconds in section "MAIN_DO_LOOP        [THE_MAIN_LOOP]":
(PID.TID 0000.0001)           User time:   2.89514667168260
(PID.TID 0000.0001)         System time:  0.000000000000000E+000
(PID.TID 0000.0001)     Wall clock time:   3.50691199302673
(PID.TID 0000.0001)          No. starts:         100
(PID.TID 0000.0001)           No. stops:         100
(PID.TID 0000.0001)   Seconds in section "FORWARD_STEP        [MAIN_DO_LOOP]":
(PID.TID 0000.0001)           User time:   2.89417394250631
(PID.TID 0000.0001)         System time:  0.000000000000000E+000
(PID.TID 0000.0001)     Wall clock time:   3.50592398643494
(PID.TID 0000.0001)          No. starts:         100
(PID.TID 0000.0001)           No. stops:         100
(PID.TID 0000.0001)   Seconds in section "LOAD_FIELDS_DRIVER  [FORWARD_STEP]":
(PID.TID 0000.0001)           User time:  8.649822324514389E-003
(PID.TID 0000.0001)         System time:  0.000000000000000E+000
(PID.TID 0000.0001)     Wall clock time:  9.445190429687500E-003
(PID.TID 0000.0001)          No. starts:         100
(PID.TID 0000.0001)           No. stops:         100
(PID.TID 0000.0001)   Seconds in section "EXTERNAL_FLDS_LOAD [LOAD_FLDS_DRIVER]":
(PID.TID 0000.0001)           User time:  7.670834660530090E-003
(PID.TID 0000.0001)         System time:  0.000000000000000E+000
(PID.TID 0000.0001)     Wall clock time:  8.476734161376953E-003
(PID.TID 0000.0001)          No. starts:         100
(PID.TID 0000.0001)           No. stops:         100
(PID.TID 0000.0001)   Seconds in section "DO_ATMOSPHERIC_PHYS [FORWARD_STEP]":
(PID.TID 0000.0001)           User time:  4.768185317516327E-004
(PID.TID 0000.0001)         System time:  0.000000000000000E+000
(PID.TID 0000.0001)     Wall clock time:  5.223751068115234E-004
(PID.TID 0000.0001)          No. starts:         100
(PID.TID 0000.0001)           No. stops:         100
(PID.TID 0000.0001)   Seconds in section "DO_OCEANIC_PHYS     [FORWARD_STEP]":
(PID.TID 0000.0001)           User time:  0.373949430882931
(PID.TID 0000.0001)         System time:  0.000000000000000E+000
(PID.TID 0000.0001)     Wall clock time:  0.386742591857910
(PID.TID 0000.0001)          No. starts:         100
(PID.TID 0000.0001)           No. stops:         100
(PID.TID 0000.0001)   Seconds in section "THERMODYNAMICS      [FORWARD_STEP]":
(PID.TID 0000.0001)           User time:  0.748348634690046
(PID.TID 0000.0001)         System time:  0.000000000000000E+000
(PID.TID 0000.0001)     Wall clock time:  0.765646457672119
(PID.TID 0000.0001)          No. starts:         100
(PID.TID 0000.0001)           No. stops:         100
(PID.TID 0000.0001)   Seconds in section "DYNAMICS            [FORWARD_STEP]":
(PID.TID 0000.0001)           User time:  0.825643710792065
(PID.TID 0000.0001)         System time:  0.000000000000000E+000
(PID.TID 0000.0001)     Wall clock time:  0.834133386611938
(PID.TID 0000.0001)          No. starts:         100
(PID.TID 0000.0001)           No. stops:         100
(PID.TID 0000.0001)   Seconds in section "SOLVE_FOR_PRESSURE  [FORWARD_STEP]":
(PID.TID 0000.0001)           User time:  0.385589092969894
(PID.TID 0000.0001)         System time:  0.000000000000000E+000
(PID.TID 0000.0001)     Wall clock time:  0.402283906936646
(PID.TID 0000.0001)          No. starts:         100
(PID.TID 0000.0001)           No. stops:         100
(PID.TID 0000.0001)   Seconds in section "MOM_CORRECTION_STEP [FORWARD_STEP]":
(PID.TID 0000.0001)           User time:  1.906337589025497E-002
(PID.TID 0000.0001)         System time:  0.000000000000000E+000
(PID.TID 0000.0001)     Wall clock time:  1.947522163391113E-002
(PID.TID 0000.0001)          No. starts:         100
(PID.TID 0000.0001)           No. stops:         100
(PID.TID 0000.0001)   Seconds in section "INTEGR_CONTINUITY   [FORWARD_STEP]":
(PID.TID 0000.0001)           User time:  3.370444476604462E-002
(PID.TID 0000.0001)         System time:  0.000000000000000E+000
(PID.TID 0000.0001)     Wall clock time:  3.404021263122559E-002
(PID.TID 0000.0001)          No. starts:         100
(PID.TID 0000.0001)           No. stops:         100
(PID.TID 0000.0001)   Seconds in section "TRC_CORRECTION_STEP [FORWARD_STEP]":
(PID.TID 0000.0001)           User time:  4.818439483642578E-004
(PID.TID 0000.0001)         System time:  0.000000000000000E+000
(PID.TID 0000.0001)     Wall clock time:  4.889965057373047E-004
(PID.TID 0000.0001)          No. starts:         100
(PID.TID 0000.0001)           No. stops:         100
(PID.TID 0000.0001)   Seconds in section "BLOCKING_EXCHANGES  [FORWARD_STEP]":
(PID.TID 0000.0001)           User time:  1.871938258409500E-002
(PID.TID 0000.0001)         System time:  0.000000000000000E+000
(PID.TID 0000.0001)     Wall clock time:  1.897335052490234E-002
(PID.TID 0000.0001)          No. starts:         100
(PID.TID 0000.0001)           No. stops:         100
(PID.TID 0000.0001)   Seconds in section "DO_STATEVARS_TAVE   [FORWARD_STEP]":
(PID.TID 0000.0001)           User time:  0.117211550474167
(PID.TID 0000.0001)         System time:  0.000000000000000E+000
(PID.TID 0000.0001)     Wall clock time:  0.122441530227661
(PID.TID 0000.0001)          No. starts:         100
(PID.TID 0000.0001)           No. stops:         100
(PID.TID 0000.0001)   Seconds in section "MONITOR             [FORWARD_STEP]":
(PID.TID 0000.0001)           User time:  0.281310334801674
(PID.TID 0000.0001)         System time:  0.000000000000000E+000
(PID.TID 0000.0001)     Wall clock time:  0.288965702056885
(PID.TID 0000.0001)          No. starts:         100
(PID.TID 0000.0001)           No. stops:         100
(PID.TID 0000.0001)   Seconds in section "DO_THE_MODEL_IO     [FORWARD_STEP]":
(PID.TID 0000.0001)           User time:  5.966010689735413E-002
(PID.TID 0000.0001)         System time:  0.000000000000000E+000
(PID.TID 0000.0001)     Wall clock time:  0.503437519073486
(PID.TID 0000.0001)          No. starts:         100
(PID.TID 0000.0001)           No. stops:         100
(PID.TID 0000.0001)   Seconds in section "DO_WRITE_PICKUP     [FORWARD_STEP]":
(PID.TID 0000.0001)           User time:  1.297408342361450E-002
(PID.TID 0000.0001)         System time:  0.000000000000000E+000
(PID.TID 0000.0001)     Wall clock time:  0.111871719360352
(PID.TID 0000.0001)          No. starts:         100
(PID.TID 0000.0001)           No. stops:         100
(PID.TID 0000.0001)   Seconds in section "ASSIMILATE_PDAF     [THE_MAIN_LOOP]":
(PID.TID 0000.0001)           User time:   28.0885225087404
(PID.TID 0000.0001)         System time:  0.000000000000000E+000
(PID.TID 0000.0001)     Wall clock time:   28.1658635139465
(PID.TID 0000.0001)          No. starts:         100
(PID.TID 0000.0001)           No. stops:         100
(PID.TID 0000.0001) // ======================================================
(PID.TID 0000.0001) // Tile <-> Tile communication statistics
(PID.TID 0000.0001) // ======================================================
(PID.TID 0000.0001) // o Tile number: 000001
(PID.TID 0000.0001) //         No. X exchanges =              0
(PID.TID 0000.0001) //            Max. X spins =              0
(PID.TID 0000.0001) //            Min. X spins =     1000000000
(PID.TID 0000.0001) //          Total. X spins =              0
(PID.TID 0000.0001) //            Avg. X spins =       0.00E+00
(PID.TID 0000.0001) //         No. Y exchanges =              0
(PID.TID 0000.0001) //            Max. Y spins =              0
(PID.TID 0000.0001) //            Min. Y spins =     1000000000
(PID.TID 0000.0001) //          Total. Y spins =              0
(PID.TID 0000.0001) //            Avg. Y spins =       0.00E+00
(PID.TID 0000.0001) // o Thread number: 000001
(PID.TID 0000.0001) //            No. barriers =         140918
(PID.TID 0000.0001) //      Max. barrier spins =              1
(PID.TID 0000.0001) //      Min. barrier spins =              1
(PID.TID 0000.0001) //     Total barrier spins =         140918
(PID.TID 0000.0001) //      Avg. barrier spins =       1.00E+00
PROGRAM MAIN: Execution ended Normally
