(PID.TID 0000.0001) 
(PID.TID 0000.0001) // ======================================================
(PID.TID 0000.0001) //                      MITgcm UV
(PID.TID 0000.0001) //                      =========
(PID.TID 0000.0001) // ======================================================
(PID.TID 0000.0001) // execution environment starting up...
(PID.TID 0000.0001) 
(PID.TID 0000.0001) // MITgcmUV version:  checkpoint68e
(PID.TID 0000.0001) // Build user:        hajsong
(PID.TID 0000.0001) // Build host:        acc00
(PID.TID 0000.0001) // Build date:        Mon Dec 20 17:40:35 KST 2021
(PID.TID 0000.0001) 
(PID.TID 0000.0001) // =======================================================
(PID.TID 0000.0001) // Execution Environment parameter file "eedata"
(PID.TID 0000.0001) // =======================================================
(PID.TID 0000.0001) ># Example "eedata" file
(PID.TID 0000.0001) ># Lines beginning "#" are comments
(PID.TID 0000.0001) ># nTx - No. threads per process in X
(PID.TID 0000.0001) ># nTy - No. threads per process in Y
(PID.TID 0000.0001) > &EEPARMS
(PID.TID 0000.0001) > nTx=1,
(PID.TID 0000.0001) > nTy=1,
(PID.TID 0000.0001) > &
(PID.TID 0000.0001) ># Note: Some systems use & as the
(PID.TID 0000.0001) ># namelist terminator. Other systems
(PID.TID 0000.0001) ># use a / character (as shown here).
(PID.TID 0000.0001) 
(PID.TID 0000.0001) // =======================================================
(PID.TID 0000.0001) // Computational Grid Specification ( see files "SIZE.h" )
(PID.TID 0000.0001) //                                  ( and "eedata"       )
(PID.TID 0000.0001) // =======================================================
(PID.TID 0000.0001)      nPx =    1 ; /* No. processes in X */
(PID.TID 0000.0001)      nPy =    1 ; /* No. processes in Y */
(PID.TID 0000.0001)      nSx =    1 ; /* No. tiles in X per process */
(PID.TID 0000.0001)      nSy =    1 ; /* No. tiles in Y per process */
(PID.TID 0000.0001)      sNx =   90 ; /* Tile size in X */
(PID.TID 0000.0001)      sNy =   40 ; /* Tile size in Y */
(PID.TID 0000.0001)      OLx =    2 ; /* Tile overlap distance in X */
(PID.TID 0000.0001)      OLy =    2 ; /* Tile overlap distance in Y */
(PID.TID 0000.0001)      nTx =    1 ; /* No. threads in X per process */
(PID.TID 0000.0001)      nTy =    1 ; /* No. threads in Y per process */
(PID.TID 0000.0001)       Nr =   15 ; /* No. levels in the vertical   */
(PID.TID 0000.0001)       Nx =   90 ; /* Total domain size in X ( = nPx*nSx*sNx ) */
(PID.TID 0000.0001)       Ny =   40 ; /* Total domain size in Y ( = nPy*nSy*sNy ) */
(PID.TID 0000.0001)   nTiles =    1 ; /* Total no. tiles per process ( = nSx*nSy ) */
(PID.TID 0000.0001)   nProcs =    1 ; /* Total no. processes ( = nPx*nPy ) */
(PID.TID 0000.0001) nThreads =    1 ; /* Total no. threads per process ( = nTx*nTy ) */
(PID.TID 0000.0001) usingMPI =    T ; /* Flag used to control whether MPI is in use */
(PID.TID 0000.0001)                   /*  note: To execute a program with MPI calls */
(PID.TID 0000.0001)                   /*  it must be launched appropriately e.g     */
(PID.TID 0000.0001)                   /*  "mpirun -np 64 ......"                    */
(PID.TID 0000.0001) useCoupler=   F ; /* Flag used to control communications with   */
(PID.TID 0000.0001)                   /*  other model components, through a coupler */
(PID.TID 0000.0001) useNest2W_parent =    F ;/* Control 2-W Nesting comm */
(PID.TID 0000.0001) useNest2W_child  =    F ;/* Control 2-W Nesting comm */
(PID.TID 0000.0001) debugMode =    F ; /* print debug msg. (sequence of S/R calls)  */
(PID.TID 0000.0001) printMapIncludesZeros=    F ; /* print zeros in Std.Output maps */
(PID.TID 0000.0001) maxLengthPrt1D=   65 /* maxLength of 1D array printed to StdOut */
(PID.TID 0000.0001) 
(PID.TID 0000.0001) ======= Starting MPI parallel Run =========
(PID.TID 0000.0001)  My Processor Name (len:  5 ) = acc00
(PID.TID 0000.0001)  Located at (  0,  0) on processor grid (0:  0,0:  0)
(PID.TID 0000.0001)  Origin at  (     1,     1) on global grid (1:    90,1:    40)
(PID.TID 0000.0001)  North neighbor = processor 0000
(PID.TID 0000.0001)  South neighbor = processor 0000
(PID.TID 0000.0001)   East neighbor = processor 0000
(PID.TID 0000.0001)   West neighbor = processor 0000
(PID.TID 0000.0001) // ======================================================
(PID.TID 0000.0001) // Mapping of tiles to threads
(PID.TID 0000.0001) // ======================================================
(PID.TID 0000.0001) // -o- Thread   1, tiles (   1:   1,   1:   1)
(PID.TID 0000.0001) 
(PID.TID 0000.0001) // ======================================================
(PID.TID 0000.0001) // Tile <-> Tile connectvity table
(PID.TID 0000.0001) // ======================================================
(PID.TID 0000.0001) // Tile number: 000001 (process no. = 000000)
(PID.TID 0000.0001) //        WEST: Tile = 000001, Process = 000000, Comm = put
(PID.TID 0000.0001) //                bi = 000001, bj = 000001
(PID.TID 0000.0001) //        EAST: Tile = 000001, Process = 000000, Comm = put
(PID.TID 0000.0001) //                bi = 000001, bj = 000001
(PID.TID 0000.0001) //       SOUTH: Tile = 000001, Process = 000000, Comm = put
(PID.TID 0000.0001) //                bi = 000001, bj = 000001
(PID.TID 0000.0001) //       NORTH: Tile = 000001, Process = 000000, Comm = put
(PID.TID 0000.0001) //                bi = 000001, bj = 000001
(PID.TID 0000.0001) 
(PID.TID 0000.0001)  INI_PARMS: opening model parameter file "data"
(PID.TID 0000.0001)  OPEN_COPY_DATA_FILE: opening file data
(PID.TID 0000.0001) // =======================================================
(PID.TID 0000.0001) // Parameter file "data"
(PID.TID 0000.0001) // =======================================================
(PID.TID 0000.0001) ># ====================
(PID.TID 0000.0001) ># | Model parameters |
(PID.TID 0000.0001) ># ====================
(PID.TID 0000.0001) >#
(PID.TID 0000.0001) ># Continuous equation parameters
(PID.TID 0000.0001) > &PARM01
(PID.TID 0000.0001) > tRef = 15*20.,
(PID.TID 0000.0001) > sRef = 15*35.,
(PID.TID 0000.0001) > viscAr=1.E-3,
(PID.TID 0000.0001) > viscAh=5.E5,
(PID.TID 0000.0001) > diffKhT=0.,
(PID.TID 0000.0001) > diffKrT=3.E-5,
(PID.TID 0000.0001) > diffKhS=0.,
(PID.TID 0000.0001) > diffKrS=3.E-5,
(PID.TID 0000.0001) > rhoConst=1035.,
(PID.TID 0000.0001) > rhoConstFresh=1000.,
(PID.TID 0000.0001) > eosType = 'JMD95Z',
(PID.TID 0000.0001) > ivdc_kappa=100.,
(PID.TID 0000.0001) > implicitDiffusion=.TRUE.,
(PID.TID 0000.0001) > allowFreezing=.TRUE.,
(PID.TID 0000.0001) > exactConserv=.TRUE.,
(PID.TID 0000.0001) > useRealFreshWaterFlux=.TRUE.,
(PID.TID 0000.0001) > useCDscheme=.TRUE.,
(PID.TID 0000.0001) ># turn on looped cells
(PID.TID 0000.0001) > hFacMin=.05,
(PID.TID 0000.0001) > hFacMindr=50.,
(PID.TID 0000.0001) ># set precision of data files
(PID.TID 0000.0001) > readBinaryPrec=32,
(PID.TID 0000.0001) > useSingleCpuIO=.TRUE.,
(PID.TID 0000.0001) > debugLevel=5,
(PID.TID 0000.0001) > &
(PID.TID 0000.0001) >
(PID.TID 0000.0001) ># Elliptic solver parameters
(PID.TID 0000.0001) > &PARM02
(PID.TID 0000.0001) > cg2dMaxIters=500,
(PID.TID 0000.0001) > cg2dTargetResidual=1.E-13,
(PID.TID 0000.0001) > &
(PID.TID 0000.0001) >
(PID.TID 0000.0001) ># Time stepping parameters
(PID.TID 0000.0001) > &PARM03
(PID.TID 0000.0001) > nIter0=      0,
(PID.TID 0000.0001) > nTimeSteps = 100,
(PID.TID 0000.0001) ># 100 years of integration will yield a reasonable flow field
(PID.TID 0000.0001) ># startTime =          0.,
(PID.TID 0000.0001) ># endTime   = 3110400000.,
(PID.TID 0000.0001) ># endTime   = 31104000.,
(PID.TID 0000.0001) > deltaTmom = 1800.,
(PID.TID 0000.0001) > tauCD =     321428.,
(PID.TID 0000.0001) > deltaTtracer= 86400.,
(PID.TID 0000.0001) > deltaTClock = 86400.,
(PID.TID 0000.0001) > deltaTfreesurf= 86400.,
(PID.TID 0000.0001) > abEps = 0.1,
(PID.TID 0000.0001) > pChkptFreq= 864000.,
(PID.TID 0000.0001) > dumpFreq=   864000.,
(PID.TID 0000.0001) > taveFreq=   864000.,
(PID.TID 0000.0001) > monitorFreq=1.,
(PID.TID 0000.0001) ># 2 months restoring timescale for temperature
(PID.TID 0000.0001) ># tauThetaClimRelax=  5184000.,
(PID.TID 0000.0001) ># 6 months restoring timescale for salinity
(PID.TID 0000.0001) ># tauSaltClimRelax = 15552000.,
(PID.TID 0000.0001) > periodicExternalForcing=.TRUE.,
(PID.TID 0000.0001) > externForcingPeriod=2592000.,
(PID.TID 0000.0001) > externForcingCycle=31104000.,
(PID.TID 0000.0001) > &
(PID.TID 0000.0001) >
(PID.TID 0000.0001) ># Gridding parameters
(PID.TID 0000.0001) > &PARM04
(PID.TID 0000.0001) > usingSphericalPolarGrid=.TRUE.,
(PID.TID 0000.0001) > delR= 50.,  70., 100., 140., 190.,
(PID.TID 0000.0001) >      240., 290., 340., 390., 440.,
(PID.TID 0000.0001) >      490., 540., 590., 640., 690.,
(PID.TID 0000.0001) > ygOrigin=-80.,
(PID.TID 0000.0001) > dySpacing=4.,
(PID.TID 0000.0001) > dxSpacing=4.,
(PID.TID 0000.0001) > &
(PID.TID 0000.0001) >
(PID.TID 0000.0001) ># Input datasets
(PID.TID 0000.0001) > &PARM05
(PID.TID 0000.0001) > bathyFile=      'bathymetry.bin',
(PID.TID 0000.0001) > hydrogThetaFile='lev_t.bin',
(PID.TID 0000.0001) > hydrogSaltFile= 'lev_s.bin',
(PID.TID 0000.0001) > zonalWindFile=  'trenberth_taux.bin',
(PID.TID 0000.0001) > meridWindFile=  'trenberth_tauy.bin',
(PID.TID 0000.0001) > thetaClimFile=  'lev_sst.bin',
(PID.TID 0000.0001) > saltClimFile=   'lev_sss.bin',
(PID.TID 0000.0001) > surfQnetFile=   'ncep_qnet.bin',
(PID.TID 0000.0001) > the_run_name=   'global_oce_latlon',
(PID.TID 0000.0001) ># fresh water flux is turned on, comment next line to it turn off
(PID.TID 0000.0001) ># (maybe better with surface salinity restoring)
(PID.TID 0000.0001) > EmPmRFile=      'ncep_emp.bin',
(PID.TID 0000.0001) ># checkIniTemp=.FALSE.,
(PID.TID 0000.0001) ># checkIniSalt=.FALSE.
(PID.TID 0000.0001) > &
(PID.TID 0000.0001) 
(PID.TID 0000.0001)  INI_PARMS ; starts to read PARM01
(PID.TID 0000.0001)  INI_PARMS ; read PARM01 : OK
(PID.TID 0000.0001) S/R INI_PARMS: No request for barotropic solver
(PID.TID 0000.0001) S/R INI_PARMS: => Use implicitFreeSurface as default
(PID.TID 0000.0001)  INI_PARMS ; starts to read PARM02
(PID.TID 0000.0001)  INI_PARMS ; read PARM02 : OK
(PID.TID 0000.0001)  INI_PARMS ; starts to read PARM03
(PID.TID 0000.0001)  INI_PARMS ; read PARM03 : OK
(PID.TID 0000.0001)  INI_PARMS ; starts to read PARM04
(PID.TID 0000.0001)  INI_PARMS ; read PARM04 : OK
(PID.TID 0000.0001)  INI_PARMS ; starts to read PARM05
(PID.TID 0000.0001)  INI_PARMS ; read PARM05 : OK
(PID.TID 0000.0001)  INI_PARMS: finished reading file "data"
(PID.TID 0000.0001)  PACKAGES_BOOT: opening data.pkg
(PID.TID 0000.0001)  OPEN_COPY_DATA_FILE: opening file data.pkg
(PID.TID 0000.0001) // =======================================================
(PID.TID 0000.0001) // Parameter file "data.pkg"
(PID.TID 0000.0001) // =======================================================
(PID.TID 0000.0001) ># Packages (lines beginning "#" are comments)
(PID.TID 0000.0001) > &PACKAGES
(PID.TID 0000.0001) > useGMRedi=.TRUE.,
(PID.TID 0000.0001) >#usePTRACERS=.TRUE.,
(PID.TID 0000.0001) >#useMNC=.TRUE.,
(PID.TID 0000.0001) > &
(PID.TID 0000.0001) 
(PID.TID 0000.0001)  PACKAGES_BOOT: finished reading data.pkg
(PID.TID 0000.0001)  PACKAGES_BOOT: On/Off package Summary
 --------  pkgs with a standard "usePKG" On/Off switch in "data.pkg":  --------
 pkg/gmredi               compiled   and   used ( useGMRedi                = T )
 pkg/ptracers             compiled but not used ( usePTRACERS              = F )
 pkg/mnc                  compiled but not used ( useMNC                   = F )
 -------- pkgs without standard "usePKG" On/Off switch in "data.pkg":  --------
 pkg/generic_advdiff      compiled   and   used ( useGAD                   = T )
 pkg/mom_common           compiled   and   used ( momStepping              = T )
 pkg/mom_vecinv           compiled but not used ( +vectorInvariantMomentum = F )
 pkg/mom_fluxform         compiled   and   used ( & not vectorInvariantMom = T )
 pkg/cd_code              compiled   and   used ( useCDscheme              = T )
 pkg/monitor              compiled   and   used ( monitorFreq > 0.         = T )
 pkg/timeave              compiled   and   used ( taveFreq > 0.            = T )
 pkg/debug                compiled but not used ( debugMode                = F )
 pkg/rw                   compiled   and   used
 pkg/mdsio                compiled   and   used
(PID.TID 0000.0001)  PACKAGES_BOOT: End of package Summary
(PID.TID 0000.0001) 
(PID.TID 0000.0001)  GM_READPARMS: opening data.gmredi
(PID.TID 0000.0001)  OPEN_COPY_DATA_FILE: opening file data.gmredi
(PID.TID 0000.0001) // =======================================================
(PID.TID 0000.0001) // Parameter file "data.gmredi"
(PID.TID 0000.0001) // =======================================================
(PID.TID 0000.0001) ># GM+Redi package parameters:
(PID.TID 0000.0001) >
(PID.TID 0000.0001) >#-from MOM :
(PID.TID 0000.0001) ># GM_background_K: 	G & Mc.W  diffusion coefficient
(PID.TID 0000.0001) ># GM_maxSlope    :	max slope of isopycnals
(PID.TID 0000.0001) ># GM_Scrit       :	transition for scaling diffusion coefficient
(PID.TID 0000.0001) ># GM_Sd          :	half width scaling for diffusion coefficient
(PID.TID 0000.0001) ># GM_taper_scheme:	slope clipping or one of the tapering schemes
(PID.TID 0000.0001) ># GM_Kmin_horiz  :	horizontal diffusion minimum value
(PID.TID 0000.0001) >
(PID.TID 0000.0001) >#-Option parameters (needs to "define" options in GMREDI_OPTIONS.h")
(PID.TID 0000.0001) ># GM_isopycK     :	isopycnal diffusion coefficient (default=GM_background_K)
(PID.TID 0000.0001) ># GM_AdvForm     :	turn on GM Advective form       (default=Skew flux form)
(PID.TID 0000.0001) >
(PID.TID 0000.0001) > &GM_PARM01
(PID.TID 0000.0001) >  GM_background_K    = 1.e+3,
(PID.TID 0000.0001) >  GM_taper_scheme    = 'gkw91',
(PID.TID 0000.0001) >  GM_maxSlope        = 1.e-2,
(PID.TID 0000.0001) >  GM_Kmin_horiz      = 50.,
(PID.TID 0000.0001) >  GM_Scrit           = 4.e-3,
(PID.TID 0000.0001) >  GM_Sd              = 1.e-3,
(PID.TID 0000.0001) ># GM_Visbeck_alpha   = 0.,
(PID.TID 0000.0001) ># GM_Visbeck_length  = 2.e+5,
(PID.TID 0000.0001) ># GM_Visbeck_depth   = 1.e+3,
(PID.TID 0000.0001) ># GM_Visbeck_maxval_K= 2.5e+3,
(PID.TID 0000.0001) > &
(PID.TID 0000.0001) >
(PID.TID 0000.0001) >
(PID.TID 0000.0001) 
(PID.TID 0000.0001)  GM_READPARMS: finished reading data.gmredi
(PID.TID 0000.0001) SET_PARMS: done
(PID.TID 0000.0001) Enter INI_VERTICAL_GRID: setInterFDr=    T ; setCenterDr=    F
(PID.TID 0000.0001) %MON XC_max                       =   3.5800000000000E+02
(PID.TID 0000.0001) %MON XC_min                       =   2.0000000000000E+00
(PID.TID 0000.0001) %MON XC_mean                      =   1.8000000000000E+02
(PID.TID 0000.0001) %MON XC_sd                        =   1.0391663325314E+02
(PID.TID 0000.0001) %MON XG_max                       =   3.5600000000000E+02
(PID.TID 0000.0001) %MON XG_min                       =   0.0000000000000E+00
(PID.TID 0000.0001) %MON XG_mean                      =   1.7800000000000E+02
(PID.TID 0000.0001) %MON XG_sd                        =   1.0391663325314E+02
(PID.TID 0000.0001) %MON DXC_max                      =   4.4443898815675E+05
(PID.TID 0000.0001) %MON DXC_min                      =   9.2460385861875E+04
(PID.TID 0000.0001) %MON DXC_mean                     =   3.1372497618153E+05
(PID.TID 0000.0001) %MON DXC_sd                       =   1.1216447457560E+05
(PID.TID 0000.0001) %MON DXF_max                      =   4.4443898815675E+05
(PID.TID 0000.0001) %MON DXF_min                      =   9.2460385861875E+04
(PID.TID 0000.0001) %MON DXF_mean                     =   3.1372497618153E+05
(PID.TID 0000.0001) %MON DXF_sd                       =   1.1216447457560E+05
(PID.TID 0000.0001) %MON DXG_max                      =   4.4470989340816E+05
(PID.TID 0000.0001) %MON DXG_min                      =   7.7223062580781E+04
(PID.TID 0000.0001) %MON DXG_mean                     =   3.1353386340260E+05
(PID.TID 0000.0001) %MON DXG_sd                       =   1.1256651772502E+05
(PID.TID 0000.0001) %MON DXV_max                      =   4.4470989340816E+05
(PID.TID 0000.0001) %MON DXV_min                      =   7.7223062580781E+04
(PID.TID 0000.0001) %MON DXV_mean                     =   3.1353386340260E+05
(PID.TID 0000.0001) %MON DXV_sd                       =   1.1256651772502E+05
(PID.TID 0000.0001) %MON YC_max                       =   7.8000000000000E+01
(PID.TID 0000.0001) %MON YC_min                       =  -7.8000000000000E+01
(PID.TID 0000.0001) %MON YC_mean                      =   0.0000000000000E+00
(PID.TID 0000.0001) %MON YC_sd                        =   4.6173585522461E+01
(PID.TID 0000.0001) %MON YG_max                       =   7.6000000000000E+01
(PID.TID 0000.0001) %MON YG_min                       =  -8.0000000000000E+01
(PID.TID 0000.0001) %MON YG_mean                      =  -2.0000000000000E+00
(PID.TID 0000.0001) %MON YG_sd                        =   4.6173585522461E+01
(PID.TID 0000.0001) %MON DYC_max                      =   4.4470989340816E+05
(PID.TID 0000.0001) %MON DYC_min                      =   4.4470989340816E+05
(PID.TID 0000.0001) %MON DYC_mean                     =   4.4470989340814E+05
(PID.TID 0000.0001) %MON DYC_sd                       =   1.9848812371492E-08
(PID.TID 0000.0001) %MON DYF_max                      =   4.4470989340816E+05
(PID.TID 0000.0001) %MON DYF_min                      =   4.4470989340816E+05
(PID.TID 0000.0001) %MON DYF_mean                     =   4.4470989340814E+05
(PID.TID 0000.0001) %MON DYF_sd                       =   1.9848812371492E-08
(PID.TID 0000.0001) %MON DYG_max                      =   4.4470989340816E+05
(PID.TID 0000.0001) %MON DYG_min                      =   4.4470989340816E+05
(PID.TID 0000.0001) %MON DYG_mean                     =   4.4470989340814E+05
(PID.TID 0000.0001) %MON DYG_sd                       =   1.9848812371492E-08
(PID.TID 0000.0001) %MON DYU_max                      =   4.4470989340816E+05
(PID.TID 0000.0001) %MON DYU_min                      =   4.4470989340816E+05
(PID.TID 0000.0001) %MON DYU_mean                     =   4.4470989340814E+05
(PID.TID 0000.0001) %MON DYU_sd                       =   1.9848812371492E-08
(PID.TID 0000.0001) %MON RA_max                       =   1.9760627980089E+11
(PID.TID 0000.0001) %MON RA_min                       =   4.1109698667290E+10
(PID.TID 0000.0001) %MON RA_mean                      =   1.3948826965197E+11
(PID.TID 0000.0001) %MON RA_sd                        =   4.9870522472902E+10
(PID.TID 0000.0001) %MON RAW_max                      =   1.9760627980089E+11
(PID.TID 0000.0001) %MON RAW_min                      =   4.1109698667290E+10
(PID.TID 0000.0001) %MON RAW_mean                     =   1.3948826965197E+11
(PID.TID 0000.0001) %MON RAW_sd                       =   4.9870522472902E+10
(PID.TID 0000.0001) %MON RAS_max                      =   1.9772672958215E+11
(PID.TID 0000.0001) %MON RAS_min                      =   3.4334886267983E+10
(PID.TID 0000.0001) %MON RAS_mean                     =   1.3940329716694E+11
(PID.TID 0000.0001) %MON RAS_sd                       =   5.0049278732354E+10
(PID.TID 0000.0001) %MON RAZ_max                      =   1.9772672958215E+11
(PID.TID 0000.0001) %MON RAZ_min                      =   3.4334886267983E+10
(PID.TID 0000.0001) %MON RAZ_mean                     =   1.3940329716694E+11
(PID.TID 0000.0001) %MON RAZ_sd                       =   5.0049278732354E+10
(PID.TID 0000.0001) %MON AngleCS_max                  =   1.0000000000000E+00
(PID.TID 0000.0001) %MON AngleCS_min                  =   1.0000000000000E+00
(PID.TID 0000.0001) %MON AngleCS_mean                 =   1.0000000000000E+00
(PID.TID 0000.0001) %MON AngleCS_sd                   =   0.0000000000000E+00
(PID.TID 0000.0001) %MON AngleSN_max                  =   0.0000000000000E+00
(PID.TID 0000.0001) %MON AngleSN_min                  =   0.0000000000000E+00
(PID.TID 0000.0001) %MON AngleSN_mean                 =   0.0000000000000E+00
(PID.TID 0000.0001) %MON AngleSN_sd                   =   0.0000000000000E+00
(PID.TID 0000.0001)  MDS_WRITEVEC_LOC: open file: RhoRef.data
(PID.TID 0000.0001)  MDS_WR_REC_RL: iRec,Dim =         1         15
(PID.TID 0000.0001)  MDS_READ_FIELD: opening global file: bathymetry.bin
(PID.TID 0000.0001) // =======================================================
(PID.TID 0000.0001) // Field Bottom depths (ini_depths)
(PID.TID 0000.0001) // CMIN =         -5.200000000000000E+03
(PID.TID 0000.0001) // CMAX =         -1.200000000000000E+02
(PID.TID 0000.0001) // CINT =          1.881481481481482E+02
(PID.TID 0000.0001) // SYMBOLS (CMIN->CMAX): -abcdefghijklmnopqrstuvwxyz+
(PID.TID 0000.0001) //                  0.0: .
(PID.TID 0000.0001) // RANGE I (Lo:Hi:Step):(    -1:    92:     1)
(PID.TID 0000.0001) // RANGE J (Lo:Hi:Step):(    42:    -1:    -1)
(PID.TID 0000.0001) // RANGE K (Lo:Hi:Step):(   1:   1:   1)
(PID.TID 0000.0001) // =======================================================
(PID.TID 0000.0001) K =   1
(PID.TID 0000.0001) //                I=8       I=18      I=28      I=38      I=48      I=58      I=68      I=78      I=88
(PID.TID 0000.0001) // |--J--|101234567|901234567|901234567|901234567|901234567|901234567|901234567|901234567|901234567|9012
(PID.TID 0000.0001) //     42 ............................................zyxxmgfeeefefgimnpwwwy..+zyy.....yyyyoiiihhz+.....
(PID.TID 0000.0001) //     41 ..............................................................................................
(PID.TID 0000.0001) //     40 qlloqz+.++++zzz++++++..................................................................+++qllo
(PID.TID 0000.0001) //     39 slloorzzzzzzzzz+...++.....................................................yxxz........+zvusllo
(PID.TID 0000.0001) //     38 mqpporzzzzzz+++...........................................................zxxy+......zyyvsmqpp
(PID.TID 0000.0001) //     37 mmmuz..................................................................++...zy+...zttyy.+smmmu
(PID.TID 0000.0001) //     36 utt+.........................................mm++....................+++++++znmm.zoowssvuyutt+
(PID.TID 0000.0001) //     35 ++++.................................+zzz..rrmmkk+...+gghn...........+++....+nmiijlsoopuww++++
(PID.TID 0000.0001) //     34 .....................................+vvy.ggqyxv+z.ccdffhim..................+nihhikkihhm+....
(PID.TID 0000.0001) //     33 +.....................................uuz---h------aaabdefin+.................zqvddflifffw+...
(PID.TID 0000.0001) //     32 +.....................................+t----h---------acdfgnn................+++gdffkofffm+...
(PID.TID 0000.0001) //     31 ......................................-----ad--------abddegil..............qbaafccdhqqgddm....
(PID.TID 0000.0001) //     30 .....................................f----b--b------------abd............zfbb--fbcdosjfddi....
(PID.TID 0000.0001) //     29 ...................................tu----e---fjg----------abdf...........eaac--abfmijaadgi....
(PID.TID 0000.0001) //     28 .................................+xfl-------------------bdedefi.........qbaa---aemfbbaaejz....
(PID.TID 0000.0001) //     27 ................xx..............+wfgfpf--------eallc---bbbccefgi...+++y.qb-----akfa---ah......
(PID.TID 0000.0001) //     26 ................xnn...........+vd---dna------a--aicfna---aabdfghku.++xssuy-----bgca---ci......
(PID.TID 0000.0001) //     25 ................iiik...oo+...+ivd---doaa-bc--ilglf--aa---aabcghhkll...ssum+xaaacjbaabdjk......
(PID.TID 0000.0001) //     24 ..............xnheeft.kkk+...uii.aagdm----aa-----a-------bbbcdefjljjju.zummwwbbchba--abi......
(PID.TID 0000.0001) //     23 ..............xgheefp.iikw...uuw..fihi----fed-----eaaa--bbbbcdfflkjiiiq....zykccefa--abd......
(PID.TID 0000.0001) //     22 uss...........bbelffslffkk...zz.wqkeeqoheccdfa-----egabaabcdddegghliiiqq......xeeehheehccquss.
(PID.TID 0000.0001) //     21 bbeir........nbbcdjhqdddiiz.....wqfeelgghmedea-----bibbcddddddefghklnqoo........ieeflhgcccbbei
(PID.TID 0000.0001) //     20 bbder.......ldcccdgkccccidd......z.vkkktqqhegg----aaacddddddddefghkiiijl.........nhfa--gfcbbde
(PID.TID 0000.0001) //     19 cdaaf.......kddosggpaaaibbccx...+z+.....r+nlec---agaaabcddddddefikfgffff...........d---cjhcdaa
(PID.TID 0000.0001) //     18 d---d.......kglggvliaaaibbcaaeaiv++...qqzolhecccfdgkaabcdfdddeeikgfgffdd+..........d---djhd---
(PID.TID 0000.0001) //     17 c---c.......l.feewlfaaaoaa----aiv.....qqnllslmlofcdbaacceffffhhligfigeddj.........hd---ckhc---
(PID.TID 0000.0001) //     16 ba--c......tn.ddgnlfdaaqa-----lv.......vnllvllnwv--accivomfffhilhgfffeddjf........re--aeigba--
(PID.TID 0000.0001) //     15 b--dpz....+ll.ccdfhmdddlc----av.........otsxoomv---abccddfihgijkhgfffeejfff......+fd---ckfb--d
(PID.TID 0000.0001) //     14 c--mcl....weeqbaafilkfend--eagy.........hhstofft----aacdheefijkmjhhjijiffff.....zlfdaaadlfc--m
(PID.TID 0000.0001) //     13 cclbbg....nccobaaiddgkffqrqeaal.........eeutqfft------aaceeffhijlkjhhigfffq....+jgfodccflhcclb
(PID.TID 0000.0001) //     12 hgaaacw+iiicclemhdddfliigfdcaabfaaaz....ccsurqpc--------abcifffikiiihhggff.....kbbbdfffglhhgaa
(PID.TID 0000.0001) //     11 gcaaacbbifccennhbbdefnihgfdccaaaa----..dcccnt.ncab-------aabcdfilhggjiggff....l---abcefjlkgcaa
(PID.TID 0000.0001) //     10 fcaaccbdaacfrllfbbdegkmmljhfdddba----d.dcccfx.nyrebaba----abcdgilhfeegijgi..+w--aa-abcfilkfcaa
(PID.TID 0000.0001) //      9 ffcdcccaaaoqsolfdeehikihhlllgfedcccccdmdcccf.vyfaaaaaaaa--abdehmjhfeeefglv.++w-----abcdfklffcd
(PID.TID 0000.0001) //      8 iffjklcaafddffeeccvznkfffhhhlkjifgjkkfeeddfsyvcaaaaaaccdcccdfgjligedbbdeg+.++xffn--cfddefliffj
(PID.TID 0000.0001) //      7 mqnnbbkkf--bmbaabbgtykfddeffeeddccdfhlffeelfbaaaaaacddeghgjgjlligeddaaabedfiiiiiisvkfkecchmqnn
(PID.TID 0000.0001) //      6 ca-------------aabdelttdddedddddccccdfkkiiffbaaaabcdgimmkmefecaaabbbaaabbdfiiiiispmmregifcca--
(PID.TID 0000.0001) //      5 -------a-------aacdehhhiddeddddddcccdfiikomodddefffmlmigedccaaaaaaaababbbdfiijsqgeccccbaa-----
(PID.TID 0000.0001) //      4 -ahebaabbbbbeihffgijiiiijpywnnpokkomkiiijmmmolkommmgffeeedccaaaaaabbcccefhmz..yjgeccccbaa--ahe
(PID.TID 0000.0001) //      3 ffhhrpjiiwyy............................yyotmjjjjgfeeeeeeddeffffheddeghjkzz..yqjgeddccdbbgffhh
(PID.TID 0000.0001) //      2 ............................................zyxxmgfeeefefgimnpwwwy..+zyy.....yyyyoiiihhz+.....
(PID.TID 0000.0001) //      1 ..............................................................................................
(PID.TID 0000.0001) //      0 qlloqz+.++++zzz++++++..................................................................+++qllo
(PID.TID 0000.0001) //     -1 slloorzzzzzzzzz+...++.....................................................yxxz........+zvusllo
(PID.TID 0000.0001) // =======================================================
(PID.TID 0000.0001) // END OF FIELD                                          =
(PID.TID 0000.0001) // =======================================================
(PID.TID 0000.0001) 
(PID.TID 0000.0001) // =======================================================
(PID.TID 0000.0001) // Field Surface reference r-position (ini_depths)
(PID.TID 0000.0001) // CMIN =          1.000000000000000E+32
(PID.TID 0000.0001) // CMAX =         -1.000000000000000E+32
(PID.TID 0000.0001) // CINT =          0.000000000000000E+00
(PID.TID 0000.0001) // SYMBOLS (CMIN->CMAX): -abcdefghijklmnopqrstuvwxyz+
(PID.TID 0000.0001) //                  0.0: .
(PID.TID 0000.0001) // RANGE I (Lo:Hi:Step):(    -1:    92:     1)
(PID.TID 0000.0001) // RANGE J (Lo:Hi:Step):(    42:    -1:    -1)
(PID.TID 0000.0001) // RANGE K (Lo:Hi:Step):(   1:   1:   1)
(PID.TID 0000.0001) // =======================================================
(PID.TID 0000.0001) // =======================================================
(PID.TID 0000.0001) // END OF FIELD                                          =
(PID.TID 0000.0001) // =======================================================
(PID.TID 0000.0001) 
(PID.TID 0000.0001) // =======================================================
(PID.TID 0000.0001) // Field Model R_low (ini_masks_etc)
(PID.TID 0000.0001) // CMIN =         -5.200000000000000E+03
(PID.TID 0000.0001) // CMAX =         -1.200000000000000E+02
(PID.TID 0000.0001) // CINT =          1.881481481481482E+02
(PID.TID 0000.0001) // SYMBOLS (CMIN->CMAX): -abcdefghijklmnopqrstuvwxyz+
(PID.TID 0000.0001) //                  0.0: .
(PID.TID 0000.0001) // RANGE I (Lo:Hi:Step):(    -1:    92:     1)
(PID.TID 0000.0001) // RANGE J (Lo:Hi:Step):(    42:    -1:    -1)
(PID.TID 0000.0001) // RANGE K (Lo:Hi:Step):(   1:   1:   1)
(PID.TID 0000.0001) // =======================================================
(PID.TID 0000.0001) K =   1
(PID.TID 0000.0001) //                I=8       I=18      I=28      I=38      I=48      I=58      I=68      I=78      I=88
(PID.TID 0000.0001) // |--J--|101234567|901234567|901234567|901234567|901234567|901234567|901234567|901234567|901234567|9012
(PID.TID 0000.0001) //     42 ............................................zyxxmgfeeefefgimnpwwwy..+zyy.....yyyyoiiihhz+.....
(PID.TID 0000.0001) //     41 ..............................................................................................
(PID.TID 0000.0001) //     40 qlloqz+.++++zzz++++++..................................................................+++qllo
(PID.TID 0000.0001) //     39 slloorzzzzzzzzz+...++.....................................................yxxz........+zvusllo
(PID.TID 0000.0001) //     38 mqpporzzzzzz+++...........................................................zxxy+......zyyvsmqpp
(PID.TID 0000.0001) //     37 mmmuz..................................................................++...zy+...yttyy.+smmmu
(PID.TID 0000.0001) //     36 utt+.........................................mm++....................+++++++znmm.yoowssvuyutt+
(PID.TID 0000.0001) //     35 ++++.................................+zzz..rrmmkk+...+gghn...........+++....+nmiijlsoopuww++++
(PID.TID 0000.0001) //     34 .....................................+vvy.ggqyxv+y.ccdffhim..................+nihhikkihhm+....
(PID.TID 0000.0001) //     33 +.....................................uuz---h------aaabdefin+.................zqvddflifffw+...
(PID.TID 0000.0001) //     32 +.....................................+t----h---------acdfgnn................+++gdffkofffm+...
(PID.TID 0000.0001) //     31 ......................................-----ad--------abddegil..............qbaafccdhqqgddm....
(PID.TID 0000.0001) //     30 .....................................f----b--b------------abd............zfbb--fbcdosjfddi....
(PID.TID 0000.0001) //     29 ...................................tu----e---fjg----------abdf...........eaac--abfmijaadgi....
(PID.TID 0000.0001) //     28 .................................+xfl-------------------bdedefi.........qbaa---aemfbbaaejz....
(PID.TID 0000.0001) //     27 ................xx..............+wfgfpf--------eallc---bbbccefgi...+++x.qb-----akfa---ah......
(PID.TID 0000.0001) //     26 ................xnn...........+vd---dna------a--aicfna---aabdfghku.++xssuy-----bgca---ci......
(PID.TID 0000.0001) //     25 ................iiik...oo+...+ivd---doaa-bc--ilglf--aa---aabcghhkll...ssum+xaaacjbaabdjk......
(PID.TID 0000.0001) //     24 ..............xnheeft.kkk+...uii.aagdm----aa-----a-------bbbcdefjljjju.zummwwbbchba--abi......
(PID.TID 0000.0001) //     23 ..............xgheefp.iikw...uuw..fihi----fed-----eaaa--bbbbcdfflkjiiiq....zykccefa--abd......
(PID.TID 0000.0001) //     22 uss...........bbelffslffkk...zz.wqkeeqoheccdfa-----egabaabcdddegghliiiqq......xeeehheehccquss.
(PID.TID 0000.0001) //     21 bbeir........nbbcdjhqdddiiz.....wqfeelgghmedea-----bibbcddddddefghklnqoo........ieeflhgcccbbei
(PID.TID 0000.0001) //     20 bbder.......ldcccdgkccccidd......z.vkkktqqhegg----aaacddddddddefghkiiijl.........nhfa--gfcbbde
(PID.TID 0000.0001) //     19 cdaaf.......kddosggpaaaibbccx...+z+.....r+nlec---agaaabcddccddefikfgffff...........d---cjhcdaa
(PID.TID 0000.0001) //     18 d---d.......kglggvliaaaibbcaaeaiv++...qqzolhecccfdgkaabcdfccdeeikgfgffdd+..........d---djhd---
(PID.TID 0000.0001) //     17 c---c.......l.feewlfaaaoaa----aiv.....qqnllslmlofcdbaacceffffhhligfigeddj.........hd---ckhc---
(PID.TID 0000.0001) //     16 ba--c......tn.ddgnlfdaaqa-----lv.......vnllvllnwv--accivomfffhilhgfffeddjf........re--aeigba--
(PID.TID 0000.0001) //     15 b--dpz....+ll.ccdfhmdddlc----av.........otsxoomv---abccddfihgijkhgfffeejfff......+fd---ckfb--d
(PID.TID 0000.0001) //     14 c--mcl....weeqbaafilkfend--eagy.........hhstofft----aacdheefijkmjhhjijiffff.....zlfdaaadlfc--m
(PID.TID 0000.0001) //     13 cclbbg....nccobaaiddgkffqrqeaal.........eeutqfft------aaceeffhijlkjhhigfffq....+jgfodccflhcclb
(PID.TID 0000.0001) //     12 hgaaacw+iiicclemhdddfliigfdcaabfaaaz....ccsurqpc--------abcifffikiiihhggff.....kbbbdfffglhhgaa
(PID.TID 0000.0001) //     11 gcaaacbbifccennhbbdefnihgfdccaaaa----..dcccnt.ncab-------aabcdfilhggjiggff....l---abcefjlkgcaa
(PID.TID 0000.0001) //     10 fcaaccbdaacfrllfbbdegkmmljhfdddba----d.dcccfx.nyrebaba----abcdgilhfeegijgi..+w--aa-abcfilkfcaa
(PID.TID 0000.0001) //      9 ffcdcccaaaoqsolfdeehikihhlllgfedcccccdmdcccf.vyfaaaaaaaa--abdehmjhfeeefglv.++w-----abcdfklffcd
(PID.TID 0000.0001) //      8 iffjklcaafddffeeccvznkfffhhhlkjifgjkkfeeddfsyvcaaaaaaccdcccdfgjligedbbceg+.++xffn--cfddefliffj
(PID.TID 0000.0001) //      7 mqnnbbkkf--bmbaabbgtykfddeffeeddccdfhlffeelfbaaaaaacddeghgjgjlligeddaaabedfiiiiiisvkfkecchmqnn
(PID.TID 0000.0001) //      6 ca-------------aabcelttdddedddddccccdfkkiiffbaaaabcdgimmkmefecaaabbbaaabbdfiiiiispmmregifcca--
(PID.TID 0000.0001) //      5 -------a-------aaccehhhiddeddddddcccdfiikomodddefffmlmigedccaaaaaaaababbbdfiijsqgeccccbaa-----
(PID.TID 0000.0001) //      4 -ahebaabbbbbeihffgijiiiijpywnnpokkomkiiijmmmolkommmgffeeedccaaaaaabbcccefhmz..yjgeccccbaa--ahe
(PID.TID 0000.0001) //      3 ffhhrpjiiwyy............................yxotmjjjjgfeeeeeeddeffffheddeghjkyy..yqjgeddccdbbgffhh
(PID.TID 0000.0001) //      2 ............................................zyxxmgfeeefefgimnpwwwy..+zyy.....yyyyoiiihhz+.....
(PID.TID 0000.0001) //      1 ..............................................................................................
(PID.TID 0000.0001) //      0 qlloqz+.++++zzz++++++..................................................................+++qllo
(PID.TID 0000.0001) //     -1 slloorzzzzzzzzz+...++.....................................................yxxz........+zvusllo
(PID.TID 0000.0001) // =======================================================
(PID.TID 0000.0001) // END OF FIELD                                          =
(PID.TID 0000.0001) // =======================================================
(PID.TID 0000.0001) 
(PID.TID 0000.0001) // =======================================================
(PID.TID 0000.0001) // Field Model Ro_surf (ini_masks_etc)
(PID.TID 0000.0001) // CMIN =          1.000000000000000E+32
(PID.TID 0000.0001) // CMAX =         -1.000000000000000E+32
(PID.TID 0000.0001) // CINT =          0.000000000000000E+00
(PID.TID 0000.0001) // SYMBOLS (CMIN->CMAX): -abcdefghijklmnopqrstuvwxyz+
(PID.TID 0000.0001) //                  0.0: .
(PID.TID 0000.0001) // RANGE I (Lo:Hi:Step):(    -1:    92:     1)
(PID.TID 0000.0001) // RANGE J (Lo:Hi:Step):(    42:    -1:    -1)
(PID.TID 0000.0001) // RANGE K (Lo:Hi:Step):(   1:   1:   1)
(PID.TID 0000.0001) // =======================================================
(PID.TID 0000.0001) // =======================================================
(PID.TID 0000.0001) // END OF FIELD                                          =
(PID.TID 0000.0001) // =======================================================
(PID.TID 0000.0001) 
(PID.TID 0000.0001) // =======================================================
(PID.TID 0000.0001) // Field hFacC at iteration          0
(PID.TID 0000.0001) // CMIN =          1.000000000000000E+00
(PID.TID 0000.0001) // CMAX =          1.000000000000000E+00
(PID.TID 0000.0001) // CINT =          0.000000000000000E+00
(PID.TID 0000.0001) // SYMBOLS (CMIN->CMAX): -abcdefghijklmnopqrstuvwxyz+
(PID.TID 0000.0001) //                  0.0: .
(PID.TID 0000.0001) // RANGE I (Lo:Hi:Step):(    -1:    92:     1)
(PID.TID 0000.0001) // RANGE J (Lo:Hi:Step):(    42:    -1:    -1)
(PID.TID 0000.0001) // RANGE K (Lo:Hi:Step):(   1:   1:   1)
(PID.TID 0000.0001) // =======================================================
(PID.TID 0000.0001) // =======================================================
(PID.TID 0000.0001) // END OF FIELD                                          =
(PID.TID 0000.0001) // =======================================================
(PID.TID 0000.0001) 
(PID.TID 0000.0001) // =======================================================
(PID.TID 0000.0001) // Field hFacW at iteration          0
(PID.TID 0000.0001) // CMIN =          1.000000000000000E+00
(PID.TID 0000.0001) // CMAX =          1.000000000000000E+00
(PID.TID 0000.0001) // CINT =          0.000000000000000E+00
(PID.TID 0000.0001) // SYMBOLS (CMIN->CMAX): -abcdefghijklmnopqrstuvwxyz+
(PID.TID 0000.0001) //                  0.0: .
(PID.TID 0000.0001) // RANGE I (Lo:Hi:Step):(    -1:    92:     1)
(PID.TID 0000.0001) // RANGE J (Lo:Hi:Step):(    42:    -1:    -1)
(PID.TID 0000.0001) // RANGE K (Lo:Hi:Step):(   1:   1:   1)
(PID.TID 0000.0001) // =======================================================
(PID.TID 0000.0001) // =======================================================
(PID.TID 0000.0001) // END OF FIELD                                          =
(PID.TID 0000.0001) // =======================================================
(PID.TID 0000.0001) 
(PID.TID 0000.0001) // =======================================================
(PID.TID 0000.0001) // Field hFacS at iteration          0
(PID.TID 0000.0001) // CMIN =          1.000000000000000E+00
(PID.TID 0000.0001) // CMAX =          1.000000000000000E+00
(PID.TID 0000.0001) // CINT =          0.000000000000000E+00
(PID.TID 0000.0001) // SYMBOLS (CMIN->CMAX): -abcdefghijklmnopqrstuvwxyz+
(PID.TID 0000.0001) //                  0.0: .
(PID.TID 0000.0001) // RANGE I (Lo:Hi:Step):(    -1:    92:     1)
(PID.TID 0000.0001) // RANGE J (Lo:Hi:Step):(    42:    -1:    -1)
(PID.TID 0000.0001) // RANGE K (Lo:Hi:Step):(   1:   1:   1)
(PID.TID 0000.0001) // =======================================================
(PID.TID 0000.0001) // =======================================================
(PID.TID 0000.0001) // END OF FIELD                                          =
(PID.TID 0000.0001) // =======================================================
(PID.TID 0000.0001) 
(PID.TID 0000.0001) GAD_INIT_FIXED: GAD_OlMinSize=  1  0  1
(PID.TID 0000.0001) 
(PID.TID 0000.0001) // ===================================
(PID.TID 0000.0001) // GAD parameters :
(PID.TID 0000.0001) // ===================================
(PID.TID 0000.0001) tempAdvScheme =   /* Temp. Horiz.Advection scheme selector */
(PID.TID 0000.0001)                       2
(PID.TID 0000.0001)     ;
(PID.TID 0000.0001) tempVertAdvScheme =   /* Temp. Vert. Advection scheme selector */
(PID.TID 0000.0001)                       2
(PID.TID 0000.0001)     ;
(PID.TID 0000.0001) tempMultiDimAdvec =   /* use Muti-Dim Advec method for Temp */
(PID.TID 0000.0001)                   F
(PID.TID 0000.0001)     ;
(PID.TID 0000.0001) tempSOM_Advection = /* use 2nd Order Moment Advection for Temp */
(PID.TID 0000.0001)                   F
(PID.TID 0000.0001)     ;
(PID.TID 0000.0001) AdamsBashforthGt = /* apply Adams-Bashforth extrapolation on Gt */
(PID.TID 0000.0001)                   T
(PID.TID 0000.0001)     ;
(PID.TID 0000.0001) AdamsBashforth_T = /* apply Adams-Bashforth extrapolation on Temp */
(PID.TID 0000.0001)                   F
(PID.TID 0000.0001)     ;
(PID.TID 0000.0001) saltAdvScheme =   /* Salt. Horiz.advection scheme selector */
(PID.TID 0000.0001)                       2
(PID.TID 0000.0001)     ;
(PID.TID 0000.0001) saltVertAdvScheme =   /* Salt. Vert. Advection scheme selector */
(PID.TID 0000.0001)                       2
(PID.TID 0000.0001)     ;
(PID.TID 0000.0001) saltMultiDimAdvec =   /* use Muti-Dim Advec method for Salt */
(PID.TID 0000.0001)                   F
(PID.TID 0000.0001)     ;
(PID.TID 0000.0001) saltSOM_Advection = /* use 2nd Order Moment Advection for Salt */
(PID.TID 0000.0001)                   F
(PID.TID 0000.0001)     ;
(PID.TID 0000.0001) AdamsBashforthGs = /* apply Adams-Bashforth extrapolation on Gs */
(PID.TID 0000.0001)                   T
(PID.TID 0000.0001)     ;
(PID.TID 0000.0001) AdamsBashforth_S = /* apply Adams-Bashforth extrapolation on Salt */
(PID.TID 0000.0001)                   F
(PID.TID 0000.0001)     ;
(PID.TID 0000.0001) // ===================================
(PID.TID 0000.0001) %MON fCori_max                    =   1.4265546244797E-04
(PID.TID 0000.0001) %MON fCori_min                    =  -1.4265546244797E-04
(PID.TID 0000.0001) %MON fCori_mean                   =  -1.2347858075529E-21
(PID.TID 0000.0001) %MON fCori_sd                     =   9.6599226301547E-05
(PID.TID 0000.0001) %MON fCoriG_max                   =   1.4151032568025E-04
(PID.TID 0000.0001) %MON fCoriG_min                   =  -1.4362679550910E-04
(PID.TID 0000.0001) %MON fCoriG_mean                  =  -3.5906698877274E-06
(PID.TID 0000.0001) %MON fCoriG_sd                    =   9.6548915696244E-05
(PID.TID 0000.0001) %MON fCoriCos_max                 =   1.4575362704741E-04
(PID.TID 0000.0001) %MON fCoriCos_min                 =   3.0322354601388E-05
(PID.TID 0000.0001) %MON fCoriCos_mean                =   1.0288600773632E-04
(PID.TID 0000.0001) %MON fCoriCos_sd                  =   3.6784304327266E-05
(PID.TID 0000.0001) INI_CG2D: CG2D normalisation factor =  6.5682677425711703E-05
(PID.TID 0000.0001) 
(PID.TID 0000.0001) // =======================================================
(PID.TID 0000.0001) // Model configuration
(PID.TID 0000.0001) // =======================================================
(PID.TID 0000.0001) //
(PID.TID 0000.0001) // "Physical" paramters ( PARM01 in namelist )
(PID.TID 0000.0001) //
(PID.TID 0000.0001) buoyancyRelation = /* Type of relation to get Buoyancy */
(PID.TID 0000.0001)               'OCEANIC'
(PID.TID 0000.0001)     ;
(PID.TID 0000.0001) fluidIsAir   =  /* fluid major constituent is Air */
(PID.TID 0000.0001)                   F
(PID.TID 0000.0001)     ;
(PID.TID 0000.0001) fluidIsWater =  /* fluid major constituent is Water */
(PID.TID 0000.0001)                   T
(PID.TID 0000.0001)     ;
(PID.TID 0000.0001) usingPCoords =  /* use p (or p*) vertical coordinate */
(PID.TID 0000.0001)                   F
(PID.TID 0000.0001)     ;
(PID.TID 0000.0001) usingZCoords =  /* use z (or z*) vertical coordinate */
(PID.TID 0000.0001)                   T
(PID.TID 0000.0001)     ;
(PID.TID 0000.0001) tRef =   /* Reference temperature profile ( oC or K ) */
(PID.TID 0000.0001)    15 @  2.000000000000000E+01              /* K =  1: 15 */
(PID.TID 0000.0001)     ;
(PID.TID 0000.0001) sRef =   /* Reference salinity profile ( g/kg ) */
(PID.TID 0000.0001)    15 @  3.500000000000000E+01              /* K =  1: 15 */
(PID.TID 0000.0001)     ;
(PID.TID 0000.0001) useStrainTensionVisc= /* Use StrainTension Form of Viscous Operator */
(PID.TID 0000.0001)                   F
(PID.TID 0000.0001)     ;
(PID.TID 0000.0001) useVariableVisc = /* Use variable horizontal viscosity */
(PID.TID 0000.0001)                   F
(PID.TID 0000.0001)     ;
(PID.TID 0000.0001) useHarmonicVisc = /* Use harmonic horizontal viscosity */
(PID.TID 0000.0001)                   T
(PID.TID 0000.0001)     ;
(PID.TID 0000.0001) useBiharmonicVisc= /* Use biharmonic horiz.  viscosity */
(PID.TID 0000.0001)                   F
(PID.TID 0000.0001)     ;
(PID.TID 0000.0001) useSmag3D = /* Use isotropic 3-D Smagorinsky viscosity */
(PID.TID 0000.0001)                   F
(PID.TID 0000.0001)     ;
(PID.TID 0000.0001) viscAh  =   /* Lateral harmonic viscosity ( m^2/s ) */
(PID.TID 0000.0001)                 5.000000000000000E+05
(PID.TID 0000.0001)     ;
(PID.TID 0000.0001) viscA4  =   /* Lateral biharmonic viscosity ( m^4/s ) */
(PID.TID 0000.0001)                 0.000000000000000E+00
(PID.TID 0000.0001)     ;
(PID.TID 0000.0001) no_slip_sides =  /* Viscous BCs: No-slip sides */
(PID.TID 0000.0001)                   T
(PID.TID 0000.0001)     ;
(PID.TID 0000.0001) sideDragFactor = /* side-drag scaling factor (non-dim) */
(PID.TID 0000.0001)                 2.000000000000000E+00
(PID.TID 0000.0001)     ;
(PID.TID 0000.0001) viscArNr = /* vertical profile of vertical viscosity ( m^2/s )*/
(PID.TID 0000.0001)    15 @  1.000000000000000E-03              /* K =  1: 15 */
(PID.TID 0000.0001)     ;
(PID.TID 0000.0001) no_slip_bottom =  /* Viscous BCs: No-slip bottom */
(PID.TID 0000.0001)                   T
(PID.TID 0000.0001)     ;
(PID.TID 0000.0001) bottomVisc_pCell = /* Partial-cell in bottom Visc. BC */
(PID.TID 0000.0001)                   F
(PID.TID 0000.0001)     ;
(PID.TID 0000.0001) bottomDragLinear = /* linear bottom-drag coefficient ( m/s ) */
(PID.TID 0000.0001)                 0.000000000000000E+00
(PID.TID 0000.0001)     ;
(PID.TID 0000.0001) bottomDragQuadratic = /* quadratic bottom-drag coefficient (-) */
(PID.TID 0000.0001)                 0.000000000000000E+00
(PID.TID 0000.0001)     ;
(PID.TID 0000.0001) selectBotDragQuadr = /* select quadratic bottom drag options */
(PID.TID 0000.0001)                      -1
(PID.TID 0000.0001)     ;
(PID.TID 0000.0001) diffKhT =   /* Laplacian diffusion of heat laterally ( m^2/s ) */
(PID.TID 0000.0001)                 0.000000000000000E+00
(PID.TID 0000.0001)     ;
(PID.TID 0000.0001) diffK4T =   /* Biharmonic diffusion of heat laterally ( m^4/s ) */
(PID.TID 0000.0001)                 0.000000000000000E+00
(PID.TID 0000.0001)     ;
(PID.TID 0000.0001) diffKhS =   /* Laplacian diffusion of salt laterally ( m^2/s ) */
(PID.TID 0000.0001)                 0.000000000000000E+00
(PID.TID 0000.0001)     ;
(PID.TID 0000.0001) diffK4S =   /* Biharmonic diffusion of salt laterally ( m^4/s ) */
(PID.TID 0000.0001)                 0.000000000000000E+00
(PID.TID 0000.0001)     ;
(PID.TID 0000.0001) diffKrNrT = /* vertical profile of vertical diffusion of Temp ( m^2/s )*/
(PID.TID 0000.0001)    15 @  3.000000000000000E-05              /* K =  1: 15 */
(PID.TID 0000.0001)     ;
(PID.TID 0000.0001) diffKrNrS = /* vertical profile of vertical diffusion of Salt ( m^2/s )*/
(PID.TID 0000.0001)    15 @  3.000000000000000E-05              /* K =  1: 15 */
(PID.TID 0000.0001)     ;
(PID.TID 0000.0001) diffKrBL79surf = /* Surface diffusion for Bryan and Lewis 79 ( m^2/s ) */
(PID.TID 0000.0001)                 0.000000000000000E+00
(PID.TID 0000.0001)     ;
(PID.TID 0000.0001) diffKrBL79deep = /* Deep diffusion for Bryan and Lewis 1979 ( m^2/s ) */
(PID.TID 0000.0001)                 0.000000000000000E+00
(PID.TID 0000.0001)     ;
(PID.TID 0000.0001) diffKrBL79scl = /* Depth scale for Bryan and Lewis 1979 ( m ) */
(PID.TID 0000.0001)                 2.000000000000000E+02
(PID.TID 0000.0001)     ;
(PID.TID 0000.0001) diffKrBL79Ho = /* Turning depth for Bryan and Lewis 1979 ( m ) */
(PID.TID 0000.0001)                -2.000000000000000E+03
(PID.TID 0000.0001)     ;
(PID.TID 0000.0001) ivdc_kappa = /* Implicit Vertical Diffusivity for Convection ( m^2/s) */
(PID.TID 0000.0001)                 1.000000000000000E+02
(PID.TID 0000.0001)     ;
(PID.TID 0000.0001) hMixCriteria=  /* Criteria for mixed-layer diagnostic */
(PID.TID 0000.0001)                -8.000000000000000E-01
(PID.TID 0000.0001)     ;
(PID.TID 0000.0001) dRhoSmall =  /* Parameter for mixed-layer diagnostic */
(PID.TID 0000.0001)                 1.000000000000000E-06
(PID.TID 0000.0001)     ;
(PID.TID 0000.0001) hMixSmooth=  /* Smoothing parameter for mixed-layer diagnostic */
(PID.TID 0000.0001)                 0.000000000000000E+00
(PID.TID 0000.0001)     ;
(PID.TID 0000.0001) eosType =  /* Type of Equation of State */
(PID.TID 0000.0001)               'JMD95Z'
(PID.TID 0000.0001)     ;
(PID.TID 0000.0001) eosRefP0 = /* Reference atmospheric pressure for EOS ( Pa ) */
(PID.TID 0000.0001)                 1.013250000000000E+05
(PID.TID 0000.0001)     ;
(PID.TID 0000.0001) selectP_inEOS_Zc = /* select pressure to use in EOS (0,1,2,3) */
(PID.TID 0000.0001)                       0
(PID.TID 0000.0001)     0= -g*rhoConst*z ; 1= pRef (from tRef,sRef); 2= Hyd P ; 3= Hyd+NH P
(PID.TID 0000.0001)     ;
(PID.TID 0000.0001) surf_pRef = /* Surface reference pressure ( Pa ) */
(PID.TID 0000.0001)                 1.013250000000000E+05
(PID.TID 0000.0001)     ;
(PID.TID 0000.0001) HeatCapacity_Cp =  /* Specific heat capacity ( J/kg/K ) */
(PID.TID 0000.0001)                 3.994000000000000E+03
(PID.TID 0000.0001)     ;
(PID.TID 0000.0001) celsius2K = /* 0 degree Celsius converted to Kelvin ( K ) */
(PID.TID 0000.0001)                 2.731500000000000E+02
(PID.TID 0000.0001)     ;
(PID.TID 0000.0001) rhoConst  = /* Reference density (Boussinesq)  ( kg/m^3 ) */
(PID.TID 0000.0001)                 1.035000000000000E+03
(PID.TID 0000.0001)     ;
(PID.TID 0000.0001) rhoFacC = /* normalized Reference density @ cell-Center (-) */
(PID.TID 0000.0001)    15 @  1.000000000000000E+00              /* K =  1: 15 */
(PID.TID 0000.0001)     ;
(PID.TID 0000.0001) rhoFacF = /* normalized Reference density @ W-Interface (-) */
(PID.TID 0000.0001)    16 @  1.000000000000000E+00              /* K =  1: 16 */
(PID.TID 0000.0001)     ;
(PID.TID 0000.0001) rhoConstFresh = /* Fresh-water reference density ( kg/m^3 ) */
(PID.TID 0000.0001)                 1.000000000000000E+03
(PID.TID 0000.0001)     ;
(PID.TID 0000.0001) gravity =   /* Gravitational acceleration ( m/s^2 ) */
(PID.TID 0000.0001)                 9.810000000000000E+00
(PID.TID 0000.0001)     ;
(PID.TID 0000.0001) gBaro =   /* Barotropic gravity ( m/s^2 ) */
(PID.TID 0000.0001)                 9.810000000000000E+00
(PID.TID 0000.0001)     ;
(PID.TID 0000.0001) gravFacC = /* gravity factor (vs surf.) @ cell-Center (-) */
(PID.TID 0000.0001)    15 @  1.000000000000000E+00              /* K =  1: 15 */
(PID.TID 0000.0001)     ;
(PID.TID 0000.0001) gravFacF = /* gravity factor (vs surf.) @ W-Interface (-) */
(PID.TID 0000.0001)    16 @  1.000000000000000E+00              /* K =  1: 16 */
(PID.TID 0000.0001)     ;
(PID.TID 0000.0001) rotationPeriod =   /* Rotation Period ( s ) */
(PID.TID 0000.0001)                 8.616400000000000E+04
(PID.TID 0000.0001)     ;
(PID.TID 0000.0001) omega =   /* Angular velocity ( rad/s ) */
(PID.TID 0000.0001)                 7.292123516990375E-05
(PID.TID 0000.0001)     ;
(PID.TID 0000.0001) f0 =   /* Reference coriolis parameter ( 1/s ) */
(PID.TID 0000.0001)                 1.000000000000000E-04
(PID.TID 0000.0001)     ;
(PID.TID 0000.0001) beta =   /* Beta ( 1/(m.s) ) */
(PID.TID 0000.0001)                 9.999999999999999E-12
(PID.TID 0000.0001)     ;
(PID.TID 0000.0001) fPrime =   /* Second coriolis parameter ( 1/s ) */
(PID.TID 0000.0001)                 0.000000000000000E+00
(PID.TID 0000.0001)     ;
(PID.TID 0000.0001) rigidLid =   /* Rigid lid on/off flag */
(PID.TID 0000.0001)                   F
(PID.TID 0000.0001)     ;
(PID.TID 0000.0001) implicitFreeSurface =   /* Implicit free surface on/off flag */
(PID.TID 0000.0001)                   T
(PID.TID 0000.0001)     ;
(PID.TID 0000.0001) freeSurfFac =   /* Implicit free surface factor */
(PID.TID 0000.0001)                 1.000000000000000E+00
(PID.TID 0000.0001)     ;
(PID.TID 0000.0001) implicSurfPress =  /* Surface Pressure implicit factor (0-1) */
(PID.TID 0000.0001)                 1.000000000000000E+00
(PID.TID 0000.0001)     ;
(PID.TID 0000.0001) implicDiv2DFlow =  /* Barot. Flow Div. implicit factor (0-1) */
(PID.TID 0000.0001)                 1.000000000000000E+00
(PID.TID 0000.0001)     ;
(PID.TID 0000.0001) uniformLin_PhiSurf = /* use uniform Bo_surf on/off flag */
(PID.TID 0000.0001)                   T
(PID.TID 0000.0001)     ;
(PID.TID 0000.0001) uniformFreeSurfLev = /* free-surface level-index is uniform */
(PID.TID 0000.0001)                   T
(PID.TID 0000.0001)     ;
(PID.TID 0000.0001) sIceLoadFac =  /* scale factor for sIceLoad (0-1) */
(PID.TID 0000.0001)                 1.000000000000000E+00
(PID.TID 0000.0001)     ;
(PID.TID 0000.0001) hFacMin =   /* minimum partial cell factor (hFac) */
(PID.TID 0000.0001)                 5.000000000000000E-02
(PID.TID 0000.0001)     ;
(PID.TID 0000.0001) hFacMinDr = /* minimum partial cell thickness ( m) */
(PID.TID 0000.0001)                 5.000000000000000E+01
(PID.TID 0000.0001)     ;
(PID.TID 0000.0001) exactConserv =  /* Exact Volume Conservation on/off flag */
(PID.TID 0000.0001)                   T
(PID.TID 0000.0001)     ;
(PID.TID 0000.0001) linFSConserveTr = /* Tracer correction for Lin Free Surface on/off flag */
(PID.TID 0000.0001)                   F
(PID.TID 0000.0001)     ;
(PID.TID 0000.0001) nonlinFreeSurf = /* Non-linear Free Surf. options (-1,0,1,2,3)*/
(PID.TID 0000.0001)                       0
(PID.TID 0000.0001)      -1,0= Off ; 1,2,3= On, 2=+rescale gU,gV, 3=+update cg2d solv.
(PID.TID 0000.0001)     ;
(PID.TID 0000.0001) hFacInf =   /* lower threshold for hFac (nonlinFreeSurf only)*/
(PID.TID 0000.0001)                 2.000000000000000E-01
(PID.TID 0000.0001)     ;
(PID.TID 0000.0001) hFacSup =   /* upper threshold for hFac (nonlinFreeSurf only)*/
(PID.TID 0000.0001)                 2.000000000000000E+00
(PID.TID 0000.0001)     ;
(PID.TID 0000.0001) select_rStar = /* r* Vertical coord. options (=0 r coord.; >0 uses r*)*/
(PID.TID 0000.0001)                       0
(PID.TID 0000.0001)     ;
(PID.TID 0000.0001) useRealFreshWaterFlux = /* Real Fresh Water Flux on/off flag*/
(PID.TID 0000.0001)                   T
(PID.TID 0000.0001)     ;
(PID.TID 0000.0001) temp_EvPrRn = /* Temp. of Evap/Prec/R (UNSET=use local T)(oC)*/
(PID.TID 0000.0001)                 1.234567000000000E+05
(PID.TID 0000.0001)     ;
(PID.TID 0000.0001) salt_EvPrRn = /* Salin. of Evap/Prec/R (UNSET=use local S)(g/kg)*/
(PID.TID 0000.0001)                 0.000000000000000E+00
(PID.TID 0000.0001)     ;
(PID.TID 0000.0001) selectAddFluid = /* option for mass source/sink of fluid (=0: off) */
(PID.TID 0000.0001)                       0
(PID.TID 0000.0001)     ;
(PID.TID 0000.0001) temp_addMass = /* Temp. of addMass array (UNSET=use local T)(oC)*/
(PID.TID 0000.0001)                 1.234567000000000E+05
(PID.TID 0000.0001)     ;
(PID.TID 0000.0001) salt_addMass = /* Salin. of addMass array (UNSET=use local S)(g/kg)*/
(PID.TID 0000.0001)                 0.000000000000000E+00
(PID.TID 0000.0001)     ;
(PID.TID 0000.0001) convertFW2Salt = /* convert F.W. Flux to Salt Flux (-1=use local S)(g/kg)*/
(PID.TID 0000.0001)                -1.000000000000000E+00
(PID.TID 0000.0001)     ;
(PID.TID 0000.0001) use3Dsolver = /* use 3-D pressure solver on/off flag */
(PID.TID 0000.0001)                   F
(PID.TID 0000.0001)     ;
(PID.TID 0000.0001) nonHydrostatic =  /* Non-Hydrostatic on/off flag */
(PID.TID 0000.0001)                   F
(PID.TID 0000.0001)     ;
(PID.TID 0000.0001) nh_Am2 = /* Non-Hydrostatic terms scaling factor */
(PID.TID 0000.0001)                 1.000000000000000E+00
(PID.TID 0000.0001)     ;
(PID.TID 0000.0001) implicitNHPress = /* Non-Hyd Pressure implicit factor (0-1)*/
(PID.TID 0000.0001)                 1.000000000000000E+00
(PID.TID 0000.0001)     ;
(PID.TID 0000.0001) selectNHfreeSurf = /* Non-Hyd (free-)Surface option */
(PID.TID 0000.0001)                       0
(PID.TID 0000.0001)     ;
(PID.TID 0000.0001) quasiHydrostatic = /* Quasi-Hydrostatic on/off flag */
(PID.TID 0000.0001)                   F
(PID.TID 0000.0001)     ;
(PID.TID 0000.0001) calc_wVelocity = /* vertical velocity calculation on/off flag */
(PID.TID 0000.0001)                   T
(PID.TID 0000.0001)     ;
(PID.TID 0000.0001) momStepping =  /* Momentum equation on/off flag */
(PID.TID 0000.0001)                   T
(PID.TID 0000.0001)     ;
(PID.TID 0000.0001) vectorInvariantMomentum= /* Vector-Invariant Momentum on/off */
(PID.TID 0000.0001)                   F
(PID.TID 0000.0001)     ;
(PID.TID 0000.0001) momAdvection =  /* Momentum advection on/off flag */
(PID.TID 0000.0001)                   T
(PID.TID 0000.0001)     ;
(PID.TID 0000.0001) momViscosity =  /* Momentum viscosity on/off flag */
(PID.TID 0000.0001)                   T
(PID.TID 0000.0001)     ;
(PID.TID 0000.0001) momImplVertAdv= /* Momentum implicit vert. advection on/off*/
(PID.TID 0000.0001)                   F
(PID.TID 0000.0001)     ;
(PID.TID 0000.0001) implicitViscosity = /* Implicit viscosity on/off flag */
(PID.TID 0000.0001)                   F
(PID.TID 0000.0001)     ;
(PID.TID 0000.0001) selectImplicitDrag= /* Implicit bot Drag options (0,1,2)*/
(PID.TID 0000.0001)                       0
(PID.TID 0000.0001)     0= Expl. ; 1= Impl. on provis. Vel ; 2= Fully Impl (with surf.P)
(PID.TID 0000.0001)     ;
(PID.TID 0000.0001) metricTerms =  /* metric-Terms on/off flag */
(PID.TID 0000.0001)                   T
(PID.TID 0000.0001)     ;
(PID.TID 0000.0001) useNHMTerms = /* Non-Hydrostatic Metric-Terms on/off */
(PID.TID 0000.0001)                   F
(PID.TID 0000.0001)     ;
(PID.TID 0000.0001) selectCoriMap = /* Coriolis Map options (0,1,2,3)*/
(PID.TID 0000.0001)                       2
(PID.TID 0000.0001)     0= f-Plane ; 1= Beta-Plane ; 2= Spherical ; 3= read from file
(PID.TID 0000.0001)     ;
(PID.TID 0000.0001) use3dCoriolis = /* 3-D Coriolis on/off flag */
(PID.TID 0000.0001)                   F
(PID.TID 0000.0001)     ;
(PID.TID 0000.0001) useCoriolis =  /* Coriolis on/off flag */
(PID.TID 0000.0001)                   T
(PID.TID 0000.0001)     ;
(PID.TID 0000.0001) useCDscheme =  /* CD scheme on/off flag */
(PID.TID 0000.0001)                   T
(PID.TID 0000.0001)     ;
(PID.TID 0000.0001) selectCoriScheme= /* Scheme selector for Coriolis-Term */
(PID.TID 0000.0001)                       0
(PID.TID 0000.0001)    = 0 : original discretization (simple averaging, no hFac)
(PID.TID 0000.0001)    = 1 : Wet-point averaging (Jamar & Ozer 1986)
(PID.TID 0000.0001)    = 2 : energy conserving scheme (no hFac weight)
(PID.TID 0000.0001)    = 3 : energy conserving scheme using Wet-point averaging
(PID.TID 0000.0001)     ;
(PID.TID 0000.0001) momForcing =  /* Momentum forcing on/off flag */
(PID.TID 0000.0001)                   T
(PID.TID 0000.0001)     ;
(PID.TID 0000.0001) momTidalForcing = /* Momentum Tidal forcing on/off flag */
(PID.TID 0000.0001)                   T
(PID.TID 0000.0001)     ;
(PID.TID 0000.0001) momPressureForcing =  /* Momentum pressure term on/off flag */
(PID.TID 0000.0001)                   T
(PID.TID 0000.0001)     ;
(PID.TID 0000.0001) implicitIntGravWave= /* Implicit Internal Gravity Wave flag */
(PID.TID 0000.0001)                   F
(PID.TID 0000.0001)     ;
(PID.TID 0000.0001) staggerTimeStep =    /* Stagger time stepping on/off flag */
(PID.TID 0000.0001)                   F
(PID.TID 0000.0001)     ;
(PID.TID 0000.0001) doResetHFactors = /* reset thickness factors @ each time-step */
(PID.TID 0000.0001)                   F
(PID.TID 0000.0001)     ;
(PID.TID 0000.0001) multiDimAdvection =  /* enable/disable Multi-Dim Advection */
(PID.TID 0000.0001)                   T
(PID.TID 0000.0001)     ;
(PID.TID 0000.0001) useMultiDimAdvec =   /* Multi-Dim Advection is/is-not used */
(PID.TID 0000.0001)                   F
(PID.TID 0000.0001)     ;
(PID.TID 0000.0001) implicitDiffusion = /* Implicit Diffusion on/off flag */
(PID.TID 0000.0001)                   T
(PID.TID 0000.0001)     ;
(PID.TID 0000.0001) tempStepping =  /* Temperature equation on/off flag */
(PID.TID 0000.0001)                   T
(PID.TID 0000.0001)     ;
(PID.TID 0000.0001) tempAdvection = /* Temperature advection on/off flag */
(PID.TID 0000.0001)                   T
(PID.TID 0000.0001)     ;
(PID.TID 0000.0001) tempImplVertAdv = /* Temp. implicit vert. advection on/off */
(PID.TID 0000.0001)                   F
(PID.TID 0000.0001)     ;
(PID.TID 0000.0001) tempForcing  =  /* Temperature forcing on/off flag */
(PID.TID 0000.0001)                   T
(PID.TID 0000.0001)     ;
(PID.TID 0000.0001) doThetaClimRelax = /* apply SST relaxation on/off flag */
(PID.TID 0000.0001)                   F
(PID.TID 0000.0001)     ;
(PID.TID 0000.0001) tempIsActiveTr = /* Temp. is a dynamically Active Tracer */
(PID.TID 0000.0001)                   T
(PID.TID 0000.0001)     ;
(PID.TID 0000.0001) saltStepping =  /* Salinity equation on/off flag */
(PID.TID 0000.0001)                   T
(PID.TID 0000.0001)     ;
(PID.TID 0000.0001) saltAdvection = /* Salinity advection on/off flag */
(PID.TID 0000.0001)                   T
(PID.TID 0000.0001)     ;
(PID.TID 0000.0001) saltImplVertAdv = /* Sali. implicit vert. advection on/off */
(PID.TID 0000.0001)                   F
(PID.TID 0000.0001)     ;
(PID.TID 0000.0001) saltForcing  =  /* Salinity forcing on/off flag */
(PID.TID 0000.0001)                   T
(PID.TID 0000.0001)     ;
(PID.TID 0000.0001) doSaltClimRelax = /* apply SSS relaxation on/off flag */
(PID.TID 0000.0001)                   F
(PID.TID 0000.0001)     ;
(PID.TID 0000.0001) saltIsActiveTr = /* Salt  is a dynamically Active Tracer */
(PID.TID 0000.0001)                   T
(PID.TID 0000.0001)     ;
(PID.TID 0000.0001)  readBinaryPrec = /* Precision used for reading binary files */
(PID.TID 0000.0001)                      32
(PID.TID 0000.0001)     ;
(PID.TID 0000.0001) writeBinaryPrec = /* Precision used for writing binary files */
(PID.TID 0000.0001)                      32
(PID.TID 0000.0001)     ;
(PID.TID 0000.0001)  rwSuffixType =   /* select format of mds file suffix */
(PID.TID 0000.0001)                       0
(PID.TID 0000.0001)    = 0 : myIter (I10.10) ;   = 1 : 100*myTime (100th sec) ;
(PID.TID 0000.0001)    = 2 : myTime (seconds);   = 3 : myTime/360 (10th of hr);
(PID.TID 0000.0001)    = 4 : myTime/3600 (hours)
(PID.TID 0000.0001)     ;
(PID.TID 0000.0001)  globalFiles = /* write "global" (=not per tile) files */
(PID.TID 0000.0001)                   F
(PID.TID 0000.0001)     ;
(PID.TID 0000.0001)  useSingleCpuIO = /* only master MPI process does I/O */
(PID.TID 0000.0001)                   T
(PID.TID 0000.0001)     ;
(PID.TID 0000.0001)  useSingleCpuInput = /* only master process reads input */
(PID.TID 0000.0001)                   T
(PID.TID 0000.0001)     ;
(PID.TID 0000.0001) /* debLev[*]  : level of debug & auxiliary message printing */
(PID.TID 0000.0001) debLevZero =  0 ; /* level of disabled aux. msg printing */
(PID.TID 0000.0001)    debLevA =  1 ; /* level of minimum  aux. msg printing */
(PID.TID 0000.0001)    debLevB =  2 ; /* level of low aux. print (report read-file opening)*/
(PID.TID 0000.0001)    debLevC =  3 ; /* level of moderate debug prt (most pkgs debug msg) */
(PID.TID 0000.0001)    debLevD =  4 ; /* level of enhanced debug prt (add DEBUG_STATS prt) */
(PID.TID 0000.0001)    debLevE =  5 ; /* level of extensive debug printing */
(PID.TID 0000.0001) debugLevel =  /* select debug printing level */
(PID.TID 0000.0001)                       5
(PID.TID 0000.0001)     ;
(PID.TID 0000.0001)  plotLevel =  /* select PLOT_FIELD printing level */
(PID.TID 0000.0001)                       5
(PID.TID 0000.0001)     ;
(PID.TID 0000.0001) //
(PID.TID 0000.0001) // Elliptic solver(s) paramters ( PARM02 in namelist )
(PID.TID 0000.0001) //
(PID.TID 0000.0001) cg2dMaxIters =   /* Upper limit on 2d con. grad iterations  */
(PID.TID 0000.0001)                     500
(PID.TID 0000.0001)     ;
(PID.TID 0000.0001) cg2dMinItersNSA =   /* Minimum number of iterations of 2d con. grad solver  */
(PID.TID 0000.0001)                       0
(PID.TID 0000.0001)     ;
(PID.TID 0000.0001) cg2dUseMinResSol= /* use cg2d last-iter(=0) / min-resid.(=1) solution */
(PID.TID 0000.0001)                       0
(PID.TID 0000.0001)     ;
(PID.TID 0000.0001) cg2dTargetResidual =   /* 2d con. grad target residual  */
(PID.TID 0000.0001)                 1.000000000000000E-13
(PID.TID 0000.0001)     ;
(PID.TID 0000.0001) cg2dTargetResWunit =   /* CG2d target residual [W units] */
(PID.TID 0000.0001)                -1.000000000000000E+00
(PID.TID 0000.0001)     ;
(PID.TID 0000.0001) cg2dPreCondFreq =   /* Freq. for updating cg2d preconditioner */
(PID.TID 0000.0001)                       1
(PID.TID 0000.0001)     ;
(PID.TID 0000.0001) useSRCGSolver =  /* use single reduction CG solver(s) */
(PID.TID 0000.0001)                   F
(PID.TID 0000.0001)     ;
(PID.TID 0000.0001) useNSACGSolver =  /* use not-self-adjoint CG solver */
(PID.TID 0000.0001)                   F
(PID.TID 0000.0001)     ;
(PID.TID 0000.0001) printResidualFreq = /* Freq. for printing CG residual */
(PID.TID 0000.0001)                       1
(PID.TID 0000.0001)     ;
(PID.TID 0000.0001) //
(PID.TID 0000.0001) // Time stepping paramters ( PARM03 in namelist )
(PID.TID 0000.0001) //
(PID.TID 0000.0001) deltaTMom =   /* Momentum equation timestep ( s ) */
(PID.TID 0000.0001)                 1.800000000000000E+03
(PID.TID 0000.0001)     ;
(PID.TID 0000.0001) deltaTFreeSurf = /* FreeSurface equation timestep ( s ) */
(PID.TID 0000.0001)                 8.640000000000000E+04
(PID.TID 0000.0001)     ;
(PID.TID 0000.0001) dTtracerLev =  /* Tracer equation timestep ( s ) */
(PID.TID 0000.0001)    15 @  8.640000000000000E+04              /* K =  1: 15 */
(PID.TID 0000.0001)     ;
(PID.TID 0000.0001) deltaTClock  =   /* Model clock timestep ( s ) */
(PID.TID 0000.0001)                 8.640000000000000E+04
(PID.TID 0000.0001)     ;
(PID.TID 0000.0001) cAdjFreq =   /* Convective adjustment interval ( s ) */
(PID.TID 0000.0001)                 0.000000000000000E+00
(PID.TID 0000.0001)     ;
(PID.TID 0000.0001) momForcingOutAB = /* =1: take Momentum Forcing out of Adams-Bash. stepping */
(PID.TID 0000.0001)                       0
(PID.TID 0000.0001)     ;
(PID.TID 0000.0001) tracForcingOutAB = /* =1: take T,S,pTr Forcing out of Adams-Bash. stepping */
(PID.TID 0000.0001)                       0
(PID.TID 0000.0001)     ;
(PID.TID 0000.0001) momDissip_In_AB = /* put Dissipation Tendency in Adams-Bash. stepping */
(PID.TID 0000.0001)                   T
(PID.TID 0000.0001)     ;
(PID.TID 0000.0001) doAB_onGtGs = /* apply AB on Tendencies (rather than on T,S)*/
(PID.TID 0000.0001)                   T
(PID.TID 0000.0001)     ;
(PID.TID 0000.0001) abEps =   /* Adams-Bashforth-2 stabilizing weight */
(PID.TID 0000.0001)                 1.000000000000000E-01
(PID.TID 0000.0001)     ;
(PID.TID 0000.0001) applyExchUV_early = /* Apply EXCH to U,V earlier in time-step */
(PID.TID 0000.0001)                   F
(PID.TID 0000.0001)     ;
(PID.TID 0000.0001) tauCD =   /* CD coupling time-scale ( s ) */
(PID.TID 0000.0001)                 3.214280000000000E+05
(PID.TID 0000.0001)     ;
(PID.TID 0000.0001) rCD =   /* Normalised CD coupling parameter */
(PID.TID 0000.0001)                 9.943999900444267E-01
(PID.TID 0000.0001)     ;
(PID.TID 0000.0001) epsAB_CD = /* AB-2 stabilizing weight for CD-scheme*/
(PID.TID 0000.0001)                 1.000000000000000E-01
(PID.TID 0000.0001)     ;
(PID.TID 0000.0001) pickupStrictlyMatch= /* stop if pickup do not strictly match */
(PID.TID 0000.0001)                   T
(PID.TID 0000.0001)     ;
(PID.TID 0000.0001) nIter0   =   /* Run starting timestep number */
(PID.TID 0000.0001)                       0
(PID.TID 0000.0001)     ;
(PID.TID 0000.0001) nTimeSteps = /* Number of timesteps */
(PID.TID 0000.0001)                     100
(PID.TID 0000.0001)     ;
(PID.TID 0000.0001) nEndIter =   /* Run ending timestep number */
(PID.TID 0000.0001)                     100
(PID.TID 0000.0001)     ;
(PID.TID 0000.0001) baseTime =   /* Model base time ( s ) */
(PID.TID 0000.0001)                 0.000000000000000E+00
(PID.TID 0000.0001)     ;
(PID.TID 0000.0001) startTime =  /* Run start time ( s ) */
(PID.TID 0000.0001)                 0.000000000000000E+00
(PID.TID 0000.0001)     ;
(PID.TID 0000.0001) endTime  =   /* Integration ending time ( s ) */
(PID.TID 0000.0001)                 8.640000000000000E+06
(PID.TID 0000.0001)     ;
(PID.TID 0000.0001) pChkPtFreq = /* Permanent restart/pickup file interval ( s ) */
(PID.TID 0000.0001)                 8.640000000000000E+05
(PID.TID 0000.0001)     ;
(PID.TID 0000.0001) chkPtFreq  = /* Rolling restart/pickup file interval ( s ) */
(PID.TID 0000.0001)                 0.000000000000000E+00
(PID.TID 0000.0001)     ;
(PID.TID 0000.0001) pickup_write_mdsio =   /* Model IO flag. */
(PID.TID 0000.0001)                   T
(PID.TID 0000.0001)     ;
(PID.TID 0000.0001) pickup_read_mdsio =   /* Model IO flag. */
(PID.TID 0000.0001)                   T
(PID.TID 0000.0001)     ;
(PID.TID 0000.0001) pickup_write_mnc =   /* Model IO flag. */
(PID.TID 0000.0001)                   F
(PID.TID 0000.0001)     ;
(PID.TID 0000.0001) pickup_read_mnc =   /* Model IO flag. */
(PID.TID 0000.0001)                   F
(PID.TID 0000.0001)     ;
(PID.TID 0000.0001) writePickupAtEnd =   /* Model IO flag. */
(PID.TID 0000.0001)                   T
(PID.TID 0000.0001)     ;
(PID.TID 0000.0001) dumpFreq =   /* Model state write out interval ( s ). */
(PID.TID 0000.0001)                 8.640000000000000E+05
(PID.TID 0000.0001)     ;
(PID.TID 0000.0001) dumpInitAndLast= /* write out Initial & Last iter. model state */
(PID.TID 0000.0001)                   T
(PID.TID 0000.0001)     ;
(PID.TID 0000.0001) snapshot_mdsio =   /* Model IO flag. */
(PID.TID 0000.0001)                   T
(PID.TID 0000.0001)     ;
(PID.TID 0000.0001) snapshot_mnc =   /* Model IO flag. */
(PID.TID 0000.0001)                   F
(PID.TID 0000.0001)     ;
(PID.TID 0000.0001) monitorFreq =   /* Monitor output interval ( s ). */
(PID.TID 0000.0001)                 1.000000000000000E+00
(PID.TID 0000.0001)     ;
(PID.TID 0000.0001) monitorSelect = /* select group of variables to monitor */
(PID.TID 0000.0001)                       3
(PID.TID 0000.0001)     ;
(PID.TID 0000.0001) monitor_stdio =   /* Model IO flag. */
(PID.TID 0000.0001)                   T
(PID.TID 0000.0001)     ;
(PID.TID 0000.0001) monitor_mnc =   /* Model IO flag. */
(PID.TID 0000.0001)                   F
(PID.TID 0000.0001)     ;
(PID.TID 0000.0001) externForcingPeriod =   /* forcing period (s) */
(PID.TID 0000.0001)                 2.592000000000000E+06
(PID.TID 0000.0001)     ;
(PID.TID 0000.0001) externForcingCycle =   /* period of the cyle (s). */
(PID.TID 0000.0001)                 3.110400000000000E+07
(PID.TID 0000.0001)     ;
(PID.TID 0000.0001) tauThetaClimRelax =   /* relaxation time scale (s) */
(PID.TID 0000.0001)                 0.000000000000000E+00
(PID.TID 0000.0001)     ;
(PID.TID 0000.0001) tauSaltClimRelax =   /* relaxation time scale (s) */
(PID.TID 0000.0001)                 0.000000000000000E+00
(PID.TID 0000.0001)     ;
(PID.TID 0000.0001) latBandClimRelax =   /* max. Lat. where relaxation */
(PID.TID 0000.0001)                 1.800000000000000E+02
(PID.TID 0000.0001)     ;
(PID.TID 0000.0001) //
(PID.TID 0000.0001) // Gridding paramters ( PARM04 in namelist )
(PID.TID 0000.0001) //
(PID.TID 0000.0001) usingCartesianGrid = /* Cartesian coordinates flag ( True/False ) */
(PID.TID 0000.0001)                   F
(PID.TID 0000.0001)     ;
(PID.TID 0000.0001) usingCylindricalGrid = /* Cylindrical coordinates flag ( True/False ) */
(PID.TID 0000.0001)                   F
(PID.TID 0000.0001)     ;
(PID.TID 0000.0001) usingSphericalPolarGrid = /* Spherical coordinates flag ( True/False ) */
(PID.TID 0000.0001)                   T
(PID.TID 0000.0001)     ;
(PID.TID 0000.0001) usingCurvilinearGrid = /* Curvilinear coordinates flag ( True/False ) */
(PID.TID 0000.0001)                   F
(PID.TID 0000.0001)     ;
(PID.TID 0000.0001) useMin4hFacEdges = /* set hFacW,S as minimum of adjacent hFacC factor */
(PID.TID 0000.0001)                   F
(PID.TID 0000.0001)     ;
(PID.TID 0000.0001) interViscAr_pCell = /* account for partial-cell in interior vert. viscosity */
(PID.TID 0000.0001)                   F
(PID.TID 0000.0001)     ;
(PID.TID 0000.0001) interDiffKr_pCell = /* account for partial-cell in interior vert. diffusion */
(PID.TID 0000.0001)                   F
(PID.TID 0000.0001)     ;
(PID.TID 0000.0001) pCellMix_select = /* option to enhance mixing near surface & bottom */
(PID.TID 0000.0001)                       0
(PID.TID 0000.0001)     ;
(PID.TID 0000.0001) selectSigmaCoord = /* Hybrid-Sigma Vert. Coordinate option */
(PID.TID 0000.0001)                       0
(PID.TID 0000.0001)     ;
(PID.TID 0000.0001) rSigmaBnd = /* r/sigma transition ( units of r ==  m ) */
(PID.TID 0000.0001)                 1.234567000000000E+05
(PID.TID 0000.0001)     ;
(PID.TID 0000.0001) rkSign =   /* index orientation relative to vertical coordinate */
(PID.TID 0000.0001)                -1.000000000000000E+00
(PID.TID 0000.0001)     ;
(PID.TID 0000.0001) gravitySign = /* gravity orientation relative to vertical coordinate */
(PID.TID 0000.0001)                -1.000000000000000E+00
(PID.TID 0000.0001)     ;
(PID.TID 0000.0001) seaLev_Z =  /* reference height of sea-level [m] */
(PID.TID 0000.0001)                 0.000000000000000E+00
(PID.TID 0000.0001)     ;
(PID.TID 0000.0001) top_Pres =  /* reference pressure at the top [Pa] */
(PID.TID 0000.0001)                 0.000000000000000E+00
(PID.TID 0000.0001)     ;
(PID.TID 0000.0001) mass2rUnit = /* convert mass per unit area [kg/m2] to r-units [m] */
(PID.TID 0000.0001)                 9.661835748792270E-04
(PID.TID 0000.0001)     ;
(PID.TID 0000.0001) rUnit2mass = /* convert r-units [m] to mass per unit area [kg/m2] */
(PID.TID 0000.0001)                 1.035000000000000E+03
(PID.TID 0000.0001)     ;
(PID.TID 0000.0001) drC =   /* C spacing ( units of r ) */
(PID.TID 0000.0001)                 2.500000000000000E+01,      /* K =  1 */
(PID.TID 0000.0001)                 6.000000000000000E+01,      /* K =  2 */
(PID.TID 0000.0001)                 8.500000000000000E+01,      /* K =  3 */
(PID.TID 0000.0001)                 1.200000000000000E+02,      /* K =  4 */
(PID.TID 0000.0001)                 1.650000000000000E+02,      /* K =  5 */
(PID.TID 0000.0001)                 2.150000000000000E+02,      /* K =  6 */
(PID.TID 0000.0001)                 2.650000000000000E+02,      /* K =  7 */
(PID.TID 0000.0001)                 3.150000000000000E+02,      /* K =  8 */
(PID.TID 0000.0001)                 3.650000000000000E+02,      /* K =  9 */
(PID.TID 0000.0001)                 4.150000000000000E+02,      /* K = 10 */
(PID.TID 0000.0001)                 4.650000000000000E+02,      /* K = 11 */
(PID.TID 0000.0001)                 5.150000000000000E+02,      /* K = 12 */
(PID.TID 0000.0001)                 5.650000000000000E+02,      /* K = 13 */
(PID.TID 0000.0001)                 6.150000000000000E+02,      /* K = 14 */
(PID.TID 0000.0001)                 6.650000000000000E+02,      /* K = 15 */
(PID.TID 0000.0001)                 3.450000000000000E+02       /* K = 16 */
(PID.TID 0000.0001)     ;
(PID.TID 0000.0001) drF =   /* W spacing ( units of r ) */
(PID.TID 0000.0001)                 5.000000000000000E+01,      /* K =  1 */
(PID.TID 0000.0001)                 7.000000000000000E+01,      /* K =  2 */
(PID.TID 0000.0001)                 1.000000000000000E+02,      /* K =  3 */
(PID.TID 0000.0001)                 1.400000000000000E+02,      /* K =  4 */
(PID.TID 0000.0001)                 1.900000000000000E+02,      /* K =  5 */
(PID.TID 0000.0001)                 2.400000000000000E+02,      /* K =  6 */
(PID.TID 0000.0001)                 2.900000000000000E+02,      /* K =  7 */
(PID.TID 0000.0001)                 3.400000000000000E+02,      /* K =  8 */
(PID.TID 0000.0001)                 3.900000000000000E+02,      /* K =  9 */
(PID.TID 0000.0001)                 4.400000000000000E+02,      /* K = 10 */
(PID.TID 0000.0001)                 4.900000000000000E+02,      /* K = 11 */
(PID.TID 0000.0001)                 5.400000000000000E+02,      /* K = 12 */
(PID.TID 0000.0001)                 5.900000000000000E+02,      /* K = 13 */
(PID.TID 0000.0001)                 6.400000000000000E+02,      /* K = 14 */
(PID.TID 0000.0001)                 6.900000000000000E+02       /* K = 15 */
(PID.TID 0000.0001)     ;
(PID.TID 0000.0001) delX = /* U spacing ( m - cartesian, degrees - spherical ) */
(PID.TID 0000.0001)    90 @  4.000000000000000E+00              /* I =  1: 90 */
(PID.TID 0000.0001)     ;
(PID.TID 0000.0001) delY = /* V spacing ( m - cartesian, degrees - spherical ) */
(PID.TID 0000.0001)    40 @  4.000000000000000E+00              /* J =  1: 40 */
(PID.TID 0000.0001)     ;
(PID.TID 0000.0001) xgOrigin = /* X-axis origin of West  edge (cartesian: m, lat-lon: deg) */
(PID.TID 0000.0001)                 0.000000000000000E+00
(PID.TID 0000.0001)     ;
(PID.TID 0000.0001) ygOrigin = /* Y-axis origin of South edge (cartesian: m, lat-lon: deg) */
(PID.TID 0000.0001)                -8.000000000000000E+01
(PID.TID 0000.0001)     ;
(PID.TID 0000.0001) rSphere =  /* Radius ( ignored - cartesian, m - spherical ) */
(PID.TID 0000.0001)                 6.370000000000000E+06
(PID.TID 0000.0001)     ;
(PID.TID 0000.0001) deepAtmosphere = /* Deep/Shallow Atmosphere flag (True/False) */
(PID.TID 0000.0001)                   F
(PID.TID 0000.0001)     ;
(PID.TID 0000.0001) xC =  /* xC(:,1,:,1) : P-point X coord ( deg. or m if cartesian) */
(PID.TID 0000.0001)                 2.000000000000000E+00,      /* I =  1 */
(PID.TID 0000.0001)                 6.000000000000000E+00,      /* I =  2 */
(PID.TID 0000.0001)                 1.000000000000000E+01,      /* I =  3 */
(PID.TID 0000.0001)      . . .
(PID.TID 0000.0001)                 8.200000000000000E+01,      /* I = 21 */
(PID.TID 0000.0001)                 8.600000000000000E+01,      /* I = 22 */
(PID.TID 0000.0001)                 9.000000000000000E+01,      /* I = 23 */
(PID.TID 0000.0001)                 9.400000000000000E+01,      /* I = 24 */
(PID.TID 0000.0001)                 9.800000000000000E+01,      /* I = 25 */
(PID.TID 0000.0001)                 1.020000000000000E+02,      /* I = 26 */
(PID.TID 0000.0001)      . . .
(PID.TID 0000.0001)                 1.700000000000000E+02,      /* I = 43 */
(PID.TID 0000.0001)                 1.740000000000000E+02,      /* I = 44 */
(PID.TID 0000.0001)                 1.780000000000000E+02,      /* I = 45 */
(PID.TID 0000.0001)                 1.820000000000000E+02,      /* I = 46 */
(PID.TID 0000.0001)                 1.860000000000000E+02,      /* I = 47 */
(PID.TID 0000.0001)                 1.900000000000000E+02,      /* I = 48 */
(PID.TID 0000.0001)      . . .
(PID.TID 0000.0001)                 2.580000000000000E+02,      /* I = 65 */
(PID.TID 0000.0001)                 2.620000000000000E+02,      /* I = 66 */
(PID.TID 0000.0001)                 2.660000000000000E+02,      /* I = 67 */
(PID.TID 0000.0001)                 2.700000000000000E+02,      /* I = 68 */
(PID.TID 0000.0001)                 2.740000000000000E+02,      /* I = 69 */
(PID.TID 0000.0001)                 2.780000000000000E+02,      /* I = 70 */
(PID.TID 0000.0001)      . . .
(PID.TID 0000.0001)                 3.500000000000000E+02,      /* I = 88 */
(PID.TID 0000.0001)                 3.540000000000000E+02,      /* I = 89 */
(PID.TID 0000.0001)                 3.580000000000000E+02       /* I = 90 */
(PID.TID 0000.0001)     ;
(PID.TID 0000.0001) yC =  /* yC(1,:,1,:) : P-point Y coord ( deg. or m if cartesian) */
(PID.TID 0000.0001)                -7.800000000000000E+01,      /* J =  1 */
(PID.TID 0000.0001)                -7.400000000000000E+01,      /* J =  2 */
(PID.TID 0000.0001)                -7.000000000000000E+01,      /* J =  3 */
(PID.TID 0000.0001)                -6.600000000000000E+01,      /* J =  4 */
(PID.TID 0000.0001)                -6.200000000000000E+01,      /* J =  5 */
(PID.TID 0000.0001)                -5.800000000000000E+01,      /* J =  6 */
(PID.TID 0000.0001)                -5.400000000000000E+01,      /* J =  7 */
(PID.TID 0000.0001)                -5.000000000000000E+01,      /* J =  8 */
(PID.TID 0000.0001)                -4.600000000000000E+01,      /* J =  9 */
(PID.TID 0000.0001)                -4.200000000000000E+01,      /* J = 10 */
(PID.TID 0000.0001)                -3.800000000000000E+01,      /* J = 11 */
(PID.TID 0000.0001)                -3.400000000000000E+01,      /* J = 12 */
(PID.TID 0000.0001)                -3.000000000000000E+01,      /* J = 13 */
(PID.TID 0000.0001)                -2.600000000000000E+01,      /* J = 14 */
(PID.TID 0000.0001)                -2.200000000000000E+01,      /* J = 15 */
(PID.TID 0000.0001)                -1.800000000000000E+01,      /* J = 16 */
(PID.TID 0000.0001)                -1.400000000000000E+01,      /* J = 17 */
(PID.TID 0000.0001)                -1.000000000000000E+01,      /* J = 18 */
(PID.TID 0000.0001)                -6.000000000000000E+00,      /* J = 19 */
(PID.TID 0000.0001)                -2.000000000000000E+00,      /* J = 20 */
(PID.TID 0000.0001)                 2.000000000000000E+00,      /* J = 21 */
(PID.TID 0000.0001)                 6.000000000000000E+00,      /* J = 22 */
(PID.TID 0000.0001)                 1.000000000000000E+01,      /* J = 23 */
(PID.TID 0000.0001)                 1.400000000000000E+01,      /* J = 24 */
(PID.TID 0000.0001)                 1.800000000000000E+01,      /* J = 25 */
(PID.TID 0000.0001)                 2.200000000000000E+01,      /* J = 26 */
(PID.TID 0000.0001)                 2.600000000000000E+01,      /* J = 27 */
(PID.TID 0000.0001)                 3.000000000000000E+01,      /* J = 28 */
(PID.TID 0000.0001)                 3.400000000000000E+01,      /* J = 29 */
(PID.TID 0000.0001)                 3.800000000000000E+01,      /* J = 30 */
(PID.TID 0000.0001)                 4.200000000000000E+01,      /* J = 31 */
(PID.TID 0000.0001)                 4.600000000000000E+01,      /* J = 32 */
(PID.TID 0000.0001)                 5.000000000000000E+01,      /* J = 33 */
(PID.TID 0000.0001)                 5.400000000000000E+01,      /* J = 34 */
(PID.TID 0000.0001)                 5.800000000000000E+01,      /* J = 35 */
(PID.TID 0000.0001)                 6.200000000000000E+01,      /* J = 36 */
(PID.TID 0000.0001)                 6.600000000000000E+01,      /* J = 37 */
(PID.TID 0000.0001)                 7.000000000000000E+01,      /* J = 38 */
(PID.TID 0000.0001)                 7.400000000000000E+01,      /* J = 39 */
(PID.TID 0000.0001)                 7.800000000000000E+01       /* J = 40 */
(PID.TID 0000.0001)     ;
(PID.TID 0000.0001) rcoord = /* P-point R coordinate (  units of r ) */
(PID.TID 0000.0001)                -2.500000000000000E+01,      /* K =  1 */
(PID.TID 0000.0001)                -8.500000000000000E+01,      /* K =  2 */
(PID.TID 0000.0001)                -1.700000000000000E+02,      /* K =  3 */
(PID.TID 0000.0001)                -2.900000000000000E+02,      /* K =  4 */
(PID.TID 0000.0001)                -4.550000000000000E+02,      /* K =  5 */
(PID.TID 0000.0001)                -6.700000000000000E+02,      /* K =  6 */
(PID.TID 0000.0001)                -9.350000000000000E+02,      /* K =  7 */
(PID.TID 0000.0001)                -1.250000000000000E+03,      /* K =  8 */
(PID.TID 0000.0001)                -1.615000000000000E+03,      /* K =  9 */
(PID.TID 0000.0001)                -2.030000000000000E+03,      /* K = 10 */
(PID.TID 0000.0001)                -2.495000000000000E+03,      /* K = 11 */
(PID.TID 0000.0001)                -3.010000000000000E+03,      /* K = 12 */
(PID.TID 0000.0001)                -3.575000000000000E+03,      /* K = 13 */
(PID.TID 0000.0001)                -4.190000000000000E+03,      /* K = 14 */
(PID.TID 0000.0001)                -4.855000000000000E+03       /* K = 15 */
(PID.TID 0000.0001)     ;
(PID.TID 0000.0001) rF =   /* W-Interf. R coordinate (  units of r ) */
(PID.TID 0000.0001)                 0.000000000000000E+00,      /* K =  1 */
(PID.TID 0000.0001)                -5.000000000000000E+01,      /* K =  2 */
(PID.TID 0000.0001)                -1.200000000000000E+02,      /* K =  3 */
(PID.TID 0000.0001)                -2.200000000000000E+02,      /* K =  4 */
(PID.TID 0000.0001)                -3.600000000000000E+02,      /* K =  5 */
(PID.TID 0000.0001)                -5.500000000000000E+02,      /* K =  6 */
(PID.TID 0000.0001)                -7.900000000000000E+02,      /* K =  7 */
(PID.TID 0000.0001)                -1.080000000000000E+03,      /* K =  8 */
(PID.TID 0000.0001)                -1.420000000000000E+03,      /* K =  9 */
(PID.TID 0000.0001)                -1.810000000000000E+03,      /* K = 10 */
(PID.TID 0000.0001)                -2.250000000000000E+03,      /* K = 11 */
(PID.TID 0000.0001)                -2.740000000000000E+03,      /* K = 12 */
(PID.TID 0000.0001)                -3.280000000000000E+03,      /* K = 13 */
(PID.TID 0000.0001)                -3.870000000000000E+03,      /* K = 14 */
(PID.TID 0000.0001)                -4.510000000000000E+03,      /* K = 15 */
(PID.TID 0000.0001)                -5.200000000000000E+03       /* K = 16 */
(PID.TID 0000.0001)     ;
(PID.TID 0000.0001) deepFacC = /* deep-model grid factor @ cell-Center (-) */
(PID.TID 0000.0001)    15 @  1.000000000000000E+00              /* K =  1: 15 */
(PID.TID 0000.0001)     ;
(PID.TID 0000.0001) deepFacF = /* deep-model grid factor @ W-Interface (-) */
(PID.TID 0000.0001)    16 @  1.000000000000000E+00              /* K =  1: 16 */
(PID.TID 0000.0001)     ;
(PID.TID 0000.0001) rVel2wUnit = /* convert units: rVel -> wSpeed (=1 if z-coord)*/
(PID.TID 0000.0001)    16 @  1.000000000000000E+00              /* K =  1: 16 */
(PID.TID 0000.0001)     ;
(PID.TID 0000.0001) wUnit2rVel = /* convert units: wSpeed -> rVel (=1 if z-coord)*/
(PID.TID 0000.0001)    16 @  1.000000000000000E+00              /* K =  1: 16 */
(PID.TID 0000.0001)     ;
(PID.TID 0000.0001) dBdrRef = /* Vertical grad. of reference buoyancy [(m/s/r)^2] */
(PID.TID 0000.0001)    15 @  0.000000000000000E+00              /* K =  1: 15 */
(PID.TID 0000.0001)     ;
(PID.TID 0000.0001) rotateGrid = /* use rotated grid ( True/False ) */
(PID.TID 0000.0001)                   F
(PID.TID 0000.0001)     ;
(PID.TID 0000.0001) phiEuler = /* Euler angle, rotation about original z-coordinate [rad] */
(PID.TID 0000.0001)                 0.000000000000000E+00
(PID.TID 0000.0001)     ;
(PID.TID 0000.0001) thetaEuler = /* Euler angle, rotation about new x-coordinate [rad] */
(PID.TID 0000.0001)                 0.000000000000000E+00
(PID.TID 0000.0001)     ;
(PID.TID 0000.0001) psiEuler = /* Euler angle, rotation about new z-coordinate [rad] */
(PID.TID 0000.0001)                 0.000000000000000E+00
(PID.TID 0000.0001)     ;
(PID.TID 0000.0001) dxF =  /* dxF(:,1,:,1) ( units: m ) */
(PID.TID 0000.0001)    90 @  9.246038586187513E+04              /* I =  1: 90 */
(PID.TID 0000.0001)     ;
(PID.TID 0000.0001) dxF =  /* dxF(1,:,1,:) ( units: m ) */
(PID.TID 0000.0001)                 9.246038586187513E+04,      /* J =  1 */
(PID.TID 0000.0001)                 1.225786591246834E+05,      /* J =  2 */
(PID.TID 0000.0001)                 1.520997414818001E+05,      /* J =  3 */
(PID.TID 0000.0001)                 1.808798091874300E+05,      /* J =  4 */
(PID.TID 0000.0001)                 2.087786486446736E+05,      /* J =  5 */
(PID.TID 0000.0001)                 2.356603395120765E+05,      /* J =  6 */
(PID.TID 0000.0001)                 2.613939168938713E+05,      /* J =  7 */
(PID.TID 0000.0001)                 2.858540093877838E+05,      /* J =  8 */
(PID.TID 0000.0001)                 3.089214498819034E+05,      /* J =  9 */
(PID.TID 0000.0001)                 3.304838561248741E+05,      /* J = 10 */
(PID.TID 0000.0001)                 3.504361782409254E+05,      /* J = 11 */
(PID.TID 0000.0001)                 3.686812105223082E+05,      /* J = 12 */
(PID.TID 0000.0001)                 3.851300650057323E+05,      /* J = 13 */
(PID.TID 0000.0001)                 3.997026045255871E+05,      /* J = 14 */
(PID.TID 0000.0001)                 4.123278331341585E+05,      /* J = 15 */
(PID.TID 0000.0001)                 4.229442419867491E+05,      /* J = 16 */
(PID.TID 0000.0001)                 4.315001090065870E+05,      /* J = 17 */
(PID.TID 0000.0001)                 4.379537508695838E+05,      /* J = 18 */
(PID.TID 0000.0001)                 4.422737260813012E+05,      /* J = 19 */
(PID.TID 0000.0001)     2 @  4.444389881567502E+05,             /* J = 20: 21 */
(PID.TID 0000.0001)                 4.422737260813012E+05,      /* J = 22 */
(PID.TID 0000.0001)                 4.379537508695838E+05,      /* J = 23 */
(PID.TID 0000.0001)                 4.315001090065870E+05,      /* J = 24 */
(PID.TID 0000.0001)                 4.229442419867491E+05,      /* J = 25 */
(PID.TID 0000.0001)                 4.123278331341585E+05,      /* J = 26 */
(PID.TID 0000.0001)                 3.997026045255871E+05,      /* J = 27 */
(PID.TID 0000.0001)                 3.851300650057323E+05,      /* J = 28 */
(PID.TID 0000.0001)                 3.686812105223082E+05,      /* J = 29 */
(PID.TID 0000.0001)                 3.504361782409254E+05,      /* J = 30 */
(PID.TID 0000.0001)                 3.304838561248741E+05,      /* J = 31 */
(PID.TID 0000.0001)                 3.089214498819034E+05,      /* J = 32 */
(PID.TID 0000.0001)                 2.858540093877838E+05,      /* J = 33 */
(PID.TID 0000.0001)                 2.613939168938713E+05,      /* J = 34 */
(PID.TID 0000.0001)                 2.356603395120765E+05,      /* J = 35 */
(PID.TID 0000.0001)                 2.087786486446736E+05,      /* J = 36 */
(PID.TID 0000.0001)                 1.808798091874300E+05,      /* J = 37 */
(PID.TID 0000.0001)                 1.520997414818001E+05,      /* J = 38 */
(PID.TID 0000.0001)                 1.225786591246834E+05,      /* J = 39 */
(PID.TID 0000.0001)                 9.246038586187513E+04       /* J = 40 */
(PID.TID 0000.0001)     ;
(PID.TID 0000.0001) dyF =  /* dyF(:,1,:,1) ( units: m ) */
(PID.TID 0000.0001)    90 @  4.447098934081552E+05              /* I =  1: 90 */
(PID.TID 0000.0001)     ;
(PID.TID 0000.0001) dyF =  /* dyF(1,:,1,:) ( units: m ) */
(PID.TID 0000.0001)    40 @  4.447098934081552E+05              /* J =  1: 40 */
(PID.TID 0000.0001)     ;
(PID.TID 0000.0001) dxG =  /* dxG(:,1,:,1) ( units: m ) */
(PID.TID 0000.0001)    90 @  7.722306258078101E+04              /* I =  1: 90 */
(PID.TID 0000.0001)     ;
(PID.TID 0000.0001) dxG =  /* dxG(1,:,1,:) ( units: m ) */
(PID.TID 0000.0001)                 7.722306258078101E+04,      /* J =  1 */
(PID.TID 0000.0001)                 1.075850604052271E+05,      /* J =  2 */
(PID.TID 0000.0001)                 1.374229146297914E+05,      /* J =  3 */
(PID.TID 0000.0001)                 1.665912582279823E+05,      /* J =  4 */
(PID.TID 0000.0001)                 1.949479859617814E+05,      /* J =  5 */
(PID.TID 0000.0001)                 2.223549467040777E+05,      /* J =  6 */
(PID.TID 0000.0001)                 2.486786164970726E+05,      /* J =  7 */
(PID.TID 0000.0001)                 2.737907490675810E+05,      /* J =  8 */
(PID.TID 0000.0001)                 2.975690006299821E+05,      /* J =  9 */
(PID.TID 0000.0001)                 3.198975259328452E+05,      /* J = 10 */
(PID.TID 0000.0001)                 3.406675426453503E+05,      /* J = 11 */
(PID.TID 0000.0001)                 3.597778613338690E+05,      /* J = 12 */
(PID.TID 0000.0001)                 3.771353784467131E+05,      /* J = 13 */
(PID.TID 0000.0001)                 3.926555299052806E+05,      /* J = 14 */
(PID.TID 0000.0001)                 4.062627030917454E+05,      /* J = 15 */
(PID.TID 0000.0001)                 4.178906052261313E+05,      /* J = 16 */
(PID.TID 0000.0001)                 4.274825863380723E+05,      /* J = 17 */
(PID.TID 0000.0001)                 4.349919152597734E+05,      /* J = 18 */
(PID.TID 0000.0001)                 4.403820072955634E+05,      /* J = 19 */
(PID.TID 0000.0001)                 4.436266024588540E+05,      /* J = 20 */
(PID.TID 0000.0001)                 4.447098934081552E+05,      /* J = 21 */
(PID.TID 0000.0001)                 4.436266024588540E+05,      /* J = 22 */
(PID.TID 0000.0001)                 4.403820072955634E+05,      /* J = 23 */
(PID.TID 0000.0001)                 4.349919152597734E+05,      /* J = 24 */
(PID.TID 0000.0001)                 4.274825863380723E+05,      /* J = 25 */
(PID.TID 0000.0001)                 4.178906052261313E+05,      /* J = 26 */
(PID.TID 0000.0001)                 4.062627030917454E+05,      /* J = 27 */
(PID.TID 0000.0001)                 3.926555299052806E+05,      /* J = 28 */
(PID.TID 0000.0001)                 3.771353784467131E+05,      /* J = 29 */
(PID.TID 0000.0001)                 3.597778613338690E+05,      /* J = 30 */
(PID.TID 0000.0001)                 3.406675426453503E+05,      /* J = 31 */
(PID.TID 0000.0001)                 3.198975259328452E+05,      /* J = 32 */
(PID.TID 0000.0001)                 2.975690006299821E+05,      /* J = 33 */
(PID.TID 0000.0001)                 2.737907490675810E+05,      /* J = 34 */
(PID.TID 0000.0001)                 2.486786164970726E+05,      /* J = 35 */
(PID.TID 0000.0001)                 2.223549467040777E+05,      /* J = 36 */
(PID.TID 0000.0001)                 1.949479859617814E+05,      /* J = 37 */
(PID.TID 0000.0001)                 1.665912582279823E+05,      /* J = 38 */
(PID.TID 0000.0001)                 1.374229146297914E+05,      /* J = 39 */
(PID.TID 0000.0001)                 1.075850604052271E+05       /* J = 40 */
(PID.TID 0000.0001)     ;
(PID.TID 0000.0001) dyG =  /* dyG(:,1,:,1) ( units: m ) */
(PID.TID 0000.0001)    90 @  4.447098934081552E+05              /* I =  1: 90 */
(PID.TID 0000.0001)     ;
(PID.TID 0000.0001) dyG =  /* dyG(1,:,1,:) ( units: m ) */
(PID.TID 0000.0001)    40 @  4.447098934081552E+05              /* J =  1: 40 */
(PID.TID 0000.0001)     ;
(PID.TID 0000.0001) dxC =  /* dxC(:,1,:,1) ( units: m ) */
(PID.TID 0000.0001)    90 @  9.246038586187513E+04              /* I =  1: 90 */
(PID.TID 0000.0001)     ;
(PID.TID 0000.0001) dxC =  /* dxC(1,:,1,:) ( units: m ) */
(PID.TID 0000.0001)                 9.246038586187513E+04,      /* J =  1 */
(PID.TID 0000.0001)                 1.225786591246834E+05,      /* J =  2 */
(PID.TID 0000.0001)                 1.520997414818001E+05,      /* J =  3 */
(PID.TID 0000.0001)                 1.808798091874300E+05,      /* J =  4 */
(PID.TID 0000.0001)                 2.087786486446736E+05,      /* J =  5 */
(PID.TID 0000.0001)                 2.356603395120765E+05,      /* J =  6 */
(PID.TID 0000.0001)                 2.613939168938713E+05,      /* J =  7 */
(PID.TID 0000.0001)                 2.858540093877838E+05,      /* J =  8 */
(PID.TID 0000.0001)                 3.089214498819034E+05,      /* J =  9 */
(PID.TID 0000.0001)                 3.304838561248741E+05,      /* J = 10 */
(PID.TID 0000.0001)                 3.504361782409254E+05,      /* J = 11 */
(PID.TID 0000.0001)                 3.686812105223082E+05,      /* J = 12 */
(PID.TID 0000.0001)                 3.851300650057323E+05,      /* J = 13 */
(PID.TID 0000.0001)                 3.997026045255871E+05,      /* J = 14 */
(PID.TID 0000.0001)                 4.123278331341585E+05,      /* J = 15 */
(PID.TID 0000.0001)                 4.229442419867491E+05,      /* J = 16 */
(PID.TID 0000.0001)                 4.315001090065870E+05,      /* J = 17 */
(PID.TID 0000.0001)                 4.379537508695838E+05,      /* J = 18 */
(PID.TID 0000.0001)                 4.422737260813012E+05,      /* J = 19 */
(PID.TID 0000.0001)     2 @  4.444389881567502E+05,             /* J = 20: 21 */
(PID.TID 0000.0001)                 4.422737260813012E+05,      /* J = 22 */
(PID.TID 0000.0001)                 4.379537508695838E+05,      /* J = 23 */
(PID.TID 0000.0001)                 4.315001090065870E+05,      /* J = 24 */
(PID.TID 0000.0001)                 4.229442419867491E+05,      /* J = 25 */
(PID.TID 0000.0001)                 4.123278331341585E+05,      /* J = 26 */
(PID.TID 0000.0001)                 3.997026045255871E+05,      /* J = 27 */
(PID.TID 0000.0001)                 3.851300650057323E+05,      /* J = 28 */
(PID.TID 0000.0001)                 3.686812105223082E+05,      /* J = 29 */
(PID.TID 0000.0001)                 3.504361782409254E+05,      /* J = 30 */
(PID.TID 0000.0001)                 3.304838561248741E+05,      /* J = 31 */
(PID.TID 0000.0001)                 3.089214498819034E+05,      /* J = 32 */
(PID.TID 0000.0001)                 2.858540093877838E+05,      /* J = 33 */
(PID.TID 0000.0001)                 2.613939168938713E+05,      /* J = 34 */
(PID.TID 0000.0001)                 2.356603395120765E+05,      /* J = 35 */
(PID.TID 0000.0001)                 2.087786486446736E+05,      /* J = 36 */
(PID.TID 0000.0001)                 1.808798091874300E+05,      /* J = 37 */
(PID.TID 0000.0001)                 1.520997414818001E+05,      /* J = 38 */
(PID.TID 0000.0001)                 1.225786591246834E+05,      /* J = 39 */
(PID.TID 0000.0001)                 9.246038586187513E+04       /* J = 40 */
(PID.TID 0000.0001)     ;
(PID.TID 0000.0001) dyC =  /* dyC(:,1,:,1) ( units: m ) */
(PID.TID 0000.0001)    90 @  4.447098934081552E+05              /* I =  1: 90 */
(PID.TID 0000.0001)     ;
(PID.TID 0000.0001) dyC =  /* dyC(1,:,1,:) ( units: m ) */
(PID.TID 0000.0001)    40 @  4.447098934081552E+05              /* J =  1: 40 */
(PID.TID 0000.0001)     ;
(PID.TID 0000.0001) dxV =  /* dxV(:,1,:,1) ( units: m ) */
(PID.TID 0000.0001)    90 @  7.722306258078101E+04              /* I =  1: 90 */
(PID.TID 0000.0001)     ;
(PID.TID 0000.0001) dxV =  /* dxV(1,:,1,:) ( units: m ) */
(PID.TID 0000.0001)                 7.722306258078101E+04,      /* J =  1 */
(PID.TID 0000.0001)                 1.075850604052271E+05,      /* J =  2 */
(PID.TID 0000.0001)                 1.374229146297914E+05,      /* J =  3 */
(PID.TID 0000.0001)                 1.665912582279823E+05,      /* J =  4 */
(PID.TID 0000.0001)                 1.949479859617814E+05,      /* J =  5 */
(PID.TID 0000.0001)                 2.223549467040777E+05,      /* J =  6 */
(PID.TID 0000.0001)                 2.486786164970726E+05,      /* J =  7 */
(PID.TID 0000.0001)                 2.737907490675810E+05,      /* J =  8 */
(PID.TID 0000.0001)                 2.975690006299821E+05,      /* J =  9 */
(PID.TID 0000.0001)                 3.198975259328452E+05,      /* J = 10 */
(PID.TID 0000.0001)                 3.406675426453503E+05,      /* J = 11 */
(PID.TID 0000.0001)                 3.597778613338690E+05,      /* J = 12 */
(PID.TID 0000.0001)                 3.771353784467131E+05,      /* J = 13 */
(PID.TID 0000.0001)                 3.926555299052806E+05,      /* J = 14 */
(PID.TID 0000.0001)                 4.062627030917454E+05,      /* J = 15 */
(PID.TID 0000.0001)                 4.178906052261313E+05,      /* J = 16 */
(PID.TID 0000.0001)                 4.274825863380723E+05,      /* J = 17 */
(PID.TID 0000.0001)                 4.349919152597734E+05,      /* J = 18 */
(PID.TID 0000.0001)                 4.403820072955634E+05,      /* J = 19 */
(PID.TID 0000.0001)                 4.436266024588540E+05,      /* J = 20 */
(PID.TID 0000.0001)                 4.447098934081552E+05,      /* J = 21 */
(PID.TID 0000.0001)                 4.436266024588540E+05,      /* J = 22 */
(PID.TID 0000.0001)                 4.403820072955634E+05,      /* J = 23 */
(PID.TID 0000.0001)                 4.349919152597734E+05,      /* J = 24 */
(PID.TID 0000.0001)                 4.274825863380723E+05,      /* J = 25 */
(PID.TID 0000.0001)                 4.178906052261313E+05,      /* J = 26 */
(PID.TID 0000.0001)                 4.062627030917454E+05,      /* J = 27 */
(PID.TID 0000.0001)                 3.926555299052806E+05,      /* J = 28 */
(PID.TID 0000.0001)                 3.771353784467131E+05,      /* J = 29 */
(PID.TID 0000.0001)                 3.597778613338690E+05,      /* J = 30 */
(PID.TID 0000.0001)                 3.406675426453503E+05,      /* J = 31 */
(PID.TID 0000.0001)                 3.198975259328452E+05,      /* J = 32 */
(PID.TID 0000.0001)                 2.975690006299821E+05,      /* J = 33 */
(PID.TID 0000.0001)                 2.737907490675810E+05,      /* J = 34 */
(PID.TID 0000.0001)                 2.486786164970726E+05,      /* J = 35 */
(PID.TID 0000.0001)                 2.223549467040777E+05,      /* J = 36 */
(PID.TID 0000.0001)                 1.949479859617814E+05,      /* J = 37 */
(PID.TID 0000.0001)                 1.665912582279823E+05,      /* J = 38 */
(PID.TID 0000.0001)                 1.374229146297914E+05,      /* J = 39 */
(PID.TID 0000.0001)                 1.075850604052271E+05       /* J = 40 */
(PID.TID 0000.0001)     ;
(PID.TID 0000.0001) dyU =  /* dyU(:,1,:,1) ( units: m ) */
(PID.TID 0000.0001)    90 @  4.447098934081552E+05              /* I =  1: 90 */
(PID.TID 0000.0001)     ;
(PID.TID 0000.0001) dyU =  /* dyU(1,:,1,:) ( units: m ) */
(PID.TID 0000.0001)    40 @  4.447098934081552E+05              /* J =  1: 40 */
(PID.TID 0000.0001)     ;
(PID.TID 0000.0001) rA  =  /* rA (:,1,:,1) ( units: m^2 ) */
(PID.TID 0000.0001)    90 @  4.110969866729047E+10              /* I =  1: 90 */
(PID.TID 0000.0001)     ;
(PID.TID 0000.0001) rA  =  /* rA (1,:,1,:) ( units: m^2 ) */
(PID.TID 0000.0001)                 4.110969866729047E+10,      /* J =  1 */
(PID.TID 0000.0001)                 5.450087291636665E+10,      /* J =  2 */
(PID.TID 0000.0001)                 6.762652439100235E+10,      /* J =  3 */
(PID.TID 0000.0001)                 8.042270623659998E+10,      /* J =  4 */
(PID.TID 0000.0001)                 9.282707674147523E+10,      /* J =  5 */
(PID.TID 0000.0001)                 1.047792030594103E+11,      /* J =  6 */
(PID.TID 0000.0001)                 1.162208556324093E+11,      /* J =  7 */
(PID.TID 0000.0001)                 1.270962918792468E+11,      /* J =  8 */
(PID.TID 0000.0001)                 1.373525277677229E+11,      /* J =  9 */
(PID.TID 0000.0001)                 1.469395959475426E+11,      /* J = 10 */
(PID.TID 0000.0001)                 1.558107891862220E+11,      /* J = 11 */
(PID.TID 0000.0001)                 1.639228879220326E+11,      /* J = 12 */
(PID.TID 0000.0001)                 1.712363708253573E+11,      /* J = 13 */
(PID.TID 0000.0001)                 1.777156073426415E+11,      /* J = 14 */
(PID.TID 0000.0001)                 1.833290312848623E+11,      /* J = 15 */
(PID.TID 0000.0001)                 1.880492946148330E+11,      /* J = 16 */
(PID.TID 0000.0001)                 1.918534006840893E+11,      /* J = 17 */
(PID.TID 0000.0001)                 1.947228162702492E+11,      /* J = 18 */
(PID.TID 0000.0001)                 1.966435618690094E+11,      /* J = 19 */
(PID.TID 0000.0001)     2 @  1.976062798008856E+11,             /* J = 20: 21 */
(PID.TID 0000.0001)                 1.966435618690094E+11,      /* J = 22 */
(PID.TID 0000.0001)                 1.947228162702492E+11,      /* J = 23 */
(PID.TID 0000.0001)                 1.918534006840893E+11,      /* J = 24 */
(PID.TID 0000.0001)                 1.880492946148330E+11,      /* J = 25 */
(PID.TID 0000.0001)                 1.833290312848623E+11,      /* J = 26 */
(PID.TID 0000.0001)                 1.777156073426415E+11,      /* J = 27 */
(PID.TID 0000.0001)                 1.712363708253573E+11,      /* J = 28 */
(PID.TID 0000.0001)                 1.639228879220326E+11,      /* J = 29 */
(PID.TID 0000.0001)                 1.558107891862220E+11,      /* J = 30 */
(PID.TID 0000.0001)                 1.469395959475426E+11,      /* J = 31 */
(PID.TID 0000.0001)                 1.373525277677229E+11,      /* J = 32 */
(PID.TID 0000.0001)                 1.270962918792468E+11,      /* J = 33 */
(PID.TID 0000.0001)                 1.162208556324093E+11,      /* J = 34 */
(PID.TID 0000.0001)                 1.047792030594103E+11,      /* J = 35 */
(PID.TID 0000.0001)                 9.282707674147523E+10,      /* J = 36 */
(PID.TID 0000.0001)                 8.042270623659998E+10,      /* J = 37 */
(PID.TID 0000.0001)                 6.762652439100235E+10,      /* J = 38 */
(PID.TID 0000.0001)                 5.450087291636665E+10,      /* J = 39 */
(PID.TID 0000.0001)                 4.110969866729047E+10       /* J = 40 */
(PID.TID 0000.0001)     ;
(PID.TID 0000.0001) rAw =  /* rAw(:,1,:,1) ( units: m^2 ) */
(PID.TID 0000.0001)    90 @  4.110969866729047E+10              /* I =  1: 90 */
(PID.TID 0000.0001)     ;
(PID.TID 0000.0001) rAw =  /* rAw(1,:,1,:) ( units: m^2 ) */
(PID.TID 0000.0001)                 4.110969866729047E+10,      /* J =  1 */
(PID.TID 0000.0001)                 5.450087291636665E+10,      /* J =  2 */
(PID.TID 0000.0001)                 6.762652439100235E+10,      /* J =  3 */
(PID.TID 0000.0001)                 8.042270623659998E+10,      /* J =  4 */
(PID.TID 0000.0001)                 9.282707674147523E+10,      /* J =  5 */
(PID.TID 0000.0001)                 1.047792030594103E+11,      /* J =  6 */
(PID.TID 0000.0001)                 1.162208556324093E+11,      /* J =  7 */
(PID.TID 0000.0001)                 1.270962918792468E+11,      /* J =  8 */
(PID.TID 0000.0001)                 1.373525277677229E+11,      /* J =  9 */
(PID.TID 0000.0001)                 1.469395959475426E+11,      /* J = 10 */
(PID.TID 0000.0001)                 1.558107891862220E+11,      /* J = 11 */
(PID.TID 0000.0001)                 1.639228879220326E+11,      /* J = 12 */
(PID.TID 0000.0001)                 1.712363708253573E+11,      /* J = 13 */
(PID.TID 0000.0001)                 1.777156073426415E+11,      /* J = 14 */
(PID.TID 0000.0001)                 1.833290312848623E+11,      /* J = 15 */
(PID.TID 0000.0001)                 1.880492946148330E+11,      /* J = 16 */
(PID.TID 0000.0001)                 1.918534006840893E+11,      /* J = 17 */
(PID.TID 0000.0001)                 1.947228162702492E+11,      /* J = 18 */
(PID.TID 0000.0001)                 1.966435618690094E+11,      /* J = 19 */
(PID.TID 0000.0001)     2 @  1.976062798008856E+11,             /* J = 20: 21 */
(PID.TID 0000.0001)                 1.966435618690094E+11,      /* J = 22 */
(PID.TID 0000.0001)                 1.947228162702492E+11,      /* J = 23 */
(PID.TID 0000.0001)                 1.918534006840893E+11,      /* J = 24 */
(PID.TID 0000.0001)                 1.880492946148330E+11,      /* J = 25 */
(PID.TID 0000.0001)                 1.833290312848623E+11,      /* J = 26 */
(PID.TID 0000.0001)                 1.777156073426415E+11,      /* J = 27 */
(PID.TID 0000.0001)                 1.712363708253573E+11,      /* J = 28 */
(PID.TID 0000.0001)                 1.639228879220326E+11,      /* J = 29 */
(PID.TID 0000.0001)                 1.558107891862220E+11,      /* J = 30 */
(PID.TID 0000.0001)                 1.469395959475426E+11,      /* J = 31 */
(PID.TID 0000.0001)                 1.373525277677229E+11,      /* J = 32 */
(PID.TID 0000.0001)                 1.270962918792468E+11,      /* J = 33 */
(PID.TID 0000.0001)                 1.162208556324093E+11,      /* J = 34 */
(PID.TID 0000.0001)                 1.047792030594103E+11,      /* J = 35 */
(PID.TID 0000.0001)                 9.282707674147523E+10,      /* J = 36 */
(PID.TID 0000.0001)                 8.042270623659998E+10,      /* J = 37 */
(PID.TID 0000.0001)                 6.762652439100235E+10,      /* J = 38 */
(PID.TID 0000.0001)                 5.450087291636665E+10,      /* J = 39 */
(PID.TID 0000.0001)                 4.110969866729047E+10       /* J = 40 */
(PID.TID 0000.0001)     ;
(PID.TID 0000.0001) rAs =  /* rAs(:,1,:,1) ( units: m^2 ) */
(PID.TID 0000.0001)    90 @  3.433488626798250E+10              /* I =  1: 90 */
(PID.TID 0000.0001)     ;
(PID.TID 0000.0001) rAs =  /* rAs(1,:,1,:) ( units: m^2 ) */
(PID.TID 0000.0001)                 3.433488626798250E+10,      /* J =  1 */
(PID.TID 0000.0001)                 4.783442523123625E+10,      /* J =  2 */
(PID.TID 0000.0001)                 6.110091968306414E+10,      /* J =  3 */
(PID.TID 0000.0001)                 7.406973659603818E+10,      /* J =  4 */
(PID.TID 0000.0001)                 8.667769319778079E+10,      /* J =  5 */
(PID.TID 0000.0001)                 9.886336479107463E+10,      /* J =  6 */
(PID.TID 0000.0001)                 1.105673840088173E+11,      /* J =  7 */
(PID.TID 0000.0001)                 1.217327300458638E+11,      /* J =  8 */
(PID.TID 0000.0001)                 1.323050064586578E+11,      /* J =  9 */
(PID.TID 0000.0001)                 1.422327061792377E+11,      /* J = 10 */
(PID.TID 0000.0001)                 1.514674624524945E+11,      /* J = 11 */
(PID.TID 0000.0001)                 1.599642844741385E+11,      /* J = 12 */
(PID.TID 0000.0001)                 1.676817765813788E+11,      /* J = 13 */
(PID.TID 0000.0001)                 1.745823399284268E+11,      /* J = 14 */
(PID.TID 0000.0001)                 1.806323556642996E+11,      /* J = 15 */
(PID.TID 0000.0001)                 1.858023487204767E+11,      /* J = 16 */
(PID.TID 0000.0001)                 1.900671314104743E+11,      /* J = 17 */
(PID.TID 0000.0001)                 1.934059261417216E+11,      /* J = 18 */
(PID.TID 0000.0001)                 1.958024666419019E+11,      /* J = 19 */
(PID.TID 0000.0001)                 1.972450772065981E+11,      /* J = 20 */
(PID.TID 0000.0001)                 1.977267295821495E+11,      /* J = 21 */
(PID.TID 0000.0001)                 1.972450772065981E+11,      /* J = 22 */
(PID.TID 0000.0001)                 1.958024666419019E+11,      /* J = 23 */
(PID.TID 0000.0001)                 1.934059261417216E+11,      /* J = 24 */
(PID.TID 0000.0001)                 1.900671314104743E+11,      /* J = 25 */
(PID.TID 0000.0001)                 1.858023487204767E+11,      /* J = 26 */
(PID.TID 0000.0001)                 1.806323556642996E+11,      /* J = 27 */
(PID.TID 0000.0001)                 1.745823399284268E+11,      /* J = 28 */
(PID.TID 0000.0001)                 1.676817765813788E+11,      /* J = 29 */
(PID.TID 0000.0001)                 1.599642844741385E+11,      /* J = 30 */
(PID.TID 0000.0001)                 1.514674624524945E+11,      /* J = 31 */
(PID.TID 0000.0001)                 1.422327061792377E+11,      /* J = 32 */
(PID.TID 0000.0001)                 1.323050064586578E+11,      /* J = 33 */
(PID.TID 0000.0001)                 1.217327300458638E+11,      /* J = 34 */
(PID.TID 0000.0001)                 1.105673840088173E+11,      /* J = 35 */
(PID.TID 0000.0001)                 9.886336479107463E+10,      /* J = 36 */
(PID.TID 0000.0001)                 8.667769319778079E+10,      /* J = 37 */
(PID.TID 0000.0001)                 7.406973659603818E+10,      /* J = 38 */
(PID.TID 0000.0001)                 6.110091968306414E+10,      /* J = 39 */
(PID.TID 0000.0001)                 4.783442523123625E+10       /* J = 40 */
(PID.TID 0000.0001)     ;
(PID.TID 0000.0001) globalArea = /* Integrated horizontal Area (m^2) */
(PID.TID 0000.0001)                 3.450614146649838E+14
(PID.TID 0000.0001)     ;
(PID.TID 0000.0001) the_run_name = /* Name of this simulation */
(PID.TID 0000.0001)               'global_oce_latlon'
(PID.TID 0000.0001)     ;
(PID.TID 0000.0001) // =======================================================
(PID.TID 0000.0001) // End of Model config. summary
(PID.TID 0000.0001) // =======================================================
(PID.TID 0000.0001) 
(PID.TID 0000.0001) == Packages configuration : Check & print summary ==
(PID.TID 0000.0001) 
(PID.TID 0000.0001) GMREDI_CHECK: #define GMREDI
(PID.TID 0000.0001) GM_AdvForm =     /* if FALSE => use SkewFlux Form */
(PID.TID 0000.0001)                   F
(PID.TID 0000.0001)     ;
(PID.TID 0000.0001) GM_InMomAsStress = /* if TRUE => apply as Eddy Stress */
(PID.TID 0000.0001)                   F
(PID.TID 0000.0001)     ;
(PID.TID 0000.0001) GM_AdvSeparate = /* Calc Bolus & Euler Adv. separately */
(PID.TID 0000.0001)                   F
(PID.TID 0000.0001)     ;
(PID.TID 0000.0001) GM_ExtraDiag =   /* Tensor Extra Diag (line 1&2) non 0 */
(PID.TID 0000.0001)                   F
(PID.TID 0000.0001)     ;
(PID.TID 0000.0001) GM_isopycK =    /* Background Isopyc. Diffusivity [m^2/s] */
(PID.TID 0000.0001)                 1.000000000000000E+03
(PID.TID 0000.0001)     ;
(PID.TID 0000.0001) GM_skewflx*K =  /* Background GM_SkewFlx Diffusivity [m^2/s] */
(PID.TID 0000.0001)                 1.000000000000000E+03
(PID.TID 0000.0001)     ;
(PID.TID 0000.0001) GM_advec*K =    /* Backg. GM-Advec(=Bolus) Diffusivity [m^2/s]*/
(PID.TID 0000.0001)                 0.000000000000000E+00
(PID.TID 0000.0001)     ;
(PID.TID 0000.0001) GM_Kmin_horiz = /* Minimum Horizontal Diffusivity [m^2/s] */
(PID.TID 0000.0001)                 5.000000000000000E+01
(PID.TID 0000.0001)     ;
(PID.TID 0000.0001) GM_Visbeck_alpha = /* Visbeck alpha coeff. [-] */
(PID.TID 0000.0001)                 0.000000000000000E+00
(PID.TID 0000.0001)     ;
(PID.TID 0000.0001) GM_Small_Number =  /* epsilon used in slope calc */
(PID.TID 0000.0001)                 9.999999999999999E-21
(PID.TID 0000.0001)     ;
(PID.TID 0000.0001) GM_slopeSqCutoff = /* Slope^2 cut-off value */
(PID.TID 0000.0001)                 1.000000000000000E+48
(PID.TID 0000.0001)     ;
(PID.TID 0000.0001) GM_taper_scheme =  /* Type of Tapering/Clipping scheme */
(PID.TID 0000.0001)               'gkw91                                   '
(PID.TID 0000.0001)     ;
(PID.TID 0000.0001) GM_maxSlope =  /* Maximum Slope (Tapering/Clipping) */
(PID.TID 0000.0001)                 1.000000000000000E-02
(PID.TID 0000.0001)     ;
(PID.TID 0000.0001) GM_facTrL2dz = /* Minimum Trans.Layer Thick. (factor of dz) */
(PID.TID 0000.0001)                 1.000000000000000E+00
(PID.TID 0000.0001)     ;
(PID.TID 0000.0001) GM_facTrL2ML = /* Max.Trans.Layer Thick. (factor of MxL Depth)*/
(PID.TID 0000.0001)                 5.000000000000000E+00
(PID.TID 0000.0001)     ;
(PID.TID 0000.0001) GM_maxTransLay = /* Maximum Transition Layer Thickness [m] */
(PID.TID 0000.0001)                 5.000000000000000E+02
(PID.TID 0000.0001)     ;
(PID.TID 0000.0001) GM_UseBVP = /* if TRUE => use bvp a la Ferrari et al. (2010) */
(PID.TID 0000.0001)                   F
(PID.TID 0000.0001)     ;
(PID.TID 0000.0001) GM_BVP_ModeNumber = /* Vertical mode number for BVP wave speed */
(PID.TID 0000.0001)                       1
(PID.TID 0000.0001)     ;
(PID.TID 0000.0001) GM_BVP_cMin = /* Minimum wave speed for BVP [m/s] */
(PID.TID 0000.0001)                 1.000000000000000E-01
(PID.TID 0000.0001)     ;
(PID.TID 0000.0001) GM_useSubMeso = /* if TRUE => use Sub-Meso param. (B.Fox-Kemper) */
(PID.TID 0000.0001)                   F
(PID.TID 0000.0001)     ;
(PID.TID 0000.0001) subMeso_Ceff = /* efficiency coeff. of Mixed-Layer Eddies [-] */
(PID.TID 0000.0001)                 7.000000000000001E-02
(PID.TID 0000.0001)     ;
(PID.TID 0000.0001) subMeso_invTau = /* inverse of Sub-Meso mixing time-scale [/s] */
(PID.TID 0000.0001)                 2.000000000000000E-06
(PID.TID 0000.0001)     ;
(PID.TID 0000.0001) subMeso_LfMin = /* minimum length-scale "Lf" [m] */
(PID.TID 0000.0001)                 1.000000000000000E+03
(PID.TID 0000.0001)     ;
(PID.TID 0000.0001) subMeso_Lmax = /* maximum grid-scale length [m] */
(PID.TID 0000.0001)                 1.100000000000000E+05
(PID.TID 0000.0001)     ;
(PID.TID 0000.0001) GM_useLeithQG = /* if TRUE => add QG Leith viscosity to GMRedi tensor */
(PID.TID 0000.0001)                   F
(PID.TID 0000.0001)     ;
(PID.TID 0000.0001) GAD_CHECK: #define ALLOW_GENERIC_ADVDIFF
(PID.TID 0000.0001) // =======================================================
(PID.TID 0000.0001) // Check Model config. (CONFIG_CHECK):
(PID.TID 0000.0001) // CONFIG_CHECK : Normal End
(PID.TID 0000.0001) // =======================================================
(PID.TID 0000.0001) 
(PID.TID 0000.0001)  MDS_WRITE_FIELD: it,rec,kS,kL,kH=      -1     1   1   1   1 file=XC
(PID.TID 0000.0001)  MDS_WRITE_FIELD: it,rec,kS,kL,kH=      -1     1   1   1   1 file=YC
(PID.TID 0000.0001)  MDS_WRITE_FIELD: it,rec,kS,kL,kH=      -1     1   1   1   1 file=XG
(PID.TID 0000.0001)  MDS_WRITE_FIELD: it,rec,kS,kL,kH=      -1     1   1   1   1 file=YG
(PID.TID 0000.0001)  MDS_WRITE_FIELD: it,rec,kS,kL,kH=      -1     1   1   1   1 file=RAC
(PID.TID 0000.0001)  MDS_WRITE_FIELD: it,rec,kS,kL,kH=      -1     1   1   1   1 file=RAW
(PID.TID 0000.0001)  MDS_WRITE_FIELD: it,rec,kS,kL,kH=      -1     1   1   1   1 file=RAS
(PID.TID 0000.0001)  MDS_WRITE_FIELD: it,rec,kS,kL,kH=      -1     1   1   1   1 file=RAZ
(PID.TID 0000.0001)  MDS_WRITE_FIELD: it,rec,kS,kL,kH=      -1     1   1   1   1 file=DXG
(PID.TID 0000.0001)  MDS_WRITE_FIELD: it,rec,kS,kL,kH=      -1     1   1   1   1 file=DYG
(PID.TID 0000.0001)  MDS_WRITE_FIELD: it,rec,kS,kL,kH=      -1     1   1   1   1 file=DXC
(PID.TID 0000.0001)  MDS_WRITE_FIELD: it,rec,kS,kL,kH=      -1     1   1   1   1 file=DYC
(PID.TID 0000.0001)  MDS_WRITE_FIELD: it,rec,kS,kL,kH=      -1     1   1   1   1 file=DXF
(PID.TID 0000.0001)  MDS_WRITE_FIELD: it,rec,kS,kL,kH=      -1     1   1   1   1 file=DYF
(PID.TID 0000.0001)  MDS_WRITE_FIELD: it,rec,kS,kL,kH=      -1     1   1   1   1 file=DXV
(PID.TID 0000.0001)  MDS_WRITE_FIELD: it,rec,kS,kL,kH=      -1     1   1   1   1 file=DYU
(PID.TID 0000.0001)  MDS_WRITE_FIELD: it,rec,kS,kL,kH=      -1     1   1   1   1 file=Depth
(PID.TID 0000.0001)  MDS_WRITE_FIELD: it,rec,kS,kL,kH=      -1     1   1   1   1 file=rLowC
(PID.TID 0000.0001)  MDS_WRITE_FIELD: it,rec,kS,kL,kH=      -1     1   1   1   1 file=rLowW
(PID.TID 0000.0001)  MDS_WRITE_FIELD: it,rec,kS,kL,kH=      -1     1   1   1   1 file=rLowS
(PID.TID 0000.0001)  MDS_WRITE_FIELD: it,rec,kS,kL,kH=      -1     1   1   1   1 file=rSurfC
(PID.TID 0000.0001)  MDS_WRITE_FIELD: it,rec,kS,kL,kH=      -1     1   1   1   1 file=rSurfW
(PID.TID 0000.0001)  MDS_WRITE_FIELD: it,rec,kS,kL,kH=      -1     1   1   1   1 file=rSurfS
(PID.TID 0000.0001)  MDS_WRITE_FIELD: it,rec,kS,kL,kH=       0     1  15   1  15 file=hFacC
(PID.TID 0000.0001)  MDS_WRITE_FIELD: it,rec,kS,kL,kH=       0     1  15   1  15 file=hFacW
(PID.TID 0000.0001)  MDS_WRITE_FIELD: it,rec,kS,kL,kH=       0     1  15   1  15 file=hFacS
(PID.TID 0000.0001)  MDS_WRITEVEC_LOC: open file: RC.data
(PID.TID 0000.0001)  MDS_WR_REC_RS: iRec,Dim =         1         15
(PID.TID 0000.0001)  MDS_WRITEVEC_LOC: open file: RF.data
(PID.TID 0000.0001)  MDS_WR_REC_RS: iRec,Dim =         1         16
(PID.TID 0000.0001)  MDS_WRITEVEC_LOC: open file: DRC.data
(PID.TID 0000.0001)  MDS_WR_REC_RS: iRec,Dim =         1         16
(PID.TID 0000.0001)  MDS_WRITEVEC_LOC: open file: DRF.data
(PID.TID 0000.0001)  MDS_WR_REC_RS: iRec,Dim =         1         15
(PID.TID 0000.0001)  MDS_WRITEVEC_LOC: open file: PHrefF.data
(PID.TID 0000.0001)  MDS_WR_REC_RS: iRec,Dim =         1         16
(PID.TID 0000.0001)  MDS_WRITEVEC_LOC: open file: PHrefC.data
(PID.TID 0000.0001)  MDS_WR_REC_RS: iRec,Dim =         1         15
(PID.TID 0000.0001)  MDS_READ_FIELD: opening global file: lev_t.bin
(PID.TID 0000.0001) // =======================================================
(PID.TID 0000.0001) // Field Initial Temperature at iteration          1
(PID.TID 0000.0001) // CMIN =         -1.900000000000000E+00
(PID.TID 0000.0001) // CMAX =          2.973338890075684E+01
(PID.TID 0000.0001) // CINT =          1.171606996324327E+00
(PID.TID 0000.0001) // SYMBOLS (CMIN->CMAX): -abcdefghijklmnopqrstuvwxyz+
(PID.TID 0000.0001) //                  0.0: .
(PID.TID 0000.0001) // RANGE I (Lo:Hi:Step):(     1:    90:     1)
(PID.TID 0000.0001) // RANGE J (Lo:Hi:Step):(    40:     1:    -1)
(PID.TID 0000.0001) // RANGE K (Lo:Hi:Step):(   1:   1:   1)
(PID.TID 0000.0001) // =======================================================
(PID.TID 0000.0001) K =   1
(PID.TID 0000.0001)                I=10      I=20      I=30      I=40      I=50      I=60      I=70      I=80      I=90
(PID.TID 0000.0001) |--J--|123456789|123456789|123456789|123456789|123456789|123456789|123456789|123456789|123456789|
(PID.TID 0000.0001)     40 bccdd.baa----abdedd..................................................................bbbbb
(PID.TID 0000.0001)     39 ccdddddccbbbaa...ed.....................................................----........bbbbbb
(PID.TID 0000.0001)     38 fffgfedeedddc...........................................................-----......cbbbcde
(PID.TID 0000.0001)     37 ghh..................................................................bc...bbc...edeed.defg
(PID.TID 0000.0001)     36 hh.........................................ddcb....................dcccbabccdd.eefghhihhih
(PID.TID 0000.0001)     35 hh.................................aaab..dddeddd...ffggg...........ccc....ddeeeffghijjjjih
(PID.TID 0000.0001)     34 ...................................babb.deeeeeee.ffffgghh..................ccdffghijkkkj..
(PID.TID 0000.0001)     33 ....................................accdddeeeeefffffgghhiii.................bcfijkkllllkk.
(PID.TID 0000.0001)     32 ....................................bdddeffgffgghhhhhiiijjj................dccglmnmmmmlll.
(PID.TID 0000.0001)     31 ....................................fghiiiijjjjjjkkkkklllkk..............ikkjjmooooonnmm..
(PID.TID 0000.0001)     30 ...................................mmmnmmmmmmmmmmmmmnnnnnmm............moqrrrqrqqqpppooo..
(PID.TID 0000.0001)     29 .................................pqqqqqpppppppppoppoppppponm...........ssssssrrrrrqqqqpp..
(PID.TID 0000.0001)     28 ...............................prssssrrrsssrrrrrrrrrrrrrqqpoo.........uttssstssrssrrrqqq..
(PID.TID 0000.0001)     27 ..............vv..............stuttuuuuutuuuuuuuuuuttttssrrqqq...stuu.vvvuuuuutttttsss....
(PID.TID 0000.0001)     26 ..............vvv...........uuvvvvvwwwwwwwwvvvvvvvvvuuutttsssttv.uuvxxwwwwwwvvvvuuttsr....
(PID.TID 0000.0001)     25 ..............wwwx...xxx...vvvxxxxxyyxxxxxxxxxwwwwwvvvvvuuuuuvwwx...xxxxxxwwwwwwvvutsr....
(PID.TID 0000.0001)     24 ............wwwwxyy.xxyy...wxx.yyyyyyyyyyyxxxxxxxxwwwwwwwvvwwxxyywww.xxxxxxxxxxwwwvvur....
(PID.TID 0000.0001)     23 ............xxxyyyz.xyyy...xxx..yyyyzzyyyyyyyyxxxxxxxxxwwwwwxxxwwwwwx....vwxxxxwwwwwvu....
(PID.TID 0000.0001)     22 w...........xxyyyzyyyyyz...xx.yyzzzzzzzzzzzzzyyzyyyyyyxxwwxxxxwvvvwwxw......yyyyxxxxxxwxxw
(PID.TID 0000.0001)     21 xxx........xxxxyyzzzzzzz+.....zyzzzzzzz++zzzzyyyyyyyyxxwvvwwwwvvvvvvvu........yyyyyyyyyxxx
(PID.TID 0000.0001)     20 xww.......xyyyyxyyzzzzzz+......z.zzzzz+++zzzzzzyyyyyxxxxwvwxwvuuuuuuut.........yyyyxxxxwww
(PID.TID 0000.0001)     19 vvv.......yyyyxwwxyzyyzzzzz...zzz.....++++++z++z+zzzyyyyxxxxwwvvvvvvvu...........yyxxxwwww
(PID.TID 0000.0001)     18 uut.......zzyyywwxyzyyyyzzyzzzzzz...z+z++++zz+++++++zzzyyyyxxwwwvvvvvtt..........yyxxwvvwv
(PID.TID 0000.0001)     17 uus.......z.yyyyyyxyzzyyyyyyyzz.....yzzzzzzzzzzzzzzzzzzyyyyxxwwvuuvvuut.........yyyxxwttvu
(PID.TID 0000.0001)     16 utr......yy.zyyyyxxxxxxxwxxxxy.......yyyyyyyyyyyyyyyyyyyyyyyxxwvvvuuutts........xyyyxwvuuu
(PID.TID 0000.0001)     15 ttrr....xxx.xxxwxwwwwvwwvvvww.........xwxxxxxxxxxxxxxxxxxyyyxwwwvvuttssrr......wxxxxxwwvuu
(PID.TID 0000.0001)     14 ttsq....xyxwwxwvwwwvutuuuuuuu.........wwvwwwwvwvvwwwvwvvwwwwwwvvvuuutssrr.....vwwwwwwwvvvu
(PID.TID 0000.0001)     13 tttr....wwwvvvtttuuuutttssttt.........vvvuuuuuuutttttuuuuuvwwwuuuttttssrr....uvvvvvvvvvvut
(PID.TID 0000.0001)     12 sssssstttutssssrrrrrstrqqrrssqqrrq....uuttssssrrrrrrrrrrrstttssssrssrrqp.....uuuttssttssss
(PID.TID 0000.0001)     11 poprsssrqqqqqrqppooopqpoppppppppppp..sssrrr.rqpppqqqqppppqqqoppqqqqrqqpp....prsrqqqqqppppq
(PID.TID 0000.0001)     10 lllmoooonmnnmnnnnmmmmmmlmmlllmnnnnon.qqqppp.ppppppooooooooonmnnnonnooooo..nmoponnmnnnnnmll
(PID.TID 0000.0001)      9 ihhiiiihhhhhhiiihiiiiihhhiiiijjkkmnllnnnnn.mmmmnnnnmmmmnnmmlklllllklllll.mllmmllkjiijjihhi
(PID.TID 0000.0001)      8 eeeeeeeedefgggffeeffggffffggghiiiijjijklklkkkkkkkklllkkkkjjiiijkjjjjjjkj.kkjjiihggffffedde
(PID.TID 0000.0001)      7 cccccddeedddefeddddddddddefeefffffgggghiiiiiijjjihhgggghhhhhghhhhhhhiiiihiihhgfeddddddcccc
(PID.TID 0000.0001)      6 abbcccddcccccdddddccdddddddccddddddeeeeffggggghhgeddddddeeeeeeefggggghggggffeedccbbbbbbbba
(PID.TID 0000.0001)      5 bbbcccccccccccccccccccccbbccccdddddddcccddeeddeedcbbbbbbccccccdddeeeeeddddddccbbbbaaaaaaab
(PID.TID 0000.0001)      4 bbbbbbbaaabbbbbbbbbbbbaabbabbbbcbbbbbbbbbbbbbbbbbbbabbaaabbbbbbbbbbbbbbbbb..a--aaabbbaaabb
(PID.TID 0000.0001)      3 bbbbaaa-a-............................bbaaaaaaaaaaaaaaaaaaaaaaaaaaaaaaaab..aaaaaaaabbbaaaa
(PID.TID 0000.0001)      2 ..........................................baaaaaaaaaaaa-------aa..aaaa.....aaaaaaaaaaaa...
(PID.TID 0000.0001)      1 ..........................................................................................
(PID.TID 0000.0001) // =======================================================
(PID.TID 0000.0001) // END OF FIELD                                          =
(PID.TID 0000.0001) // =======================================================
(PID.TID 0000.0001) 
(PID.TID 0000.0001)  MDS_READ_FIELD: opening global file: lev_s.bin
(PID.TID 0000.0001) // =======================================================
(PID.TID 0000.0001) // Field Initial Salinity at iteration          1
(PID.TID 0000.0001) // CMIN =          2.975276947021484E+01
(PID.TID 0000.0001) // CMAX =          3.747562789916992E+01
(PID.TID 0000.0001) // CINT =          2.860317936650029E-01
(PID.TID 0000.0001) // SYMBOLS (CMIN->CMAX): -abcdefghijklmnopqrstuvwxyz+
(PID.TID 0000.0001) //                  0.0: .
(PID.TID 0000.0001) // RANGE I (Lo:Hi:Step):(     1:    90:     1)
(PID.TID 0000.0001) // RANGE J (Lo:Hi:Step):(    40:     1:    -1)
(PID.TID 0000.0001) // RANGE K (Lo:Hi:Step):(   1:   1:   1)
(PID.TID 0000.0001) // =======================================================
(PID.TID 0000.0001) K =   1
(PID.TID 0000.0001)                I=10      I=20      I=30      I=40      I=50      I=60      I=70      I=80      I=90
(PID.TID 0000.0001) |--J--|123456789|123456789|123456789|123456789|123456789|123456789|123456789|123456789|123456789|
(PID.TID 0000.0001)     40 qrrrr.oonnooopqtutt..................................................................mnnop
(PID.TID 0000.0001)     39 rssrrrrrrrqqpn...ut.....................................................mmmm........opqqqr
(PID.TID 0000.0001)     38 ssrrqqqqrrqpo...........................................................lkkll......onoqrrs
(PID.TID 0000.0001)     37 ssr..................................................................hg...lln...qppqr.rrrs
(PID.TID 0000.0001)     36 rr.........................................lkji....................feeegikmoop.pqrssssssss
(PID.TID 0000.0001)     35 rr.................................kkkk..lllllki...jijjj...........aa-....opqrrrrrrrssttss
(PID.TID 0000.0001)     34 ...................................jlll.kklllllk.ijkkkjih..................hlpqrqrrsstts..
(PID.TID 0000.0001)     33 ....................................iklkkkkkkkkkjkkjjjjjjii.................jmprrsstttttt.
(PID.TID 0000.0001)     32 ....................................iklllkllllllllkkkkkkkji................gilpstuuttuuut.
(PID.TID 0000.0001)     31 ....................................lmnonnnnoooonnmmmmllkjj..............loopqtvvvuuuuuu..
(PID.TID 0000.0001)     30 ...................................pppppppqqqqpppoooonnmlkk............ptvxwwvvwvvvvvvvu..
(PID.TID 0000.0001)     29 .................................pqqrqqqqqqrrrqqppqqqpponmll...........vxxxxxxwwwwwxwwxw..
(PID.TID 0000.0001)     28 ...............................prrrrrqqrrrrrsrrsrssssssrqonmm.........wxxxxxxxyyyyyyyyxx..
(PID.TID 0000.0001)     27 ..............xx..............prrrrrrrrrssssssstttssssssrqpoop...uwww.wwxxxyyy++zzzzyy....
(PID.TID 0000.0001)     26 ..............wxx...........ppqrrrrrrsssrrstsstttssrrrrrrrqppqqp.wwwvvwwwwwxyy+++zzyxw....
(PID.TID 0000.0001)     25 ..............wxxv...kkk...ooopqrrrrrssrrrrrrrssssqqpppppppppppoo...vvutuuvvwxyyyxxvvu....
(PID.TID 0000.0001)     24 ............uvvwwur.lmlk...nmm.pqqqqrrrrrqqqqrrqqrpppppooooonmmmnooo.uuuuuuttuvvvuvuut....
(PID.TID 0000.0001)     23 ............vvuvtqp.lmml...mln..ppppqpqppppppqpppppppppqppponnnnnoopm....xvuuuvvvvuuut....
(PID.TID 0000.0001)     22 r...........vuttsqqpnppn...mm.oppqqrrqqqqqqppppqqrrrqqqrrppppoopooomjj......uuvvvvvuttssrr
(PID.TID 0000.0001)     21 qmm........ttsssssssrsqon.....opqqqqqqqrrrrqqqssssssrrrrrrrrpqqqppomll........tvvvvuttssrr
(PID.TID 0000.0001)     20 sqq.......sttssrrsrrrrpol......p.qrqpqrrrrrrrstttttsssrrsssrqrrrrqqqpo.........wwwvvvuuutt
(PID.TID 0000.0001)     19 tsr.......ssssrrrrpppppnmmm...oqq.....qrqqsrrstttuuuttssttssrrssrrrrqq...........wwwvuvvvv
(PID.TID 0000.0001)     18 wut.......ssrrrrrqppppppppoooorrr...poqqqprrrttttuuutuuuuuutttttttutsss..........yyxwwxwxx
(PID.TID 0000.0001)     17 wwu.......s.rrrrrrqppppqqqqqqqr.....rrsrqrsssuusrtuuuvvvwwvvvuuuuutttss.........xyzyyyyxxx
(PID.TID 0000.0001)     16 vvt......ss.qrrssrqrqpqrrrrrrr.......ssrrstsstusrsuuuvwwwwxxwwvvvuttttsr........yz+zzzxwww
(PID.TID 0000.0001)     15 utss....stt.rrssstttsrrsrstsr.........ssstttssttsuuttuvvvvwxwwwwwuttsssrr......xyyyyxyyxwv
(PID.TID 0000.0001)     14 utts....sstrrssstuuuuuuuuuutt.........stttuutttttttuttttttuvvvvvvutsrqrrr.....vxxwwwwxwvwv
(PID.TID 0000.0001)     13 uuut....ttttttttuuuuuvtuuuuuu.........ttttuutttttttuutsssstttttstsqrqqppp....uwwwvuvvvutvv
(PID.TID 0000.0001)     12 ttttttttttttttttttttttssuuuuutuuut....tttttttttttsssssrrrrrrrqqqqqppppoo.....rvvuuttttttuu
(PID.TID 0000.0001)     11 rqsttttttttuuttttsssssrrstttttttsss..ttttts.tsssrrrrqqqqqppppoonnooooooo....oruttttsssrqrs
(PID.TID 0000.0001)     10 pppqrssrqqrqpqrssrrqqqqqqrrrrrrrrrrs.sssssr.rssrrqqpppppppooooonnnoooonn..moqrrrqqqqqqqqqq
(PID.TID 0000.0001)      9 oonooooooooonnnooooooooooppppppqqqqqrrrqrq.pppqqqqqppppppppppoooooooooll.lmoqqqqppooooopoo
(PID.TID 0000.0001)      8 nnnoonooooooonnnnnnnoooonoonoooppopqqqqqqqppopppqqqpppppppppppppppooopon.lnopppoooonnnnooo
(PID.TID 0000.0001)      7 ooooooooooopponnnooooooonnnnnonnooooooooopppppppoooooooooopppppppppoopqnnmnoooonnnonnnnnno
(PID.TID 0000.0001)      6 oooonnoonnnnooooooooooooonnnnnnnnnnnnnnnnoooopppooooooooooooooppppppppppoooooooonnnnnmnnnn
(PID.TID 0000.0001)      5 oooonnnnnnnnnnnnnnnnnoooooonnnnnnonnnnnnnnnoooooooooooonnnnnnooooooopoooonoooonnnnnnnooooo
(PID.TID 0000.0001)      4 oooonnnooonnnnnnnnnnnnnnoooooonnnooooonnnooooooooppponnnnmmmnnnnmnnoonnnnn..nnnooooooooooo
(PID.TID 0000.0001)      3 ooonnnnnnn............................nnoooooonnooooonnnnnnnoonnnnnnnnmmm..ooopooooooooooo
(PID.TID 0000.0001)      2 ..........................................pppooooonnnnnnoooppppo..nnnn.....qqqpppoooooo...
(PID.TID 0000.0001)      1 ..........................................................................................
(PID.TID 0000.0001) // =======================================================
(PID.TID 0000.0001) // END OF FIELD                                          =
(PID.TID 0000.0001) // =======================================================
(PID.TID 0000.0001) 
(PID.TID 0000.0001) Start initial hydrostatic pressure computation
(PID.TID 0000.0001) Pressure is predetermined for buoyancyRelation OCEANIC
(PID.TID 0000.0001) 
(PID.TID 0000.0001)  MDS_READ_FIELD: opening global file: trenberth_taux.bin
(PID.TID 0000.0001)  MDS_READ_FIELD: opening global file: trenberth_tauy.bin
(PID.TID 0000.0001)  MDS_READ_FIELD: opening global file: ncep_qnet.bin
(PID.TID 0000.0001)  MDS_READ_FIELD: opening global file: ncep_emp.bin
(PID.TID 0000.0001)  MDS_READ_FIELD: opening global file: lev_sst.bin
(PID.TID 0000.0001)  MDS_READ_FIELD: opening global file: lev_sss.bin
(PID.TID 0000.0001) // =======================================================
(PID.TID 0000.0001) // Model current state
(PID.TID 0000.0001) // =======================================================
(PID.TID 0000.0001) 
(PID.TID 0000.0001) // =======================================================
(PID.TID 0000.0001) // Begin MONITOR dynamic field statistics
(PID.TID 0000.0001) // =======================================================
(PID.TID 0000.0001) %MON time_tsnumber                =                     0
(PID.TID 0000.0001) %MON time_secondsf                =   0.0000000000000E+00
(PID.TID 0000.0001) %MON dynstat_eta_max              =   0.0000000000000E+00
(PID.TID 0000.0001) %MON dynstat_eta_min              =   0.0000000000000E+00
(PID.TID 0000.0001) %MON dynstat_eta_mean             =   0.0000000000000E+00
(PID.TID 0000.0001) %MON dynstat_eta_sd               =   0.0000000000000E+00
(PID.TID 0000.0001) %MON dynstat_eta_del2             =   0.0000000000000E+00
(PID.TID 0000.0001) %MON dynstat_uvel_max             =   0.0000000000000E+00
(PID.TID 0000.0001) %MON dynstat_uvel_min             =   0.0000000000000E+00
(PID.TID 0000.0001) %MON dynstat_uvel_mean            =   0.0000000000000E+00
(PID.TID 0000.0001) %MON dynstat_uvel_sd              =   0.0000000000000E+00
(PID.TID 0000.0001) %MON dynstat_uvel_del2            =   0.0000000000000E+00
(PID.TID 0000.0001) %MON dynstat_vvel_max             =   0.0000000000000E+00
(PID.TID 0000.0001) %MON dynstat_vvel_min             =   0.0000000000000E+00
(PID.TID 0000.0001) %MON dynstat_vvel_mean            =   0.0000000000000E+00
(PID.TID 0000.0001) %MON dynstat_vvel_sd              =   0.0000000000000E+00
(PID.TID 0000.0001) %MON dynstat_vvel_del2            =   0.0000000000000E+00
(PID.TID 0000.0001) %MON dynstat_wvel_max             =   0.0000000000000E+00
(PID.TID 0000.0001) %MON dynstat_wvel_min             =   0.0000000000000E+00
(PID.TID 0000.0001) %MON dynstat_wvel_mean            =   0.0000000000000E+00
(PID.TID 0000.0001) %MON dynstat_wvel_sd              =   0.0000000000000E+00
(PID.TID 0000.0001) %MON dynstat_wvel_del2            =   0.0000000000000E+00
(PID.TID 0000.0001) %MON dynstat_theta_max            =   2.9733388900757E+01
(PID.TID 0000.0001) %MON dynstat_theta_min            =  -1.9000000000000E+00
(PID.TID 0000.0001) %MON dynstat_theta_mean           =   3.6197074666129E+00
(PID.TID 0000.0001) %MON dynstat_theta_sd             =   4.4174614518568E+00
(PID.TID 0000.0001) %MON dynstat_theta_del2           =   5.6229722638211E-03
(PID.TID 0000.0001) %MON dynstat_salt_max             =   3.7475627899170E+01
(PID.TID 0000.0001) %MON dynstat_salt_min             =   2.9752769470215E+01
(PID.TID 0000.0001) %MON dynstat_salt_mean            =   3.4718006161475E+01
(PID.TID 0000.0001) %MON dynstat_salt_sd              =   2.9628819587990E-01
(PID.TID 0000.0001) %MON dynstat_salt_del2            =   1.0127003139695E-03
(PID.TID 0000.0001) %MON dynstat_sst_max              =   2.9733388900757E+01
(PID.TID 0000.0001) %MON dynstat_sst_min              =  -1.9000000000000E+00
(PID.TID 0000.0001) %MON dynstat_sst_mean             =   1.8484768169451E+01
(PID.TID 0000.0001) %MON dynstat_sst_sd               =   9.1795873467430E+00
(PID.TID 0000.0001) %MON dynstat_sst_del2             =   2.7217991810411E-02
(PID.TID 0000.0001) %MON dynstat_sss_max              =   3.7475627899170E+01
(PID.TID 0000.0001) %MON dynstat_sss_min              =   2.9752769470215E+01
(PID.TID 0000.0001) %MON dynstat_sss_mean             =   3.4849925275207E+01
(PID.TID 0000.0001) %MON dynstat_sss_sd               =   9.6344930396289E-01
(PID.TID 0000.0001) %MON dynstat_sss_del2             =   8.0490524880020E-03
(PID.TID 0000.0001) %MON forcing_qnet_max             =   4.4161361694336E+02
(PID.TID 0000.0001) %MON forcing_qnet_min             =  -1.8132531738281E+02
(PID.TID 0000.0001) %MON forcing_qnet_mean            =  -1.6512526001044E+01
(PID.TID 0000.0001) %MON forcing_qnet_sd              =   1.0987288293460E+02
(PID.TID 0000.0001) %MON forcing_qnet_del2            =   1.0245701543512E+00
(PID.TID 0000.0001) %MON forcing_qsw_max              =   0.0000000000000E+00
(PID.TID 0000.0001) %MON forcing_qsw_min              =   0.0000000000000E+00
(PID.TID 0000.0001) %MON forcing_qsw_mean             =   0.0000000000000E+00
(PID.TID 0000.0001) %MON forcing_qsw_sd               =   0.0000000000000E+00
(PID.TID 0000.0001) %MON forcing_qsw_del2             =   0.0000000000000E+00
(PID.TID 0000.0001) %MON forcing_empmr_max            =   8.2174238968946E-05
(PID.TID 0000.0001) %MON forcing_empmr_min            =  -7.6155956207913E-05
(PID.TID 0000.0001) %MON forcing_empmr_mean           =   9.2293706211063E-07
(PID.TID 0000.0001) %MON forcing_empmr_sd             =   2.8800050217957E-05
(PID.TID 0000.0001) %MON forcing_empmr_del2           =   3.6757632549621E-07
(PID.TID 0000.0001) %MON forcing_fu_max               =   2.7877888083458E-01
(PID.TID 0000.0001) %MON forcing_fu_min               =  -1.7088057100773E-01
(PID.TID 0000.0001) %MON forcing_fu_mean              =   1.6001735152566E-02
(PID.TID 0000.0001) %MON forcing_fu_sd                =   9.1062350670783E-02
(PID.TID 0000.0001) %MON forcing_fu_del2              =   7.2483493833855E-04
(PID.TID 0000.0001) %MON forcing_fv_max               =   2.3312132060528E-01
(PID.TID 0000.0001) %MON forcing_fv_min               =  -1.7813690006733E-01
(PID.TID 0000.0001) %MON forcing_fv_mean              =  -5.2588977395051E-03
(PID.TID 0000.0001) %MON forcing_fv_sd                =   4.8248606070107E-02
(PID.TID 0000.0001) %MON forcing_fv_del2              =   4.9948324922575E-04
(PID.TID 0000.0001) %MON trAdv_CFL_u_max              =   0.0000000000000E+00
(PID.TID 0000.0001) %MON trAdv_CFL_v_max              =   0.0000000000000E+00
(PID.TID 0000.0001) %MON trAdv_CFL_w_max              =   0.0000000000000E+00
(PID.TID 0000.0001) %MON advcfl_uvel_max              =   0.0000000000000E+00
(PID.TID 0000.0001) %MON advcfl_vvel_max              =   0.0000000000000E+00
(PID.TID 0000.0001) %MON advcfl_wvel_max              =   0.0000000000000E+00
(PID.TID 0000.0001) %MON advcfl_W_hf_max              =   0.0000000000000E+00
(PID.TID 0000.0001) %MON pe_b_mean                    =   0.0000000000000E+00
(PID.TID 0000.0001) %MON ke_max                       =   0.0000000000000E+00
(PID.TID 0000.0001) %MON ke_mean                      =   0.0000000000000E+00
(PID.TID 0000.0001) %MON ke_vol                       =   1.3226782436723E+18
(PID.TID 0000.0001) %MON vort_r_min                   =   0.0000000000000E+00
(PID.TID 0000.0001) %MON vort_r_max                   =   0.0000000000000E+00
(PID.TID 0000.0001) %MON vort_a_mean                  =  -2.5274807396949E-05
(PID.TID 0000.0001) %MON vort_a_sd                    =   7.3604350271441E-05
(PID.TID 0000.0001) %MON vort_p_mean                  =  -3.1845655798840E-05
(PID.TID 0000.0001) %MON vort_p_sd                    =   1.3162570071703E-04
(PID.TID 0000.0001) %MON surfExpan_theta_mean         =   0.0000000000000E+00
(PID.TID 0000.0001) %MON surfExpan_salt_mean          =   0.0000000000000E+00
(PID.TID 0000.0001) // =======================================================
(PID.TID 0000.0001) // End MONITOR dynamic field statistics
(PID.TID 0000.0001) // =======================================================
(PID.TID 0000.0001) // =======================================================
(PID.TID 0000.0001) // Field Current uVel   at iteration          0
(PID.TID 0000.0001) // CMIN =          1.000000000000000E+32
(PID.TID 0000.0001) // CMAX =         -1.000000000000000E+32
(PID.TID 0000.0001) // CINT =          0.000000000000000E+00
(PID.TID 0000.0001) // SYMBOLS (CMIN->CMAX): -abcdefghijklmnopqrstuvwxyz+
(PID.TID 0000.0001) //                  0.0: .
(PID.TID 0000.0001) // RANGE I (Lo:Hi:Step):(     1:    90:     1)
(PID.TID 0000.0001) // RANGE J (Lo:Hi:Step):(    40:     1:    -1)
(PID.TID 0000.0001) // RANGE K (Lo:Hi:Step):(   1:   1:   1)
(PID.TID 0000.0001) // =======================================================
(PID.TID 0000.0001) // =======================================================
(PID.TID 0000.0001) // END OF FIELD                                          =
(PID.TID 0000.0001) // =======================================================
(PID.TID 0000.0001) 
(PID.TID 0000.0001) // =======================================================
(PID.TID 0000.0001) // Field Current vVel   at iteration          0
(PID.TID 0000.0001) // CMIN =          1.000000000000000E+32
(PID.TID 0000.0001) // CMAX =         -1.000000000000000E+32
(PID.TID 0000.0001) // CINT =          0.000000000000000E+00
(PID.TID 0000.0001) // SYMBOLS (CMIN->CMAX): -abcdefghijklmnopqrstuvwxyz+
(PID.TID 0000.0001) //                  0.0: .
(PID.TID 0000.0001) // RANGE I (Lo:Hi:Step):(     1:    90:     1)
(PID.TID 0000.0001) // RANGE J (Lo:Hi:Step):(    40:     1:    -1)
(PID.TID 0000.0001) // RANGE K (Lo:Hi:Step):(   1:   1:   1)
(PID.TID 0000.0001) // =======================================================
(PID.TID 0000.0001) // =======================================================
(PID.TID 0000.0001) // END OF FIELD                                          =
(PID.TID 0000.0001) // =======================================================
(PID.TID 0000.0001) 
(PID.TID 0000.0001) // =======================================================
(PID.TID 0000.0001) // Field Current theta  at iteration          0
(PID.TID 0000.0001) // CMIN =         -1.900000000000000E+00
(PID.TID 0000.0001) // CMAX =          2.973338890075684E+01
(PID.TID 0000.0001) // CINT =          1.171606996324327E+00
(PID.TID 0000.0001) // SYMBOLS (CMIN->CMAX): -abcdefghijklmnopqrstuvwxyz+
(PID.TID 0000.0001) //                  0.0: .
(PID.TID 0000.0001) // RANGE I (Lo:Hi:Step):(     1:    90:     1)
(PID.TID 0000.0001) // RANGE J (Lo:Hi:Step):(    40:     1:    -1)
(PID.TID 0000.0001) // RANGE K (Lo:Hi:Step):(   1:   1:   1)
(PID.TID 0000.0001) // =======================================================
(PID.TID 0000.0001) K =   1
(PID.TID 0000.0001)                I=10      I=20      I=30      I=40      I=50      I=60      I=70      I=80      I=90
(PID.TID 0000.0001) |--J--|123456789|123456789|123456789|123456789|123456789|123456789|123456789|123456789|123456789|
(PID.TID 0000.0001)     40 bccdd.baa----abdedd..................................................................bbbbb
(PID.TID 0000.0001)     39 ccdddddccbbbaa...ed.....................................................----........bbbbbb
(PID.TID 0000.0001)     38 fffgfedeedddc...........................................................-----......cbbbcde
(PID.TID 0000.0001)     37 ghh..................................................................bc...bbc...edeed.defg
(PID.TID 0000.0001)     36 hh.........................................ddcb....................dcccbabccdd.eefghhihhih
(PID.TID 0000.0001)     35 hh.................................aaab..dddeddd...ffggg...........ccc....ddeeeffghijjjjih
(PID.TID 0000.0001)     34 ...................................babb.deeeeeee.ffffgghh..................ccdffghijkkkj..
(PID.TID 0000.0001)     33 ....................................accdddeeeeefffffgghhiii.................bcfijkkllllkk.
(PID.TID 0000.0001)     32 ....................................bdddeffgffgghhhhhiiijjj................dccglmnmmmmlll.
(PID.TID 0000.0001)     31 ....................................fghiiiijjjjjjkkkkklllkk..............ikkjjmooooonnmm..
(PID.TID 0000.0001)     30 ...................................mmmnmmmmmmmmmmmmmnnnnnmm............moqrrrqrqqqpppooo..
(PID.TID 0000.0001)     29 .................................pqqqqqpppppppppoppoppppponm...........ssssssrrrrrqqqqpp..
(PID.TID 0000.0001)     28 ...............................prssssrrrsssrrrrrrrrrrrrrqqpoo.........uttssstssrssrrrqqq..
(PID.TID 0000.0001)     27 ..............vv..............stuttuuuuutuuuuuuuuuuttttssrrqqq...stuu.vvvuuuuutttttsss....
(PID.TID 0000.0001)     26 ..............vvv...........uuvvvvvwwwwwwwwvvvvvvvvvuuutttsssttv.uuvxxwwwwwwvvvvuuttsr....
(PID.TID 0000.0001)     25 ..............wwwx...xxx...vvvxxxxxyyxxxxxxxxxwwwwwvvvvvuuuuuvwwx...xxxxxxwwwwwwvvutsr....
(PID.TID 0000.0001)     24 ............wwwwxyy.xxyy...wxx.yyyyyyyyyyyxxxxxxxxwwwwwwwvvwwxxyywww.xxxxxxxxxxwwwvvur....
(PID.TID 0000.0001)     23 ............xxxyyyz.xyyy...xxx..yyyyzzyyyyyyyyxxxxxxxxxwwwwwxxxwwwwwx....vwxxxxwwwwwvu....
(PID.TID 0000.0001)     22 w...........xxyyyzyyyyyz...xx.yyzzzzzzzzzzzzzyyzyyyyyyxxwwxxxxwvvvwwxw......yyyyxxxxxxwxxw
(PID.TID 0000.0001)     21 xxx........xxxxyyzzzzzzz+.....zyzzzzzzz++zzzzyyyyyyyyxxwvvwwwwvvvvvvvu........yyyyyyyyyxxx
(PID.TID 0000.0001)     20 xww.......xyyyyxyyzzzzzz+......z.zzzzz+++zzzzzzyyyyyxxxxwvwxwvuuuuuuut.........yyyyxxxxwww
(PID.TID 0000.0001)     19 vvv.......yyyyxwwxyzyyzzzzz...zzz.....++++++z++z+zzzyyyyxxxxwwvvvvvvvu...........yyxxxwwww
(PID.TID 0000.0001)     18 uut.......zzyyywwxyzyyyyzzyzzzzzz...z+z++++zz+++++++zzzyyyyxxwwwvvvvvtt..........yyxxwvvwv
(PID.TID 0000.0001)     17 uus.......z.yyyyyyxyzzyyyyyyyzz.....yzzzzzzzzzzzzzzzzzzyyyyxxwwvuuvvuut.........yyyxxwttvu
(PID.TID 0000.0001)     16 utr......yy.zyyyyxxxxxxxwxxxxy.......yyyyyyyyyyyyyyyyyyyyyyyxxwvvvuuutts........xyyyxwvuuu
(PID.TID 0000.0001)     15 ttrr....xxx.xxxwxwwwwvwwvvvww.........xwxxxxxxxxxxxxxxxxxyyyxwwwvvuttssrr......wxxxxxwwvuu
(PID.TID 0000.0001)     14 ttsq....xyxwwxwvwwwvutuuuuuuu.........wwvwwwwvwvvwwwvwvvwwwwwwvvvuuutssrr.....vwwwwwwwvvvu
(PID.TID 0000.0001)     13 tttr....wwwvvvtttuuuutttssttt.........vvvuuuuuuutttttuuuuuvwwwuuuttttssrr....uvvvvvvvvvvut
(PID.TID 0000.0001)     12 sssssstttutssssrrrrrstrqqrrssqqrrq....uuttssssrrrrrrrrrrrstttssssrssrrqp.....uuuttssttssss
(PID.TID 0000.0001)     11 poprsssrqqqqqrqppooopqpoppppppppppp..sssrrr.rqpppqqqqppppqqqoppqqqqrqqpp....prsrqqqqqppppq
(PID.TID 0000.0001)     10 lllmoooonmnnmnnnnmmmmmmlmmlllmnnnnon.qqqppp.ppppppooooooooonmnnnonnooooo..nmoponnmnnnnnmll
(PID.TID 0000.0001)      9 ihhiiiihhhhhhiiihiiiiihhhiiiijjkkmnllnnnnn.mmmmnnnnmmmmnnmmlklllllklllll.mllmmllkjiijjihhi
(PID.TID 0000.0001)      8 eeeeeeeedefgggffeeffggffffggghiiiijjijklklkkkkkkkklllkkkkjjiiijkjjjjjjkj.kkjjiihggffffedde
(PID.TID 0000.0001)      7 cccccddeedddefeddddddddddefeefffffgggghiiiiiijjjihhgggghhhhhghhhhhhhiiiihiihhgfeddddddcccc
(PID.TID 0000.0001)      6 abbcccddcccccdddddccdddddddccddddddeeeeffggggghhgeddddddeeeeeeefggggghggggffeedccbbbbbbbba
(PID.TID 0000.0001)      5 bbbcccccccccccccccccccccbbccccdddddddcccddeeddeedcbbbbbbccccccdddeeeeeddddddccbbbbaaaaaaab
(PID.TID 0000.0001)      4 bbbbbbbaaabbbbbbbbbbbbaabbabbbbcbbbbbbbbbbbbbbbbbbbabbaaabbbbbbbbbbbbbbbbb..a--aaabbbaaabb
(PID.TID 0000.0001)      3 bbbbaaa-a-............................bbaaaaaaaaaaaaaaaaaaaaaaaaaaaaaaaab..aaaaaaaabbbaaaa
(PID.TID 0000.0001)      2 ..........................................baaaaaaaaaaaa-------aa..aaaa.....aaaaaaaaaaaa...
(PID.TID 0000.0001)      1 ..........................................................................................
(PID.TID 0000.0001) // =======================================================
(PID.TID 0000.0001) // END OF FIELD                                          =
(PID.TID 0000.0001) // =======================================================
(PID.TID 0000.0001) 
(PID.TID 0000.0001) // =======================================================
(PID.TID 0000.0001) // Field Current etaN   at iteration          0
(PID.TID 0000.0001) // CMIN =          1.000000000000000E+32
(PID.TID 0000.0001) // CMAX =         -1.000000000000000E+32
(PID.TID 0000.0001) // CINT =          0.000000000000000E+00
(PID.TID 0000.0001) // SYMBOLS (CMIN->CMAX): -abcdefghijklmnopqrstuvwxyz+
(PID.TID 0000.0001) //                  0.0: .
(PID.TID 0000.0001) // RANGE I (Lo:Hi:Step):(    -1:    92:     1)
(PID.TID 0000.0001) // RANGE J (Lo:Hi:Step):(    42:    -1:    -1)
(PID.TID 0000.0001) // RANGE K (Lo:Hi:Step):(   1:   1:   1)
(PID.TID 0000.0001) // =======================================================
(PID.TID 0000.0001) // =======================================================
(PID.TID 0000.0001) // END OF FIELD                                          =
(PID.TID 0000.0001) // =======================================================
(PID.TID 0000.0001) 
(PID.TID 0000.0001)  MDS_WRITE_FIELD: it,rec,kS,kL,kH=       0     1  15   1  15 file=U.0000000000
(PID.TID 0000.0001)  MDS_WRITE_FIELD: it,rec,kS,kL,kH=       0     1  15   1  15 file=V.0000000000
(PID.TID 0000.0001)  MDS_WRITE_FIELD: it,rec,kS,kL,kH=       0     1  15   1  15 file=T.0000000000
(PID.TID 0000.0001)  MDS_WRITE_FIELD: it,rec,kS,kL,kH=       0     1  15   1  15 file=S.0000000000
(PID.TID 0000.0001)  MDS_WRITE_FIELD: it,rec,kS,kL,kH=       0     1   1   1   1 file=Eta.0000000000
(PID.TID 0000.0001)  MDS_WRITE_FIELD: it,rec,kS,kL,kH=       0     1  15   1  15 file=W.0000000000
 EXTERNAL_FIELDS_LOAD,         0 : iP,iLd,i0,i1=   12    0   12    1 ; Wght=  0.5000000000  0.5000000000
 EXTERNAL_FIELDS_LOAD, it=         0 : Reading new data, i0,i1=   12    1 (prev=   12    0 )
(PID.TID 0000.0001)  MDS_READ_FIELD: opening global file: trenberth_taux.bin
(PID.TID 0000.0001)  MDS_READ_FIELD: opening global file: trenberth_taux.bin
(PID.TID 0000.0001)  MDS_READ_FIELD: opening global file: trenberth_tauy.bin
(PID.TID 0000.0001)  MDS_READ_FIELD: opening global file: trenberth_tauy.bin
(PID.TID 0000.0001)  MDS_READ_FIELD: opening global file: ncep_qnet.bin
(PID.TID 0000.0001)  MDS_READ_FIELD: opening global file: ncep_qnet.bin
(PID.TID 0000.0001)  MDS_READ_FIELD: opening global file: ncep_emp.bin
(PID.TID 0000.0001)  MDS_READ_FIELD: opening global file: ncep_emp.bin
(PID.TID 0000.0001)  MDS_READ_FIELD: opening global file: lev_sst.bin
(PID.TID 0000.0001)  MDS_READ_FIELD: opening global file: lev_sst.bin
(PID.TID 0000.0001)  MDS_READ_FIELD: opening global file: lev_sss.bin
(PID.TID 0000.0001)  MDS_READ_FIELD: opening global file: lev_sss.bin
 EXTERNAL_FIELDS_LOAD: (fu0,1),fu,fv= -4.5368E-02 -3.5633E-02 -4.0500E-02 -6.3753E-02
 EXTERNAL_FIELDS_LOAD: SST,SSS,Q,E-P=  5.3151E-02  3.4364E+01  2.6510E+02  1.0843E-05
DEBUG_STATS_RL:          Uvel (THERMODYNAMICS)  min=  2.00000000000000E-02
DEBUG_STATS_RL:          Uvel (THERMODYNAMICS)  max=  2.00000000000000E-02
DEBUG_STATS_RL:          Uvel (THERMODYNAMICS) mean=  1.99999999999872E-02
DEBUG_STATS_RL:          Uvel (THERMODYNAMICS) S.D.=  1.28161370405167E-14
DEBUG_STATS_RL:          Vvel (THERMODYNAMICS)  min=  2.00000000000000E-02
DEBUG_STATS_RL:          Vvel (THERMODYNAMICS)  max=  2.00000000000000E-02
DEBUG_STATS_RL:          Vvel (THERMODYNAMICS) mean=  1.99999999999872E-02
DEBUG_STATS_RL:          Vvel (THERMODYNAMICS) S.D.=  1.28161370405167E-14
DEBUG_STATS_RL:          Wvel (THERMODYNAMICS)  min=  0.00000000000000E+00
DEBUG_STATS_RL:          Wvel (THERMODYNAMICS)  max=  0.00000000000000E+00
DEBUG_STATS_RL:          Wvel (THERMODYNAMICS) mean=  0.00000000000000E+00
DEBUG_STATS_RL:          Wvel (THERMODYNAMICS) S.D.=  0.00000000000000E+00
DEBUG_STATS_RL:         Theta (THERMODYNAMICS)  min= -1.88837359003553E+00
DEBUG_STATS_RL:         Theta (THERMODYNAMICS)  max=  2.97690152104906E+01
DEBUG_STATS_RL:         Theta (THERMODYNAMICS) mean=  3.21526844039261E+00
DEBUG_STATS_RL:         Theta (THERMODYNAMICS) S.D.=  5.84761442110707E+00
DEBUG_STATS_RL:          Salt (THERMODYNAMICS)  min=  2.00000000000000E-02
DEBUG_STATS_RL:          Salt (THERMODYNAMICS)  max=  3.74869430828730E+01
DEBUG_STATS_RL:          Salt (THERMODYNAMICS) mean=  1.88651624226778E+01
DEBUG_STATS_RL:          Salt (THERMODYNAMICS) S.D.=  1.73006243077683E+01
DEBUG_STATS_RL:         GtNm1 (THERMODYNAMICS)  min= -2.05233075300386E-06
DEBUG_STATS_RL:         GtNm1 (THERMODYNAMICS)  max=  1.41771553642892E-06
DEBUG_STATS_RL:         GtNm1 (THERMODYNAMICS) mean=  4.83689439747816E-10
DEBUG_STATS_RL:         GtNm1 (THERMODYNAMICS) S.D.=  1.57341886389809E-07
DEBUG_STATS_RL:         GsNm1 (THERMODYNAMICS)  min= -4.98194592211548E-07
DEBUG_STATS_RL:         GsNm1 (THERMODYNAMICS)  max=  2.20072859616528E-07
DEBUG_STATS_RL:         GsNm1 (THERMODYNAMICS) mean= -7.30011726930744E-11
DEBUG_STATS_RL:         GsNm1 (THERMODYNAMICS) S.D.=  1.04948728375009E-08
DEBUG_STATS_RL:                EtaN (DYNAMICS)  min=  2.00000000000000E-02
DEBUG_STATS_RL:                EtaN (DYNAMICS)  max=  2.00000000000000E-02
DEBUG_STATS_RL:                EtaN (DYNAMICS) mean=  2.00000000000008E-02
DEBUG_STATS_RL:                EtaN (DYNAMICS) S.D.=  7.80625564189563E-16
DEBUG_STATS_RL:                Uvel (DYNAMICS)  min=  2.00000000000000E-02
DEBUG_STATS_RL:                Uvel (DYNAMICS)  max=  2.00000000000000E-02
DEBUG_STATS_RL:                Uvel (DYNAMICS) mean=  1.99999999999872E-02
DEBUG_STATS_RL:                Uvel (DYNAMICS) S.D.=  1.28161370405167E-14
DEBUG_STATS_RL:                Vvel (DYNAMICS)  min=  2.00000000000000E-02
DEBUG_STATS_RL:                Vvel (DYNAMICS)  max=  2.00000000000000E-02
DEBUG_STATS_RL:                Vvel (DYNAMICS) mean=  1.99999999999872E-02
DEBUG_STATS_RL:                Vvel (DYNAMICS) S.D.=  1.28161370405167E-14
DEBUG_STATS_RL:                Wvel (DYNAMICS)  min=  0.00000000000000E+00
DEBUG_STATS_RL:                Wvel (DYNAMICS)  max=  0.00000000000000E+00
DEBUG_STATS_RL:                Wvel (DYNAMICS) mean=  0.00000000000000E+00
DEBUG_STATS_RL:                Wvel (DYNAMICS) S.D.=  0.00000000000000E+00
DEBUG_STATS_RL:               Theta (DYNAMICS)  min= -1.88837359003553E+00
DEBUG_STATS_RL:               Theta (DYNAMICS)  max=  2.97690152104906E+01
DEBUG_STATS_RL:               Theta (DYNAMICS) mean=  3.21526844039261E+00
DEBUG_STATS_RL:               Theta (DYNAMICS) S.D.=  5.84761442110707E+00
DEBUG_STATS_RL:                Salt (DYNAMICS)  min=  2.00000000000000E-02
DEBUG_STATS_RL:                Salt (DYNAMICS)  max=  3.74869430828730E+01
DEBUG_STATS_RL:                Salt (DYNAMICS) mean=  1.88651624226778E+01
DEBUG_STATS_RL:                Salt (DYNAMICS) S.D.=  1.73006243077683E+01
DEBUG_STATS_RL:                  Gu (DYNAMICS)  min=  9.29873212721928E-04
DEBUG_STATS_RL:                  Gu (DYNAMICS)  max=  3.72641860201652E-02
DEBUG_STATS_RL:                  Gu (DYNAMICS) mean=  1.94733829244907E-02
DEBUG_STATS_RL:                  Gu (DYNAMICS) S.D.=  1.94006008070456E-03
DEBUG_STATS_RL:                  Gv (DYNAMICS)  min= -3.26101653688391E-03
DEBUG_STATS_RL:                  Gv (DYNAMICS)  max=  5.09042471117951E-02
DEBUG_STATS_RL:                  Gv (DYNAMICS) mean=  2.04358738940524E-02
DEBUG_STATS_RL:                  Gv (DYNAMICS) S.D.=  3.66148917003255E-03
DEBUG_STATS_RL:               GuNm1 (DYNAMICS)  min= -1.03843185486331E-05
DEBUG_STATS_RL:               GuNm1 (DYNAMICS)  max=  1.04861718527456E-05
DEBUG_STATS_RL:               GuNm1 (DYNAMICS) mean= -5.95323827766656E-08
DEBUG_STATS_RL:               GuNm1 (DYNAMICS) S.D.=  1.42025835492781E-06
DEBUG_STATS_RL:               GvNm1 (DYNAMICS)  min= -1.25731144529234E-05
DEBUG_STATS_RL:               GvNm1 (DYNAMICS)  max=  1.77180734034169E-05
DEBUG_STATS_RL:               GvNm1 (DYNAMICS) mean=  7.45607296667509E-07
DEBUG_STATS_RL:               GvNm1 (DYNAMICS) S.D.=  2.90624038315659E-06
DEBUG_STATS_RL:               GtNm1 (DYNAMICS)  min= -2.05233075300386E-06
DEBUG_STATS_RL:               GtNm1 (DYNAMICS)  max=  1.41771553642892E-06
DEBUG_STATS_RL:               GtNm1 (DYNAMICS) mean=  4.83689439747816E-10
DEBUG_STATS_RL:               GtNm1 (DYNAMICS) S.D.=  1.57341886389809E-07
DEBUG_STATS_RL:               GsNm1 (DYNAMICS)  min= -4.98194592211548E-07
DEBUG_STATS_RL:               GsNm1 (DYNAMICS)  max=  2.20072859616528E-07
DEBUG_STATS_RL:               GsNm1 (DYNAMICS) mean= -7.30011726930744E-11
DEBUG_STATS_RL:               GsNm1 (DYNAMICS) S.D.=  1.04948728375009E-08
(PID.TID 0000.0001) SOLVE_FOR_PRESSURE: putPmEinXvector =    F
DEBUG_STATS_RL:    cg2d_b (SOLVE_FOR_PRESSURE)  min= -6.15184533240054E+04
DEBUG_STATS_RL:    cg2d_b (SOLVE_FOR_PRESSURE)  max=  5.43708562190583E+04
DEBUG_STATS_RL:    cg2d_b (SOLVE_FOR_PRESSURE) mean=  6.21173429304833E-02
DEBUG_STATS_RL:    cg2d_b (SOLVE_FOR_PRESSURE) S.D.=  8.88354704971823E+03
 cg2d: Sum(rhs),rhsMax =   2.33753680594003E-03  4.04069672540935E+00
(PID.TID 0000.0001)  cg2d: iter=     1 ; resid.=  4.73752532548210E+00
(PID.TID 0000.0001)  cg2d: iter=     2 ; resid.=  4.19790482855834E+00
(PID.TID 0000.0001)  cg2d: iter=     3 ; resid.=  3.46598884001715E+00
(PID.TID 0000.0001)  cg2d: iter=     4 ; resid.=  2.88104503839403E+00
(PID.TID 0000.0001)  cg2d: iter=     5 ; resid.=  2.42958878051928E+00
(PID.TID 0000.0001)  cg2d: iter=     6 ; resid.=  2.07656818699059E+00
(PID.TID 0000.0001)  cg2d: iter=     7 ; resid.=  1.79038460142159E+00
(PID.TID 0000.0001)  cg2d: iter=     8 ; resid.=  1.50023603603501E+00
(PID.TID 0000.0001)  cg2d: iter=     9 ; resid.=  1.20857187606973E+00
(PID.TID 0000.0001)  cg2d: iter=    10 ; resid.=  1.00929609813240E+00
(PID.TID 0000.0001)  cg2d: iter=    11 ; resid.=  9.44539283063422E-01
(PID.TID 0000.0001)  cg2d: iter=    12 ; resid.=  8.37147699830173E-01
(PID.TID 0000.0001)  cg2d: iter=    13 ; resid.=  7.30302159556690E-01
(PID.TID 0000.0001)  cg2d: iter=    14 ; resid.=  6.32294540630379E-01
(PID.TID 0000.0001)  cg2d: iter=    15 ; resid.=  5.57729403587703E-01
(PID.TID 0000.0001)  cg2d: iter=    16 ; resid.=  4.75228665038635E-01
(PID.TID 0000.0001)  cg2d: iter=    17 ; resid.=  3.93838802775703E-01
(PID.TID 0000.0001)  cg2d: iter=    18 ; resid.=  3.19805511753312E-01
(PID.TID 0000.0001)  cg2d: iter=    19 ; resid.=  2.66420021692806E-01
(PID.TID 0000.0001)  cg2d: iter=    20 ; resid.=  2.24390457889275E-01
(PID.TID 0000.0001)  cg2d: iter=    21 ; resid.=  1.93900422196908E-01
(PID.TID 0000.0001)  cg2d: iter=    22 ; resid.=  1.60854062091783E-01
(PID.TID 0000.0001)  cg2d: iter=    23 ; resid.=  1.31918067894746E-01
(PID.TID 0000.0001)  cg2d: iter=    24 ; resid.=  1.06229353425591E-01
(PID.TID 0000.0001)  cg2d: iter=    25 ; resid.=  7.62431112326579E-02
(PID.TID 0000.0001)  cg2d: iter=    26 ; resid.=  6.21913247427958E-02
(PID.TID 0000.0001)  cg2d: iter=    27 ; resid.=  5.21522071666027E-02
(PID.TID 0000.0001)  cg2d: iter=    28 ; resid.=  4.31464259542101E-02
(PID.TID 0000.0001)  cg2d: iter=    29 ; resid.=  3.85714866202568E-02
(PID.TID 0000.0001)  cg2d: iter=    30 ; resid.=  3.72620768602412E-02
(PID.TID 0000.0001)  cg2d: iter=    31 ; resid.=  3.00839453450435E-02
(PID.TID 0000.0001)  cg2d: iter=    32 ; resid.=  2.11046225671070E-02
(PID.TID 0000.0001)  cg2d: iter=    33 ; resid.=  1.57694399622595E-02
(PID.TID 0000.0001)  cg2d: iter=    34 ; resid.=  1.31268540617532E-02
(PID.TID 0000.0001)  cg2d: iter=    35 ; resid.=  1.10244590993793E-02
(PID.TID 0000.0001)  cg2d: iter=    36 ; resid.=  8.41808881193912E-03
(PID.TID 0000.0001)  cg2d: iter=    37 ; resid.=  6.87725480444667E-03
(PID.TID 0000.0001)  cg2d: iter=    38 ; resid.=  5.66345056349403E-03
(PID.TID 0000.0001)  cg2d: iter=    39 ; resid.=  4.73139526822132E-03
(PID.TID 0000.0001)  cg2d: iter=    40 ; resid.=  3.89254248568030E-03
(PID.TID 0000.0001)  cg2d: iter=    41 ; resid.=  3.15257202197378E-03
(PID.TID 0000.0001)  cg2d: iter=    42 ; resid.=  2.56875280766266E-03
(PID.TID 0000.0001)  cg2d: iter=    43 ; resid.=  2.02699847926444E-03
(PID.TID 0000.0001)  cg2d: iter=    44 ; resid.=  1.51356638074457E-03
(PID.TID 0000.0001)  cg2d: iter=    45 ; resid.=  1.27448948681730E-03
(PID.TID 0000.0001)  cg2d: iter=    46 ; resid.=  1.11706323372849E-03
(PID.TID 0000.0001)  cg2d: iter=    47 ; resid.=  9.66090025235571E-04
(PID.TID 0000.0001)  cg2d: iter=    48 ; resid.=  7.98617824399649E-04
(PID.TID 0000.0001)  cg2d: iter=    49 ; resid.=  6.90718282604923E-04
(PID.TID 0000.0001)  cg2d: iter=    50 ; resid.=  5.81931234484311E-04
(PID.TID 0000.0001)  cg2d: iter=    51 ; resid.=  4.93617822231033E-04
(PID.TID 0000.0001)  cg2d: iter=    52 ; resid.=  4.39749106018547E-04
(PID.TID 0000.0001)  cg2d: iter=    53 ; resid.=  3.57195316232462E-04
(PID.TID 0000.0001)  cg2d: iter=    54 ; resid.=  3.15367436468056E-04
(PID.TID 0000.0001)  cg2d: iter=    55 ; resid.=  2.84210346712698E-04
(PID.TID 0000.0001)  cg2d: iter=    56 ; resid.=  2.19761670250175E-04
(PID.TID 0000.0001)  cg2d: iter=    57 ; resid.=  1.58717202354148E-04
(PID.TID 0000.0001)  cg2d: iter=    58 ; resid.=  1.21455996725867E-04
(PID.TID 0000.0001)  cg2d: iter=    59 ; resid.=  9.66911145845716E-05
(PID.TID 0000.0001)  cg2d: iter=    60 ; resid.=  7.79540968084920E-05
(PID.TID 0000.0001)  cg2d: iter=    61 ; resid.=  6.78071482795051E-05
(PID.TID 0000.0001)  cg2d: iter=    62 ; resid.=  5.44985466273300E-05
(PID.TID 0000.0001)  cg2d: iter=    63 ; resid.=  3.74160365452105E-05
(PID.TID 0000.0001)  cg2d: iter=    64 ; resid.=  2.96801706164117E-05
(PID.TID 0000.0001)  cg2d: iter=    65 ; resid.=  2.42542067435104E-05
(PID.TID 0000.0001)  cg2d: iter=    66 ; resid.=  2.19696631644098E-05
(PID.TID 0000.0001)  cg2d: iter=    67 ; resid.=  1.95683548819654E-05
(PID.TID 0000.0001)  cg2d: iter=    68 ; resid.=  1.61916592984940E-05
(PID.TID 0000.0001)  cg2d: iter=    69 ; resid.=  1.34879938758555E-05
(PID.TID 0000.0001)  cg2d: iter=    70 ; resid.=  1.03769462021070E-05
(PID.TID 0000.0001)  cg2d: iter=    71 ; resid.=  7.65798831685580E-06
(PID.TID 0000.0001)  cg2d: iter=    72 ; resid.=  6.21394168838173E-06
(PID.TID 0000.0001)  cg2d: iter=    73 ; resid.=  5.04854466916712E-06
(PID.TID 0000.0001)  cg2d: iter=    74 ; resid.=  4.26613432800291E-06
(PID.TID 0000.0001)  cg2d: iter=    75 ; resid.=  3.58849754807389E-06
(PID.TID 0000.0001)  cg2d: iter=    76 ; resid.=  3.05131895792953E-06
(PID.TID 0000.0001)  cg2d: iter=    77 ; resid.=  2.67168181338180E-06
(PID.TID 0000.0001)  cg2d: iter=    78 ; resid.=  2.17320309786321E-06
(PID.TID 0000.0001)  cg2d: iter=    79 ; resid.=  1.78968391248419E-06
(PID.TID 0000.0001)  cg2d: iter=    80 ; resid.=  1.55387755709631E-06
(PID.TID 0000.0001)  cg2d: iter=    81 ; resid.=  1.29345331243650E-06
(PID.TID 0000.0001)  cg2d: iter=    82 ; resid.=  1.07849384403709E-06
(PID.TID 0000.0001)  cg2d: iter=    83 ; resid.=  8.95795414944833E-07
(PID.TID 0000.0001)  cg2d: iter=    84 ; resid.=  6.95009510152584E-07
(PID.TID 0000.0001)  cg2d: iter=    85 ; resid.=  5.61571160309618E-07
(PID.TID 0000.0001)  cg2d: iter=    86 ; resid.=  4.70382933457267E-07
(PID.TID 0000.0001)  cg2d: iter=    87 ; resid.=  3.87443669917921E-07
(PID.TID 0000.0001)  cg2d: iter=    88 ; resid.=  3.44335108049311E-07
(PID.TID 0000.0001)  cg2d: iter=    89 ; resid.=  2.88145950601725E-07
(PID.TID 0000.0001)  cg2d: iter=    90 ; resid.=  2.28626125417114E-07
(PID.TID 0000.0001)  cg2d: iter=    91 ; resid.=  1.68524445072693E-07
(PID.TID 0000.0001)  cg2d: iter=    92 ; resid.=  1.26391681837399E-07
(PID.TID 0000.0001)  cg2d: iter=    93 ; resid.=  9.00429631527085E-08
(PID.TID 0000.0001)  cg2d: iter=    94 ; resid.=  7.05250768444760E-08
(PID.TID 0000.0001)  cg2d: iter=    95 ; resid.=  5.43072018177440E-08
(PID.TID 0000.0001)  cg2d: iter=    96 ; resid.=  4.06715424162187E-08
(PID.TID 0000.0001)  cg2d: iter=    97 ; resid.=  3.06866388377545E-08
(PID.TID 0000.0001)  cg2d: iter=    98 ; resid.=  2.33737550396307E-08
(PID.TID 0000.0001)  cg2d: iter=    99 ; resid.=  1.78030889483588E-08
(PID.TID 0000.0001)  cg2d: iter=   100 ; resid.=  1.48190724196311E-08
(PID.TID 0000.0001)  cg2d: iter=   101 ; resid.=  1.01403207493596E-08
(PID.TID 0000.0001)  cg2d: iter=   102 ; resid.=  7.20845820333376E-09
(PID.TID 0000.0001)  cg2d: iter=   103 ; resid.=  5.63738166134123E-09
(PID.TID 0000.0001)  cg2d: iter=   104 ; resid.=  4.60075184022897E-09
(PID.TID 0000.0001)  cg2d: iter=   105 ; resid.=  3.41118683928848E-09
(PID.TID 0000.0001)  cg2d: iter=   106 ; resid.=  2.67816259996472E-09
(PID.TID 0000.0001)  cg2d: iter=   107 ; resid.=  2.26203657325496E-09
(PID.TID 0000.0001)  cg2d: iter=   108 ; resid.=  1.93316612330248E-09
(PID.TID 0000.0001)  cg2d: iter=   109 ; resid.=  1.51275589789439E-09
(PID.TID 0000.0001)  cg2d: iter=   110 ; resid.=  1.26498049176072E-09
(PID.TID 0000.0001)  cg2d: iter=   111 ; resid.=  1.04415367075547E-09
(PID.TID 0000.0001)  cg2d: iter=   112 ; resid.=  8.07309835717021E-10
(PID.TID 0000.0001)  cg2d: iter=   113 ; resid.=  6.06850574577343E-10
(PID.TID 0000.0001)  cg2d: iter=   114 ; resid.=  5.08367822620752E-10
(PID.TID 0000.0001)  cg2d: iter=   115 ; resid.=  4.33022307823583E-10
(PID.TID 0000.0001)  cg2d: iter=   116 ; resid.=  3.68982904021876E-10
(PID.TID 0000.0001)  cg2d: iter=   117 ; resid.=  2.98891163838112E-10
(PID.TID 0000.0001)  cg2d: iter=   118 ; resid.=  2.66211072941970E-10
(PID.TID 0000.0001)  cg2d: iter=   119 ; resid.=  2.15110862973583E-10
(PID.TID 0000.0001)  cg2d: iter=   120 ; resid.=  1.69991937864274E-10
(PID.TID 0000.0001)  cg2d: iter=   121 ; resid.=  1.36927940787880E-10
(PID.TID 0000.0001)  cg2d: iter=   122 ; resid.=  1.07535139594103E-10
(PID.TID 0000.0001)  cg2d: iter=   123 ; resid.=  7.35620528780226E-11
(PID.TID 0000.0001)  cg2d: iter=   124 ; resid.=  5.29418372039249E-11
(PID.TID 0000.0001)  cg2d: iter=   125 ; resid.=  3.85943002568437E-11
(PID.TID 0000.0001)  cg2d: iter=   126 ; resid.=  3.05604023477259E-11
(PID.TID 0000.0001)  cg2d: iter=   127 ; resid.=  2.20959325273559E-11
(PID.TID 0000.0001)  cg2d: iter=   128 ; resid.=  1.60132206141518E-11
(PID.TID 0000.0001)  cg2d: iter=   129 ; resid.=  1.14031090222631E-11
(PID.TID 0000.0001)  cg2d: iter=   130 ; resid.=  8.16607066695686E-12
(PID.TID 0000.0001)  cg2d: iter=   131 ; resid.=  6.35072554704467E-12
(PID.TID 0000.0001)  cg2d: iter=   132 ; resid.=  4.85386304525770E-12
(PID.TID 0000.0001)  cg2d: iter=   133 ; resid.=  3.80728681343452E-12
(PID.TID 0000.0001)  cg2d: iter=   134 ; resid.=  3.09374938252298E-12
(PID.TID 0000.0001)  cg2d: iter=   135 ; resid.=  2.40580327540643E-12
(PID.TID 0000.0001)  cg2d: iter=   136 ; resid.=  1.82545886131136E-12
(PID.TID 0000.0001)  cg2d: iter=   137 ; resid.=  1.37384631380460E-12
(PID.TID 0000.0001)  cg2d: iter=   138 ; resid.=  9.70355315664062E-13
(PID.TID 0000.0001)  cg2d: iter=   139 ; resid.=  7.32733650912208E-13
(PID.TID 0000.0001)  cg2d: iter=   140 ; resid.=  5.48977157760887E-13
(PID.TID 0000.0001)  cg2d: iter=   141 ; resid.=  4.10069084083091E-13
(PID.TID 0000.0001)  cg2d: iter=   142 ; resid.=  3.00985363518358E-13
(PID.TID 0000.0001)  cg2d: iter=   143 ; resid.=  2.50469307395524E-13
(PID.TID 0000.0001)  cg2d: iter=   144 ; resid.=  1.79159147964056E-13
(PID.TID 0000.0001)  cg2d: iter=   145 ; resid.=  1.21789292961380E-13
(PID.TID 0000.0001)  cg2d: iter=   146 ; resid.=  8.19217296060390E-14
DEBUG_STATS_RL:    cg2d_x (SOLVE_FOR_PRESSURE)  min= -4.05583487394810E+01
DEBUG_STATS_RL:    cg2d_x (SOLVE_FOR_PRESSURE)  max=  4.03848824914790E+01
DEBUG_STATS_RL:    cg2d_x (SOLVE_FOR_PRESSURE) mean= -1.40092338368908E+00
DEBUG_STATS_RL:    cg2d_x (SOLVE_FOR_PRESSURE) S.D.=  1.28783752138519E+01
(PID.TID 0000.0001)      cg2d_init_res =   6.94746088454417E+00
(PID.TID 0000.0001)      cg2d_iters(min,last) =      -1     146
(PID.TID 0000.0001)      cg2d_last_res =   8.19217296060390E-14
(PID.TID 0000.0001) // =======================================================
(PID.TID 0000.0001) // Begin MONITOR dynamic field statistics
(PID.TID 0000.0001) // =======================================================
(PID.TID 0000.0001) %MON time_tsnumber                =                     1
(PID.TID 0000.0001) %MON time_secondsf                =   8.6400000000000E+04
(PID.TID 0000.0001) %MON dynstat_eta_max              =   4.1167056566240E+00
(PID.TID 0000.0001) %MON dynstat_eta_min              =  -4.1343882507122E+00
(PID.TID 0000.0001) %MON dynstat_eta_mean             =  -6.4811745052431E-05
(PID.TID 0000.0001) %MON dynstat_eta_sd               =   1.5219234349398E+00
(PID.TID 0000.0001) %MON dynstat_eta_del2             =   5.0401041053638E-03
(PID.TID 0000.0001) %MON dynstat_uvel_max             =   1.1944018513254E-01
(PID.TID 0000.0001) %MON dynstat_uvel_min             =  -4.2182671172661E-02
(PID.TID 0000.0001) %MON dynstat_uvel_mean            =   1.1906475771090E-02
(PID.TID 0000.0001) %MON dynstat_uvel_sd              =   5.5220772668982E-03
(PID.TID 0000.0001) %MON dynstat_uvel_del2            =   4.5092131370017E-05
(PID.TID 0000.0001) %MON dynstat_vvel_max             =   1.0867811853642E-01
(PID.TID 0000.0001) %MON dynstat_vvel_min             =  -2.1438399066712E-02
(PID.TID 0000.0001) %MON dynstat_vvel_mean            =   1.1356593579096E-02
(PID.TID 0000.0001) %MON dynstat_vvel_sd              =   5.7655055252006E-03
(PID.TID 0000.0001) %MON dynstat_vvel_del2            =   4.5205432828998E-05
(PID.TID 0000.0001) %MON dynstat_wvel_max             =   1.5874182888867E-04
(PID.TID 0000.0001) %MON dynstat_wvel_min             =  -2.3561955210987E-04
(PID.TID 0000.0001) %MON dynstat_wvel_mean            =  -1.5251906871233E-21
(PID.TID 0000.0001) %MON dynstat_wvel_sd              =   2.1189659222870E-05
(PID.TID 0000.0001) %MON dynstat_wvel_del2            =   2.1218808409954E-07
(PID.TID 0000.0001) %MON dynstat_theta_max            =   2.9769015210491E+01
(PID.TID 0000.0001) %MON dynstat_theta_min            =  -1.8883735900355E+00
(PID.TID 0000.0001) %MON dynstat_theta_mean           =   3.6394057706464E+00
(PID.TID 0000.0001) %MON dynstat_theta_sd             =   4.4173283678614E+00
(PID.TID 0000.0001) %MON dynstat_theta_del2           =   5.6235558224507E-03
(PID.TID 0000.0001) %MON dynstat_salt_max             =   3.7486943082873E+01
(PID.TID 0000.0001) %MON dynstat_salt_min             =   2.9774504484530E+01
(PID.TID 0000.0001) %MON dynstat_salt_mean            =   3.4737999595254E+01
(PID.TID 0000.0001) %MON dynstat_salt_sd              =   2.9615238709354E-01
(PID.TID 0000.0001) %MON dynstat_salt_del2            =   1.0150879342095E-03
(PID.TID 0000.0001) %MON dynstat_sst_max              =   2.9769015210491E+01
(PID.TID 0000.0001) %MON dynstat_sst_min              =  -1.8883735900355E+00
(PID.TID 0000.0001) %MON dynstat_sst_mean             =   1.8508664120548E+01
(PID.TID 0000.0001) %MON dynstat_sst_sd               =   9.1761128383368E+00
(PID.TID 0000.0001) %MON dynstat_sst_del2             =   2.7148473971965E-02
(PID.TID 0000.0001) %MON dynstat_sss_max              =   3.7486943082873E+01
(PID.TID 0000.0001) %MON dynstat_sss_min              =   2.9774504484530E+01
(PID.TID 0000.0001) %MON dynstat_sss_mean             =   3.4869611874485E+01
(PID.TID 0000.0001) %MON dynstat_sss_sd               =   9.6349925976864E-01
(PID.TID 0000.0001) %MON dynstat_sss_del2             =   8.0312490518557E-03
(PID.TID 0000.0001) %MON forcing_qnet_max             =   4.2589080810547E+02
(PID.TID 0000.0001) %MON forcing_qnet_min             =  -1.8702698516846E+02
(PID.TID 0000.0001) %MON forcing_qnet_mean            =  -1.6700205338390E+01
(PID.TID 0000.0001) %MON forcing_qnet_sd              =   1.1285666794876E+02
(PID.TID 0000.0001) %MON forcing_qnet_del2            =   9.9079877721394E-01
(PID.TID 0000.0001) %MON forcing_qsw_max              =   0.0000000000000E+00
(PID.TID 0000.0001) %MON forcing_qsw_min              =   0.0000000000000E+00
(PID.TID 0000.0001) %MON forcing_qsw_mean             =   0.0000000000000E+00
(PID.TID 0000.0001) %MON forcing_qsw_sd               =   0.0000000000000E+00
(PID.TID 0000.0001) %MON forcing_qsw_del2             =   0.0000000000000E+00
(PID.TID 0000.0001) %MON forcing_empmr_max            =   8.3243762105667E-05
(PID.TID 0000.0001) %MON forcing_empmr_min            =  -7.4169506092403E-05
(PID.TID 0000.0001) %MON forcing_empmr_mean           =   7.7639069592805E-07
(PID.TID 0000.0001) %MON forcing_empmr_sd             =   2.7794934142646E-05
(PID.TID 0000.0001) %MON forcing_empmr_del2           =   3.6436962197033E-07
(PID.TID 0000.0001) %MON forcing_fu_max               =   2.7488999068737E-01
(PID.TID 0000.0001) %MON forcing_fu_min               =  -1.6014087945223E-01
(PID.TID 0000.0001) %MON forcing_fu_mean              =   1.6117127468124E-02
(PID.TID 0000.0001) %MON forcing_fu_sd                =   9.0153154829689E-02
(PID.TID 0000.0001) %MON forcing_fu_del2              =   6.5365667764057E-04
(PID.TID 0000.0001) %MON forcing_fv_max               =   2.0835298299789E-01
(PID.TID 0000.0001) %MON forcing_fv_min               =  -1.8690676242113E-01
(PID.TID 0000.0001) %MON forcing_fv_mean              =  -6.3653356424171E-03
(PID.TID 0000.0001) %MON forcing_fv_sd                =   4.5157892194461E-02
(PID.TID 0000.0001) %MON forcing_fv_del2              =   4.4595114894327E-04
(PID.TID 0000.0001) %MON trAdv_CFL_u_max              =   1.8692880773187E-02
(PID.TID 0000.0001) %MON trAdv_CFL_v_max              =   4.3571191390765E-03
(PID.TID 0000.0001) %MON trAdv_CFL_w_max              =   0.0000000000000E+00
(PID.TID 0000.0001) %MON advcfl_uvel_max              =   3.2890695553147E-02
(PID.TID 0000.0001) %MON advcfl_vvel_max              =   2.1114415444158E-02
(PID.TID 0000.0001) %MON advcfl_wvel_max              =   1.6538341565237E-01
(PID.TID 0000.0001) %MON advcfl_W_hf_max              =   1.0461846693022E-01
(PID.TID 0000.0001) %MON pe_b_mean                    =   2.9639222697152E-03
(PID.TID 0000.0001) %MON ke_max                       =   6.7972548481136E-03
(PID.TID 0000.0001) %MON ke_mean                      =   1.5108383933532E-04
(PID.TID 0000.0001) %MON ke_vol                       =   1.3226782436723E+18
(PID.TID 0000.0001) %MON vort_r_min                   =  -4.0485914493750E-07
(PID.TID 0000.0001) %MON vort_r_max                   =   4.5115874977240E-07
(PID.TID 0000.0001) %MON vort_a_mean                  =  -2.5274807944274E-05
(PID.TID 0000.0001) %MON vort_a_sd                    =   7.3606897127159E-05
(PID.TID 0000.0001) %MON vort_p_mean                  =  -3.1845656488456E-05
(PID.TID 0000.0001) %MON vort_p_sd                    =   1.3162980789004E-04
(PID.TID 0000.0001) %MON surfExpan_theta_mean         =   5.4880792165009E-05
(PID.TID 0000.0001) %MON surfExpan_salt_mean          =   6.4235196965209E-07
(PID.TID 0000.0001) // =======================================================
(PID.TID 0000.0001) // End MONITOR dynamic field statistics
(PID.TID 0000.0001) // =======================================================
 EXTERNAL_FIELDS_LOAD,         1 : iP,iLd,i0,i1=   12    1   12    1 ; Wght=  0.4666666667  0.5333333333
 EXTERNAL_FIELDS_LOAD: (fu0,1),fu,fv= -4.5368E-02 -3.5633E-02 -4.0176E-02 -6.3320E-02
 EXTERNAL_FIELDS_LOAD: SST,SSS,Q,E-P=  1.1350E-01  3.4387E+01  2.6514E+02  1.0896E-05
DEBUG_STATS_RL:          Uvel (THERMODYNAMICS)  min= -4.21826711726605E-02
DEBUG_STATS_RL:          Uvel (THERMODYNAMICS)  max=  1.19440185132544E-01
DEBUG_STATS_RL:          Uvel (THERMODYNAMICS) mean=  1.27550530831941E-02
DEBUG_STATS_RL:          Uvel (THERMODYNAMICS) S.D.=  6.75110279777400E-03
DEBUG_STATS_RL:          Vvel (THERMODYNAMICS)  min= -2.14383990667123E-02
DEBUG_STATS_RL:          Vvel (THERMODYNAMICS)  max=  1.08678118536421E-01
DEBUG_STATS_RL:          Vvel (THERMODYNAMICS) mean=  1.10378751532127E-02
DEBUG_STATS_RL:          Vvel (THERMODYNAMICS) S.D.=  6.85436852254452E-03
DEBUG_STATS_RL:          Wvel (THERMODYNAMICS)  min= -2.35619552109871E-04
DEBUG_STATS_RL:          Wvel (THERMODYNAMICS)  max=  1.58741828888673E-04
DEBUG_STATS_RL:          Wvel (THERMODYNAMICS) mean= -2.05557024467506E-06
DEBUG_STATS_RL:          Wvel (THERMODYNAMICS) S.D.=  2.20316244895730E-05
DEBUG_STATS_RL:         Theta (THERMODYNAMICS)  min= -1.94179612717891E+00
DEBUG_STATS_RL:         Theta (THERMODYNAMICS)  max=  2.95980168302014E+01
DEBUG_STATS_RL:         Theta (THERMODYNAMICS) mean=  3.21406730175533E+00
DEBUG_STATS_RL:         Theta (THERMODYNAMICS) S.D.=  5.84257822875321E+00
DEBUG_STATS_RL:          Salt (THERMODYNAMICS)  min=  2.00000000000000E-02
DEBUG_STATS_RL:          Salt (THERMODYNAMICS)  max=  3.74789130163148E+01
DEBUG_STATS_RL:          Salt (THERMODYNAMICS) mean=  1.88650033742936E+01
DEBUG_STATS_RL:          Salt (THERMODYNAMICS) S.D.=  1.73004730591004E+01
DEBUG_STATS_RL:         GtNm1 (THERMODYNAMICS)  min= -6.68967887881693E-06
DEBUG_STATS_RL:         GtNm1 (THERMODYNAMICS)  max=  3.57383093537846E-06
DEBUG_STATS_RL:         GtNm1 (THERMODYNAMICS) mean= -1.65240320039381E-08
DEBUG_STATS_RL:         GtNm1 (THERMODYNAMICS) S.D.=  3.80471852477556E-07
DEBUG_STATS_RL:         GsNm1 (THERMODYNAMICS)  min= -3.83406037782906E-07
DEBUG_STATS_RL:         GsNm1 (THERMODYNAMICS)  max=  9.85653550905401E-07
DEBUG_STATS_RL:         GsNm1 (THERMODYNAMICS) mean= -1.96972211239953E-09
DEBUG_STATS_RL:         GsNm1 (THERMODYNAMICS) S.D.=  3.82069341723717E-08
DEBUG_STATS_RL:                EtaN (DYNAMICS)  min= -4.13438825071217E+00
DEBUG_STATS_RL:                EtaN (DYNAMICS)  max=  4.11670565662397E+00
DEBUG_STATS_RL:                EtaN (DYNAMICS) mean= -2.22073574207156E-01
DEBUG_STATS_RL:                EtaN (DYNAMICS) S.D.=  1.63168682726171E+00
DEBUG_STATS_RL:                Uvel (DYNAMICS)  min= -4.21826711726605E-02
DEBUG_STATS_RL:                Uvel (DYNAMICS)  max=  1.19440185132544E-01
DEBUG_STATS_RL:                Uvel (DYNAMICS) mean=  1.27550530831941E-02
DEBUG_STATS_RL:                Uvel (DYNAMICS) S.D.=  6.75110279777400E-03
DEBUG_STATS_RL:                Vvel (DYNAMICS)  min= -2.14383990667123E-02
DEBUG_STATS_RL:                Vvel (DYNAMICS)  max=  1.08678118536421E-01
DEBUG_STATS_RL:                Vvel (DYNAMICS) mean=  1.10378751532127E-02
DEBUG_STATS_RL:                Vvel (DYNAMICS) S.D.=  6.85436852254452E-03
DEBUG_STATS_RL:                Wvel (DYNAMICS)  min= -2.35619552109871E-04
DEBUG_STATS_RL:                Wvel (DYNAMICS)  max=  1.58741828888673E-04
DEBUG_STATS_RL:                Wvel (DYNAMICS) mean= -2.05557024467506E-06
DEBUG_STATS_RL:                Wvel (DYNAMICS) S.D.=  2.20316244895730E-05
DEBUG_STATS_RL:               Theta (DYNAMICS)  min= -1.94179612717891E+00
DEBUG_STATS_RL:               Theta (DYNAMICS)  max=  2.95980168302014E+01
DEBUG_STATS_RL:               Theta (DYNAMICS) mean=  3.21406730175533E+00
DEBUG_STATS_RL:               Theta (DYNAMICS) S.D.=  5.84257822875321E+00
DEBUG_STATS_RL:                Salt (DYNAMICS)  min=  2.00000000000000E-02
DEBUG_STATS_RL:                Salt (DYNAMICS)  max=  3.74789130163148E+01
DEBUG_STATS_RL:                Salt (DYNAMICS) mean=  1.88650033742936E+01
DEBUG_STATS_RL:                Salt (DYNAMICS) S.D.=  1.73004730591004E+01
DEBUG_STATS_RL:                  Gu (DYNAMICS)  min= -3.78037935602711E-02
DEBUG_STATS_RL:                  Gu (DYNAMICS)  max=  1.14281630777711E-01
DEBUG_STATS_RL:                  Gu (DYNAMICS) mean=  1.24935853675869E-02
DEBUG_STATS_RL:                  Gu (DYNAMICS) S.D.=  8.00344342738815E-03
DEBUG_STATS_RL:                  Gv (DYNAMICS)  min= -2.36129312898982E-02
DEBUG_STATS_RL:                  Gv (DYNAMICS)  max=  1.08734133971482E-01
DEBUG_STATS_RL:                  Gv (DYNAMICS) mean=  1.18658298803561E-02
DEBUG_STATS_RL:                  Gv (DYNAMICS) S.D.=  8.77557144377077E-03
DEBUG_STATS_RL:               GuNm1 (DYNAMICS)  min= -1.03303529209424E-05
DEBUG_STATS_RL:               GuNm1 (DYNAMICS)  max=  1.04273821969809E-05
DEBUG_STATS_RL:               GuNm1 (DYNAMICS) mean= -5.88054459015469E-08
DEBUG_STATS_RL:               GuNm1 (DYNAMICS) S.D.=  1.41656046726529E-06
DEBUG_STATS_RL:               GvNm1 (DYNAMICS)  min= -1.24417625329941E-05
DEBUG_STATS_RL:               GvNm1 (DYNAMICS)  max=  1.75571333005275E-05
DEBUG_STATS_RL:               GvNm1 (DYNAMICS) mean=  7.57134146883863E-07
DEBUG_STATS_RL:               GvNm1 (DYNAMICS) S.D.=  2.89871674391158E-06
DEBUG_STATS_RL:               GtNm1 (DYNAMICS)  min= -6.68967887881693E-06
DEBUG_STATS_RL:               GtNm1 (DYNAMICS)  max=  3.57383093537846E-06
DEBUG_STATS_RL:               GtNm1 (DYNAMICS) mean= -1.65240320039381E-08
DEBUG_STATS_RL:               GtNm1 (DYNAMICS) S.D.=  3.80471852477556E-07
DEBUG_STATS_RL:               GsNm1 (DYNAMICS)  min= -3.83406037782906E-07
DEBUG_STATS_RL:               GsNm1 (DYNAMICS)  max=  9.85653550905401E-07
DEBUG_STATS_RL:               GsNm1 (DYNAMICS) mean= -1.96972211239953E-09
DEBUG_STATS_RL:               GsNm1 (DYNAMICS) S.D.=  3.82069341723717E-08
DEBUG_STATS_RL:    cg2d_b (SOLVE_FOR_PRESSURE)  min= -4.27542318002627E+04
DEBUG_STATS_RL:    cg2d_b (SOLVE_FOR_PRESSURE)  max=  2.32491470202724E+04
DEBUG_STATS_RL:    cg2d_b (SOLVE_FOR_PRESSURE) mean=  1.25016343078362E-01
DEBUG_STATS_RL:    cg2d_b (SOLVE_FOR_PRESSURE) S.D.=  5.89868980251507E+03
 cg2d: Sum(rhs),rhsMax =   6.76922077743128E-03  2.80821241592076E+00
(PID.TID 0000.0001)  cg2d: iter=     1 ; resid.=  3.67392827295045E+00
(PID.TID 0000.0001)  cg2d: iter=     2 ; resid.=  2.43838124501123E+00
(PID.TID 0000.0001)  cg2d: iter=     3 ; resid.=  1.77608543170452E+00
(PID.TID 0000.0001)  cg2d: iter=     4 ; resid.=  1.42666974969352E+00
(PID.TID 0000.0001)  cg2d: iter=     5 ; resid.=  1.15481873423552E+00
(PID.TID 0000.0001)  cg2d: iter=     6 ; resid.=  9.42759310922420E-01
(PID.TID 0000.0001)  cg2d: iter=     7 ; resid.=  8.12903097204897E-01
(PID.TID 0000.0001)  cg2d: iter=     8 ; resid.=  7.02715864068808E-01
(PID.TID 0000.0001)  cg2d: iter=     9 ; resid.=  6.10908735727945E-01
(PID.TID 0000.0001)  cg2d: iter=    10 ; resid.=  4.80565027592672E-01
(PID.TID 0000.0001)  cg2d: iter=    11 ; resid.=  4.24756354474819E-01
(PID.TID 0000.0001)  cg2d: iter=    12 ; resid.=  3.86003710534955E-01
(PID.TID 0000.0001)  cg2d: iter=    13 ; resid.=  3.34645161351763E-01
(PID.TID 0000.0001)  cg2d: iter=    14 ; resid.=  2.76103508789298E-01
(PID.TID 0000.0001)  cg2d: iter=    15 ; resid.=  2.39027552475587E-01
(PID.TID 0000.0001)  cg2d: iter=    16 ; resid.=  2.16331175339017E-01
(PID.TID 0000.0001)  cg2d: iter=    17 ; resid.=  1.94096707105659E-01
(PID.TID 0000.0001)  cg2d: iter=    18 ; resid.=  1.54734608363926E-01
(PID.TID 0000.0001)  cg2d: iter=    19 ; resid.=  1.28443900581670E-01
(PID.TID 0000.0001)  cg2d: iter=    20 ; resid.=  1.04044433961565E-01
(PID.TID 0000.0001)  cg2d: iter=    21 ; resid.=  8.21641445890862E-02
(PID.TID 0000.0001)  cg2d: iter=    22 ; resid.=  6.90958769734217E-02
(PID.TID 0000.0001)  cg2d: iter=    23 ; resid.=  5.85666549777598E-02
(PID.TID 0000.0001)  cg2d: iter=    24 ; resid.=  5.49036436259124E-02
(PID.TID 0000.0001)  cg2d: iter=    25 ; resid.=  4.41850440123410E-02
(PID.TID 0000.0001)  cg2d: iter=    26 ; resid.=  3.51894620669849E-02
(PID.TID 0000.0001)  cg2d: iter=    27 ; resid.=  2.94920403074532E-02
(PID.TID 0000.0001)  cg2d: iter=    28 ; resid.=  2.35174586512933E-02
(PID.TID 0000.0001)  cg2d: iter=    29 ; resid.=  1.88088149690458E-02
(PID.TID 0000.0001)  cg2d: iter=    30 ; resid.=  1.74359373605712E-02
(PID.TID 0000.0001)  cg2d: iter=    31 ; resid.=  1.57075928024049E-02
(PID.TID 0000.0001)  cg2d: iter=    32 ; resid.=  1.31803997790433E-02
(PID.TID 0000.0001)  cg2d: iter=    33 ; resid.=  9.84059622507536E-03
(PID.TID 0000.0001)  cg2d: iter=    34 ; resid.=  8.09904877087091E-03
(PID.TID 0000.0001)  cg2d: iter=    35 ; resid.=  6.72664799194438E-03
(PID.TID 0000.0001)  cg2d: iter=    36 ; resid.=  5.45440874678918E-03
(PID.TID 0000.0001)  cg2d: iter=    37 ; resid.=  4.45506147588260E-03
(PID.TID 0000.0001)  cg2d: iter=    38 ; resid.=  3.55585060708108E-03
(PID.TID 0000.0001)  cg2d: iter=    39 ; resid.=  2.94959811259627E-03
(PID.TID 0000.0001)  cg2d: iter=    40 ; resid.=  2.31495942846237E-03
(PID.TID 0000.0001)  cg2d: iter=    41 ; resid.=  1.83141650727219E-03
(PID.TID 0000.0001)  cg2d: iter=    42 ; resid.=  1.54408417548007E-03
(PID.TID 0000.0001)  cg2d: iter=    43 ; resid.=  1.36591370790851E-03
(PID.TID 0000.0001)  cg2d: iter=    44 ; resid.=  1.17131546486873E-03
(PID.TID 0000.0001)  cg2d: iter=    45 ; resid.=  9.90941385189608E-04
(PID.TID 0000.0001)  cg2d: iter=    46 ; resid.=  8.57961823601279E-04
(PID.TID 0000.0001)  cg2d: iter=    47 ; resid.=  7.60420785765734E-04
(PID.TID 0000.0001)  cg2d: iter=    48 ; resid.=  6.31476280311143E-04
(PID.TID 0000.0001)  cg2d: iter=    49 ; resid.=  5.22236322662389E-04
(PID.TID 0000.0001)  cg2d: iter=    50 ; resid.=  4.19212084009673E-04
(PID.TID 0000.0001)  cg2d: iter=    51 ; resid.=  3.36230549252118E-04
(PID.TID 0000.0001)  cg2d: iter=    52 ; resid.=  2.96337338181317E-04
(PID.TID 0000.0001)  cg2d: iter=    53 ; resid.=  2.37424052358387E-04
(PID.TID 0000.0001)  cg2d: iter=    54 ; resid.=  1.94679873292143E-04
(PID.TID 0000.0001)  cg2d: iter=    55 ; resid.=  1.72764814399736E-04
(PID.TID 0000.0001)  cg2d: iter=    56 ; resid.=  1.50852893100609E-04
(PID.TID 0000.0001)  cg2d: iter=    57 ; resid.=  1.14268632084862E-04
(PID.TID 0000.0001)  cg2d: iter=    58 ; resid.=  8.50761211395710E-05
(PID.TID 0000.0001)  cg2d: iter=    59 ; resid.=  6.29128055579576E-05
(PID.TID 0000.0001)  cg2d: iter=    60 ; resid.=  4.86117987704885E-05
(PID.TID 0000.0001)  cg2d: iter=    61 ; resid.=  4.13903615511463E-05
(PID.TID 0000.0001)  cg2d: iter=    62 ; resid.=  3.45326087932293E-05
(PID.TID 0000.0001)  cg2d: iter=    63 ; resid.=  2.50191469236023E-05
(PID.TID 0000.0001)  cg2d: iter=    64 ; resid.=  1.89623616872273E-05
(PID.TID 0000.0001)  cg2d: iter=    65 ; resid.=  1.43151458318217E-05
(PID.TID 0000.0001)  cg2d: iter=    66 ; resid.=  1.15734907434621E-05
(PID.TID 0000.0001)  cg2d: iter=    67 ; resid.=  1.00772194260930E-05
(PID.TID 0000.0001)  cg2d: iter=    68 ; resid.=  8.47023092435437E-06
(PID.TID 0000.0001)  cg2d: iter=    69 ; resid.=  7.70002595549325E-06
(PID.TID 0000.0001)  cg2d: iter=    70 ; resid.=  7.16542905168792E-06
(PID.TID 0000.0001)  cg2d: iter=    71 ; resid.=  6.00060423049240E-06
(PID.TID 0000.0001)  cg2d: iter=    72 ; resid.=  5.25074474213565E-06
(PID.TID 0000.0001)  cg2d: iter=    73 ; resid.=  4.49463140744744E-06
(PID.TID 0000.0001)  cg2d: iter=    74 ; resid.=  3.58144916018155E-06
(PID.TID 0000.0001)  cg2d: iter=    75 ; resid.=  2.75417553699967E-06
(PID.TID 0000.0001)  cg2d: iter=    76 ; resid.=  2.07647145952535E-06
(PID.TID 0000.0001)  cg2d: iter=    77 ; resid.=  1.78856121937653E-06
(PID.TID 0000.0001)  cg2d: iter=    78 ; resid.=  1.47923202894933E-06
(PID.TID 0000.0001)  cg2d: iter=    79 ; resid.=  1.10701865108710E-06
(PID.TID 0000.0001)  cg2d: iter=    80 ; resid.=  8.22886635711258E-07
(PID.TID 0000.0001)  cg2d: iter=    81 ; resid.=  6.58169511287442E-07
(PID.TID 0000.0001)  cg2d: iter=    82 ; resid.=  5.54359374721518E-07
(PID.TID 0000.0001)  cg2d: iter=    83 ; resid.=  4.97789763233148E-07
(PID.TID 0000.0001)  cg2d: iter=    84 ; resid.=  4.27570023680137E-07
(PID.TID 0000.0001)  cg2d: iter=    85 ; resid.=  3.48288646934725E-07
(PID.TID 0000.0001)  cg2d: iter=    86 ; resid.=  2.80055886194342E-07
(PID.TID 0000.0001)  cg2d: iter=    87 ; resid.=  2.01236275988135E-07
(PID.TID 0000.0001)  cg2d: iter=    88 ; resid.=  1.51405824755034E-07
(PID.TID 0000.0001)  cg2d: iter=    89 ; resid.=  1.27357692341311E-07
(PID.TID 0000.0001)  cg2d: iter=    90 ; resid.=  1.05913645835571E-07
(PID.TID 0000.0001)  cg2d: iter=    91 ; resid.=  8.12601568247551E-08
(PID.TID 0000.0001)  cg2d: iter=    92 ; resid.=  6.24615187749838E-08
(PID.TID 0000.0001)  cg2d: iter=    93 ; resid.=  4.79381709997004E-08
(PID.TID 0000.0001)  cg2d: iter=    94 ; resid.=  4.01120020198598E-08
(PID.TID 0000.0001)  cg2d: iter=    95 ; resid.=  3.35862074429367E-08
(PID.TID 0000.0001)  cg2d: iter=    96 ; resid.=  2.67250305033258E-08
(PID.TID 0000.0001)  cg2d: iter=    97 ; resid.=  1.99391925804198E-08
(PID.TID 0000.0001)  cg2d: iter=    98 ; resid.=  1.51623305152438E-08
(PID.TID 0000.0001)  cg2d: iter=    99 ; resid.=  1.13831727952352E-08
(PID.TID 0000.0001)  cg2d: iter=   100 ; resid.=  9.67074335608380E-09
(PID.TID 0000.0001)  cg2d: iter=   101 ; resid.=  7.57611153985339E-09
(PID.TID 0000.0001)  cg2d: iter=   102 ; resid.=  5.99666606668568E-09
(PID.TID 0000.0001)  cg2d: iter=   103 ; resid.=  4.72455648060600E-09
(PID.TID 0000.0001)  cg2d: iter=   104 ; resid.=  3.77604960371178E-09
(PID.TID 0000.0001)  cg2d: iter=   105 ; resid.=  3.06308161334528E-09
(PID.TID 0000.0001)  cg2d: iter=   106 ; resid.=  2.49768229801815E-09
(PID.TID 0000.0001)  cg2d: iter=   107 ; resid.=  2.07253681821261E-09
(PID.TID 0000.0001)  cg2d: iter=   108 ; resid.=  1.84285340007585E-09
(PID.TID 0000.0001)  cg2d: iter=   109 ; resid.=  1.60622551864968E-09
(PID.TID 0000.0001)  cg2d: iter=   110 ; resid.=  1.34581893501781E-09
(PID.TID 0000.0001)  cg2d: iter=   111 ; resid.=  1.13974165100595E-09
(PID.TID 0000.0001)  cg2d: iter=   112 ; resid.=  8.77423087507785E-10
(PID.TID 0000.0001)  cg2d: iter=   113 ; resid.=  6.47022903002900E-10
(PID.TID 0000.0001)  cg2d: iter=   114 ; resid.=  4.57594986594152E-10
(PID.TID 0000.0001)  cg2d: iter=   115 ; resid.=  3.31307415571947E-10
(PID.TID 0000.0001)  cg2d: iter=   116 ; resid.=  2.54212664597808E-10
(PID.TID 0000.0001)  cg2d: iter=   117 ; resid.=  1.81215744275115E-10
(PID.TID 0000.0001)  cg2d: iter=   118 ; resid.=  1.35339314257018E-10
(PID.TID 0000.0001)  cg2d: iter=   119 ; resid.=  1.02363648318411E-10
(PID.TID 0000.0001)  cg2d: iter=   120 ; resid.=  7.61599127909381E-11
(PID.TID 0000.0001)  cg2d: iter=   121 ; resid.=  5.93181862023302E-11
(PID.TID 0000.0001)  cg2d: iter=   122 ; resid.=  4.77589568277890E-11
(PID.TID 0000.0001)  cg2d: iter=   123 ; resid.=  3.42843725904946E-11
(PID.TID 0000.0001)  cg2d: iter=   124 ; resid.=  2.73465718582263E-11
(PID.TID 0000.0001)  cg2d: iter=   125 ; resid.=  2.22643025279695E-11
(PID.TID 0000.0001)  cg2d: iter=   126 ; resid.=  1.69692727547207E-11
(PID.TID 0000.0001)  cg2d: iter=   127 ; resid.=  1.17103436659370E-11
(PID.TID 0000.0001)  cg2d: iter=   128 ; resid.=  8.52223782493398E-12
(PID.TID 0000.0001)  cg2d: iter=   129 ; resid.=  6.38659897677896E-12
(PID.TID 0000.0001)  cg2d: iter=   130 ; resid.=  4.70560823947208E-12
(PID.TID 0000.0001)  cg2d: iter=   131 ; resid.=  3.51327335811958E-12
(PID.TID 0000.0001)  cg2d: iter=   132 ; resid.=  2.37848102050713E-12
(PID.TID 0000.0001)  cg2d: iter=   133 ; resid.=  1.65632884495930E-12
(PID.TID 0000.0001)  cg2d: iter=   134 ; resid.=  1.19595473496389E-12
(PID.TID 0000.0001)  cg2d: iter=   135 ; resid.=  9.29184569861675E-13
(PID.TID 0000.0001)  cg2d: iter=   136 ; resid.=  7.11907661122557E-13
(PID.TID 0000.0001)  cg2d: iter=   137 ; resid.=  5.67144951197601E-13
(PID.TID 0000.0001)  cg2d: iter=   138 ; resid.=  4.60850966986161E-13
(PID.TID 0000.0001)  cg2d: iter=   139 ; resid.=  3.60899481114906E-13
(PID.TID 0000.0001)  cg2d: iter=   140 ; resid.=  2.59491278017298E-13
(PID.TID 0000.0001)  cg2d: iter=   141 ; resid.=  1.97609462198193E-13
(PID.TID 0000.0001)  cg2d: iter=   142 ; resid.=  1.40412415075577E-13
(PID.TID 0000.0001)  cg2d: iter=   143 ; resid.=  1.16174923475500E-13
(PID.TID 0000.0001)  cg2d: iter=   144 ; resid.=  9.55349612899694E-14
DEBUG_STATS_RL:    cg2d_x (SOLVE_FOR_PRESSURE)  min= -4.44942855191617E+01
DEBUG_STATS_RL:    cg2d_x (SOLVE_FOR_PRESSURE)  max=  3.99102003495567E+01
DEBUG_STATS_RL:    cg2d_x (SOLVE_FOR_PRESSURE) mean= -2.62241717295102E+00
DEBUG_STATS_RL:    cg2d_x (SOLVE_FOR_PRESSURE) S.D.=  1.85556579472994E+01
(PID.TID 0000.0001)      cg2d_init_res =   7.29219890809593E+00
(PID.TID 0000.0001)      cg2d_iters(min,last) =      -1     144
(PID.TID 0000.0001)      cg2d_last_res =   9.55349612899694E-14
(PID.TID 0000.0001) // =======================================================
(PID.TID 0000.0001) // Begin MONITOR dynamic field statistics
(PID.TID 0000.0001) // =======================================================
(PID.TID 0000.0001) %MON time_tsnumber                =                     2
(PID.TID 0000.0001) %MON time_secondsf                =   1.7280000000000E+05
(PID.TID 0000.0001) %MON dynstat_eta_max              =   4.0683180784461E+00
(PID.TID 0000.0001) %MON dynstat_eta_min              =  -4.5356050478251E+00
(PID.TID 0000.0001) %MON dynstat_eta_mean             =  -1.3043905248911E-04
(PID.TID 0000.0001) %MON dynstat_eta_sd               =   1.7506463177790E+00
(PID.TID 0000.0001) %MON dynstat_eta_del2             =   3.7621018170778E-03
(PID.TID 0000.0001) %MON dynstat_uvel_max             =   1.9119706217188E-01
(PID.TID 0000.0001) %MON dynstat_uvel_min             =  -4.0189566941793E-02
(PID.TID 0000.0001) %MON dynstat_uvel_mean            =   6.5158671196718E-03
(PID.TID 0000.0001) %MON dynstat_uvel_sd              =   8.0544726781355E-03
(PID.TID 0000.0001) %MON dynstat_uvel_del2            =   5.1857615820588E-05
(PID.TID 0000.0001) %MON dynstat_vvel_max             =   1.6936337949525E-01
(PID.TID 0000.0001) %MON dynstat_vvel_min             =  -5.2572044217957E-02
(PID.TID 0000.0001) %MON dynstat_vvel_mean            =   3.5160703981536E-03
(PID.TID 0000.0001) %MON dynstat_vvel_sd              =   7.5894298313848E-03
(PID.TID 0000.0001) %MON dynstat_vvel_del2            =   5.7473486117485E-05
(PID.TID 0000.0001) %MON dynstat_wvel_max             =   2.2111166228374E-04
(PID.TID 0000.0001) %MON dynstat_wvel_min             =  -2.4804734787537E-04
(PID.TID 0000.0001) %MON dynstat_wvel_mean            =  -9.9271002238811E-23
(PID.TID 0000.0001) %MON dynstat_wvel_sd              =   1.7177198741371E-05
(PID.TID 0000.0001) %MON dynstat_wvel_del2            =   2.2727529016341E-07
(PID.TID 0000.0001) %MON dynstat_theta_max            =   2.9598016830201E+01
(PID.TID 0000.0001) %MON dynstat_theta_min            =  -1.9417961271789E+00
(PID.TID 0000.0001) %MON dynstat_theta_mean           =   3.6377531455436E+00
(PID.TID 0000.0001) %MON dynstat_theta_sd             =   4.4138247093563E+00
(PID.TID 0000.0001) %MON dynstat_theta_del2           =   5.6049505050931E-03
(PID.TID 0000.0001) %MON dynstat_salt_max             =   3.7478913016315E+01
(PID.TID 0000.0001) %MON dynstat_salt_min             =   2.9774004042409E+01
(PID.TID 0000.0001) %MON dynstat_salt_mean            =   3.4737981740438E+01
(PID.TID 0000.0001) %MON dynstat_salt_sd              =   2.9589002095389E-01
(PID.TID 0000.0001) %MON dynstat_salt_del2            =   1.0194744693342E-03
(PID.TID 0000.0001) %MON dynstat_sst_max              =   2.9598016830201E+01
(PID.TID 0000.0001) %MON dynstat_sst_min              =  -1.8963012990616E+00
(PID.TID 0000.0001) %MON dynstat_sst_mean             =   1.8503133876165E+01
(PID.TID 0000.0001) %MON dynstat_sst_sd               =   9.1437347236161E+00
(PID.TID 0000.0001) %MON dynstat_sst_del2             =   2.6916963829047E-02
(PID.TID 0000.0001) %MON dynstat_sss_max              =   3.7478913016315E+01
(PID.TID 0000.0001) %MON dynstat_sss_min              =   2.9774004042409E+01
(PID.TID 0000.0001) %MON dynstat_sss_mean             =   3.4869863337300E+01
(PID.TID 0000.0001) %MON dynstat_sss_sd               =   9.6188213341770E-01
(PID.TID 0000.0001) %MON dynstat_sss_del2             =   7.9995775573354E-03
(PID.TID 0000.0001) %MON forcing_qnet_max             =   4.2693899536133E+02
(PID.TID 0000.0001) %MON forcing_qnet_min             =  -1.8655982259115E+02
(PID.TID 0000.0001) %MON forcing_qnet_mean            =  -1.6687693382567E+01
(PID.TID 0000.0001) %MON forcing_qnet_sd              =   1.1263946608433E+02
(PID.TID 0000.0001) %MON forcing_qnet_del2            =   9.9183674388333E-01
(PID.TID 0000.0001) %MON forcing_qsw_max              =   0.0000000000000E+00
(PID.TID 0000.0001) %MON forcing_qsw_min              =   0.0000000000000E+00
(PID.TID 0000.0001) %MON forcing_qsw_mean             =   0.0000000000000E+00
(PID.TID 0000.0001) %MON forcing_qsw_sd               =   0.0000000000000E+00
(PID.TID 0000.0001) %MON forcing_qsw_del2             =   0.0000000000000E+00
(PID.TID 0000.0001) %MON forcing_empmr_max            =   8.2987928351486E-05
(PID.TID 0000.0001) %MON forcing_empmr_min            =  -7.3906322484163E-05
(PID.TID 0000.0001) %MON forcing_empmr_mean           =   7.8616045367356E-07
(PID.TID 0000.0001) %MON forcing_empmr_sd             =   2.7832317986922E-05
(PID.TID 0000.0001) %MON forcing_empmr_del2           =   3.6378785899555E-07
(PID.TID 0000.0001) %MON forcing_fu_max               =   2.7403144240379E-01
(PID.TID 0000.0001) %MON forcing_fu_min               =  -1.5949268937111E-01
(PID.TID 0000.0001) %MON forcing_fu_mean              =   1.6109434647086E-02
(PID.TID 0000.0001) %MON forcing_fu_sd                =   9.0138031840955E-02
(PID.TID 0000.0001) %MON forcing_fu_del2              =   6.5488191036968E-04
(PID.TID 0000.0001) %MON forcing_fv_max               =   2.0882657567660E-01
(PID.TID 0000.0001) %MON forcing_fv_min               =  -1.8632210493088E-01
(PID.TID 0000.0001) %MON forcing_fv_mean              =  -6.2915731155564E-03
(PID.TID 0000.0001) %MON forcing_fv_sd                =   4.5261152700224E-02
(PID.TID 0000.0001) %MON forcing_fv_del2              =   4.4588571962377E-04
(PID.TID 0000.0001) %MON trAdv_CFL_u_max              =   3.2897375888652E-02
(PID.TID 0000.0001) %MON trAdv_CFL_v_max              =   2.1235797640745E-02
(PID.TID 0000.0001) %MON trAdv_CFL_w_max              =   9.6681034868311E-02
(PID.TID 0000.0001) %MON advcfl_uvel_max              =   4.2503805959674E-02
(PID.TID 0000.0001) %MON advcfl_vvel_max              =   3.2904588373885E-02
(PID.TID 0000.0001) %MON advcfl_wvel_max              =   8.4269432868578E-02
(PID.TID 0000.0001) %MON advcfl_W_hf_max              =   1.0232716848327E-01
(PID.TID 0000.0001) %MON pe_b_mean                    =   3.9217330833506E-03
(PID.TID 0000.0001) %MON ke_max                       =   1.6515778603693E-02
(PID.TID 0000.0001) %MON ke_mean                      =   8.0171219250315E-05
(PID.TID 0000.0001) %MON ke_vol                       =   1.3226782436723E+18
(PID.TID 0000.0001) %MON vort_r_min                   =  -4.7731520487307E-07
(PID.TID 0000.0001) %MON vort_r_max                   =   5.6324250362769E-07
(PID.TID 0000.0001) %MON vort_a_mean                  =  -2.5274807688147E-05
(PID.TID 0000.0001) %MON vort_a_sd                    =   7.3605635096532E-05
(PID.TID 0000.0001) %MON vort_p_mean                  =  -3.1845656165742E-05
(PID.TID 0000.0001) %MON vort_p_sd                    =   1.3162643978435E-04
(PID.TID 0000.0001) %MON surfExpan_theta_mean         =   2.0790110821152E-05
(PID.TID 0000.0001) %MON surfExpan_salt_mean          =   8.8362756695570E-07
(PID.TID 0000.0001) // =======================================================
(PID.TID 0000.0001) // End MONITOR dynamic field statistics
(PID.TID 0000.0001) // =======================================================
 EXTERNAL_FIELDS_LOAD,         2 : iP,iLd,i0,i1=   12    1   12    1 ; Wght=  0.4333333333  0.5666666667
 EXTERNAL_FIELDS_LOAD: (fu0,1),fu,fv= -4.5368E-02 -3.5633E-02 -3.9851E-02 -6.2886E-02
 EXTERNAL_FIELDS_LOAD: SST,SSS,Q,E-P=  1.7385E-01  3.4410E+01  2.6519E+02  1.0949E-05
DEBUG_STATS_RL:          Uvel (THERMODYNAMICS)  min= -4.01895669417931E-02
DEBUG_STATS_RL:          Uvel (THERMODYNAMICS)  max=  1.91197062171884E-01
DEBUG_STATS_RL:          Uvel (THERMODYNAMICS) mean=  8.25823091287118E-03
DEBUG_STATS_RL:          Uvel (THERMODYNAMICS) S.D.=  1.01944979848198E-02
DEBUG_STATS_RL:          Vvel (THERMODYNAMICS)  min= -5.25720442179567E-02
DEBUG_STATS_RL:          Vvel (THERMODYNAMICS)  max=  1.69363379495252E-01
DEBUG_STATS_RL:          Vvel (THERMODYNAMICS) mean=  2.84711132330024E-03
DEBUG_STATS_RL:          Vvel (THERMODYNAMICS) S.D.=  9.82584065385181E-03
DEBUG_STATS_RL:          Wvel (THERMODYNAMICS)  min= -2.48047347875366E-04
DEBUG_STATS_RL:          Wvel (THERMODYNAMICS)  max=  2.21111662283740E-04
DEBUG_STATS_RL:          Wvel (THERMODYNAMICS) mean= -7.14655571879786E-07
DEBUG_STATS_RL:          Wvel (THERMODYNAMICS) S.D.=  1.64581261815275E-05
DEBUG_STATS_RL:         Theta (THERMODYNAMICS)  min= -1.92005520886729E+00
DEBUG_STATS_RL:         Theta (THERMODYNAMICS)  max=  2.96989184489717E+01
DEBUG_STATS_RL:         Theta (THERMODYNAMICS) mean=  3.21516567598295E+00
DEBUG_STATS_RL:         Theta (THERMODYNAMICS) S.D.=  5.84252625323304E+00
DEBUG_STATS_RL:          Salt (THERMODYNAMICS)  min=  2.00000000000000E-02
DEBUG_STATS_RL:          Salt (THERMODYNAMICS)  max=  3.74711057580550E+01
DEBUG_STATS_RL:          Salt (THERMODYNAMICS) mean=  1.88650251838886E+01
DEBUG_STATS_RL:          Salt (THERMODYNAMICS) S.D.=  1.73004958464829E+01
DEBUG_STATS_RL:         GtNm1 (THERMODYNAMICS)  min= -6.16385842850884E-06
DEBUG_STATS_RL:         GtNm1 (THERMODYNAMICS)  max=  3.43208564731676E-06
DEBUG_STATS_RL:         GtNm1 (THERMODYNAMICS) mean=  8.94276950927478E-09
DEBUG_STATS_RL:         GtNm1 (THERMODYNAMICS) S.D.=  2.36807830509311E-07
DEBUG_STATS_RL:         GsNm1 (THERMODYNAMICS)  min= -3.82774104202782E-07
DEBUG_STATS_RL:         GsNm1 (THERMODYNAMICS)  max=  2.26306251091051E-07
DEBUG_STATS_RL:         GsNm1 (THERMODYNAMICS) mean= -5.12680827155922E-10
DEBUG_STATS_RL:         GsNm1 (THERMODYNAMICS) S.D.=  1.58129677519655E-08
DEBUG_STATS_RL:                EtaN (DYNAMICS)  min= -4.53560504782511E+00
DEBUG_STATS_RL:                EtaN (DYNAMICS)  max=  4.06831807844613E+00
DEBUG_STATS_RL:                EtaN (DYNAMICS) mean= -2.67320812737106E-01
DEBUG_STATS_RL:                EtaN (DYNAMICS) S.D.=  1.89150437791022E+00
DEBUG_STATS_RL:                Uvel (DYNAMICS)  min= -4.01895669417931E-02
DEBUG_STATS_RL:                Uvel (DYNAMICS)  max=  1.91197062171884E-01
DEBUG_STATS_RL:                Uvel (DYNAMICS) mean=  8.25823091287118E-03
DEBUG_STATS_RL:                Uvel (DYNAMICS) S.D.=  1.01944979848198E-02
DEBUG_STATS_RL:                Vvel (DYNAMICS)  min= -5.25720442179567E-02
DEBUG_STATS_RL:                Vvel (DYNAMICS)  max=  1.69363379495252E-01
DEBUG_STATS_RL:                Vvel (DYNAMICS) mean=  2.84711132330024E-03
DEBUG_STATS_RL:                Vvel (DYNAMICS) S.D.=  9.82584065385181E-03
DEBUG_STATS_RL:                Wvel (DYNAMICS)  min= -2.48047347875366E-04
DEBUG_STATS_RL:                Wvel (DYNAMICS)  max=  2.21111662283740E-04
DEBUG_STATS_RL:                Wvel (DYNAMICS) mean= -7.14655571879786E-07
DEBUG_STATS_RL:                Wvel (DYNAMICS) S.D.=  1.64581261815275E-05
DEBUG_STATS_RL:               Theta (DYNAMICS)  min= -1.92005520886729E+00
DEBUG_STATS_RL:               Theta (DYNAMICS)  max=  2.96989184489717E+01
DEBUG_STATS_RL:               Theta (DYNAMICS) mean=  3.21516567598295E+00
DEBUG_STATS_RL:               Theta (DYNAMICS) S.D.=  5.84252625323304E+00
DEBUG_STATS_RL:                Salt (DYNAMICS)  min=  2.00000000000000E-02
DEBUG_STATS_RL:                Salt (DYNAMICS)  max=  3.74711057580550E+01
DEBUG_STATS_RL:                Salt (DYNAMICS) mean=  1.88650251838886E+01
DEBUG_STATS_RL:                Salt (DYNAMICS) S.D.=  1.73004958464829E+01
DEBUG_STATS_RL:                  Gu (DYNAMICS)  min= -3.99613869161328E-02
DEBUG_STATS_RL:                  Gu (DYNAMICS)  max=  1.83469959426182E-01
DEBUG_STATS_RL:                  Gu (DYNAMICS) mean=  8.21252151192523E-03
DEBUG_STATS_RL:                  Gu (DYNAMICS) S.D.=  1.20695598929169E-02
DEBUG_STATS_RL:                  Gv (DYNAMICS)  min= -4.39857172375303E-02
DEBUG_STATS_RL:                  Gv (DYNAMICS)  max=  1.70620750714167E-01
DEBUG_STATS_RL:                  Gv (DYNAMICS) mean=  3.70899377723945E-03
DEBUG_STATS_RL:                  Gv (DYNAMICS) S.D.=  1.11180930498378E-02
DEBUG_STATS_RL:               GuNm1 (DYNAMICS)  min= -9.93724897157111E-06
DEBUG_STATS_RL:               GuNm1 (DYNAMICS)  max=  9.64133248977211E-06
DEBUG_STATS_RL:               GuNm1 (DYNAMICS) mean= -6.93513277076247E-08
DEBUG_STATS_RL:               GuNm1 (DYNAMICS) S.D.=  1.39179704703659E-06
DEBUG_STATS_RL:               GvNm1 (DYNAMICS)  min= -1.21100278520347E-05
DEBUG_STATS_RL:               GvNm1 (DYNAMICS)  max=  1.74441245024310E-05
DEBUG_STATS_RL:               GvNm1 (DYNAMICS) mean=  7.54289217310312E-07
DEBUG_STATS_RL:               GvNm1 (DYNAMICS) S.D.=  2.87900136191639E-06
DEBUG_STATS_RL:               GtNm1 (DYNAMICS)  min= -6.16385842850884E-06
DEBUG_STATS_RL:               GtNm1 (DYNAMICS)  max=  3.43208564731676E-06
DEBUG_STATS_RL:               GtNm1 (DYNAMICS) mean=  8.94276950927478E-09
DEBUG_STATS_RL:               GtNm1 (DYNAMICS) S.D.=  2.36807830509311E-07
DEBUG_STATS_RL:               GsNm1 (DYNAMICS)  min= -3.82774104202782E-07
DEBUG_STATS_RL:               GsNm1 (DYNAMICS)  max=  2.26306251091051E-07
DEBUG_STATS_RL:               GsNm1 (DYNAMICS) mean= -5.12680827155922E-10
DEBUG_STATS_RL:               GsNm1 (DYNAMICS) S.D.=  1.58129677519655E-08
DEBUG_STATS_RL:    cg2d_b (SOLVE_FOR_PRESSURE)  min= -3.59345754675637E+04
DEBUG_STATS_RL:    cg2d_b (SOLVE_FOR_PRESSURE)  max=  1.95658911248014E+04
DEBUG_STATS_RL:    cg2d_b (SOLVE_FOR_PRESSURE) mean=  1.88697000446486E-01
DEBUG_STATS_RL:    cg2d_b (SOLVE_FOR_PRESSURE) S.D.=  5.25645620959913E+03
 cg2d: Sum(rhs),rhsMax =   1.21563577793648E-02  2.36027912886588E+00
(PID.TID 0000.0001)  cg2d: iter=     1 ; resid.=  2.65897155028804E+00
(PID.TID 0000.0001)  cg2d: iter=     2 ; resid.=  2.55155875015064E+00
(PID.TID 0000.0001)  cg2d: iter=     3 ; resid.=  2.05000547391030E+00
(PID.TID 0000.0001)  cg2d: iter=     4 ; resid.=  1.69611934073866E+00
(PID.TID 0000.0001)  cg2d: iter=     5 ; resid.=  1.35051498397920E+00
(PID.TID 0000.0001)  cg2d: iter=     6 ; resid.=  1.06936457748433E+00
(PID.TID 0000.0001)  cg2d: iter=     7 ; resid.=  8.30104276562348E-01
(PID.TID 0000.0001)  cg2d: iter=     8 ; resid.=  6.52113216035434E-01
(PID.TID 0000.0001)  cg2d: iter=     9 ; resid.=  5.20052689389188E-01
(PID.TID 0000.0001)  cg2d: iter=    10 ; resid.=  4.36643929096971E-01
(PID.TID 0000.0001)  cg2d: iter=    11 ; resid.=  3.85074688637384E-01
(PID.TID 0000.0001)  cg2d: iter=    12 ; resid.=  3.28088297588584E-01
(PID.TID 0000.0001)  cg2d: iter=    13 ; resid.=  2.83732256192922E-01
(PID.TID 0000.0001)  cg2d: iter=    14 ; resid.=  2.59613358924115E-01
(PID.TID 0000.0001)  cg2d: iter=    15 ; resid.=  2.33668389989336E-01
(PID.TID 0000.0001)  cg2d: iter=    16 ; resid.=  2.07772459019886E-01
(PID.TID 0000.0001)  cg2d: iter=    17 ; resid.=  1.73181414431555E-01
(PID.TID 0000.0001)  cg2d: iter=    18 ; resid.=  1.50260126512837E-01
(PID.TID 0000.0001)  cg2d: iter=    19 ; resid.=  1.28792126507018E-01
(PID.TID 0000.0001)  cg2d: iter=    20 ; resid.=  1.11148471058054E-01
(PID.TID 0000.0001)  cg2d: iter=    21 ; resid.=  9.62985251505260E-02
(PID.TID 0000.0001)  cg2d: iter=    22 ; resid.=  8.28834437013620E-02
(PID.TID 0000.0001)  cg2d: iter=    23 ; resid.=  6.28565376331963E-02
(PID.TID 0000.0001)  cg2d: iter=    24 ; resid.=  4.79971939728742E-02
(PID.TID 0000.0001)  cg2d: iter=    25 ; resid.=  3.39592074411357E-02
(PID.TID 0000.0001)  cg2d: iter=    26 ; resid.=  2.80690909735162E-02
(PID.TID 0000.0001)  cg2d: iter=    27 ; resid.=  2.28885595887086E-02
(PID.TID 0000.0001)  cg2d: iter=    28 ; resid.=  1.99389437772016E-02
(PID.TID 0000.0001)  cg2d: iter=    29 ; resid.=  1.80832439623037E-02
(PID.TID 0000.0001)  cg2d: iter=    30 ; resid.=  1.70440066331742E-02
(PID.TID 0000.0001)  cg2d: iter=    31 ; resid.=  1.24161310908206E-02
(PID.TID 0000.0001)  cg2d: iter=    32 ; resid.=  9.69094364492735E-03
(PID.TID 0000.0001)  cg2d: iter=    33 ; resid.=  7.63460016268805E-03
(PID.TID 0000.0001)  cg2d: iter=    34 ; resid.=  6.83617482883363E-03
(PID.TID 0000.0001)  cg2d: iter=    35 ; resid.=  5.25959063889162E-03
(PID.TID 0000.0001)  cg2d: iter=    36 ; resid.=  4.15738003148448E-03
(PID.TID 0000.0001)  cg2d: iter=    37 ; resid.=  3.37518442838637E-03
(PID.TID 0000.0001)  cg2d: iter=    38 ; resid.=  2.82529356364207E-03
(PID.TID 0000.0001)  cg2d: iter=    39 ; resid.=  2.28892607763994E-03
(PID.TID 0000.0001)  cg2d: iter=    40 ; resid.=  1.96306346240546E-03
(PID.TID 0000.0001)  cg2d: iter=    41 ; resid.=  1.59363611288193E-03
(PID.TID 0000.0001)  cg2d: iter=    42 ; resid.=  1.35001526858537E-03
(PID.TID 0000.0001)  cg2d: iter=    43 ; resid.=  1.04587796972609E-03
(PID.TID 0000.0001)  cg2d: iter=    44 ; resid.=  8.28208790635859E-04
(PID.TID 0000.0001)  cg2d: iter=    45 ; resid.=  7.01016684310044E-04
(PID.TID 0000.0001)  cg2d: iter=    46 ; resid.=  6.07728525294695E-04
(PID.TID 0000.0001)  cg2d: iter=    47 ; resid.=  5.02812078915798E-04
(PID.TID 0000.0001)  cg2d: iter=    48 ; resid.=  4.22236504878858E-04
(PID.TID 0000.0001)  cg2d: iter=    49 ; resid.=  3.51754514246482E-04
(PID.TID 0000.0001)  cg2d: iter=    50 ; resid.=  2.86615718817265E-04
(PID.TID 0000.0001)  cg2d: iter=    51 ; resid.=  2.40772245080716E-04
(PID.TID 0000.0001)  cg2d: iter=    52 ; resid.=  2.06501396781113E-04
(PID.TID 0000.0001)  cg2d: iter=    53 ; resid.=  1.86458158679794E-04
(PID.TID 0000.0001)  cg2d: iter=    54 ; resid.=  1.68516217391746E-04
(PID.TID 0000.0001)  cg2d: iter=    55 ; resid.=  1.47027544504089E-04
(PID.TID 0000.0001)  cg2d: iter=    56 ; resid.=  1.05566304435155E-04
(PID.TID 0000.0001)  cg2d: iter=    57 ; resid.=  7.77509343875641E-05
(PID.TID 0000.0001)  cg2d: iter=    58 ; resid.=  6.09449508028202E-05
(PID.TID 0000.0001)  cg2d: iter=    59 ; resid.=  5.19510119644410E-05
(PID.TID 0000.0001)  cg2d: iter=    60 ; resid.=  4.59150811336139E-05
(PID.TID 0000.0001)  cg2d: iter=    61 ; resid.=  3.95630082881106E-05
(PID.TID 0000.0001)  cg2d: iter=    62 ; resid.=  2.86443979425962E-05
(PID.TID 0000.0001)  cg2d: iter=    63 ; resid.=  2.11120732094943E-05
(PID.TID 0000.0001)  cg2d: iter=    64 ; resid.=  1.73901281055036E-05
(PID.TID 0000.0001)  cg2d: iter=    65 ; resid.=  1.46140131126774E-05
(PID.TID 0000.0001)  cg2d: iter=    66 ; resid.=  1.30572653305805E-05
(PID.TID 0000.0001)  cg2d: iter=    67 ; resid.=  1.07435690726289E-05
(PID.TID 0000.0001)  cg2d: iter=    68 ; resid.=  8.61786364094839E-06
(PID.TID 0000.0001)  cg2d: iter=    69 ; resid.=  6.89254531124486E-06
(PID.TID 0000.0001)  cg2d: iter=    70 ; resid.=  5.15067715443791E-06
(PID.TID 0000.0001)  cg2d: iter=    71 ; resid.=  3.99202081387575E-06
(PID.TID 0000.0001)  cg2d: iter=    72 ; resid.=  3.36005033018565E-06
(PID.TID 0000.0001)  cg2d: iter=    73 ; resid.=  2.73687735027309E-06
(PID.TID 0000.0001)  cg2d: iter=    74 ; resid.=  2.18641486248667E-06
(PID.TID 0000.0001)  cg2d: iter=    75 ; resid.=  1.82754817096044E-06
(PID.TID 0000.0001)  cg2d: iter=    76 ; resid.=  1.51959513406214E-06
(PID.TID 0000.0001)  cg2d: iter=    77 ; resid.=  1.31438549436999E-06
(PID.TID 0000.0001)  cg2d: iter=    78 ; resid.=  1.11976312639345E-06
(PID.TID 0000.0001)  cg2d: iter=    79 ; resid.=  9.56488429341638E-07
(PID.TID 0000.0001)  cg2d: iter=    80 ; resid.=  7.85795908964722E-07
(PID.TID 0000.0001)  cg2d: iter=    81 ; resid.=  6.39546158235882E-07
(PID.TID 0000.0001)  cg2d: iter=    82 ; resid.=  4.84170895865887E-07
(PID.TID 0000.0001)  cg2d: iter=    83 ; resid.=  4.03168053127874E-07
(PID.TID 0000.0001)  cg2d: iter=    84 ; resid.=  3.18674245106644E-07
(PID.TID 0000.0001)  cg2d: iter=    85 ; resid.=  2.67946208826828E-07
(PID.TID 0000.0001)  cg2d: iter=    86 ; resid.=  2.22353203443230E-07
(PID.TID 0000.0001)  cg2d: iter=    87 ; resid.=  1.96871132727858E-07
(PID.TID 0000.0001)  cg2d: iter=    88 ; resid.=  1.84562127739450E-07
(PID.TID 0000.0001)  cg2d: iter=    89 ; resid.=  1.60865936001112E-07
(PID.TID 0000.0001)  cg2d: iter=    90 ; resid.=  1.25683889184058E-07
(PID.TID 0000.0001)  cg2d: iter=    91 ; resid.=  9.74883635876464E-08
(PID.TID 0000.0001)  cg2d: iter=    92 ; resid.=  7.18604664480084E-08
(PID.TID 0000.0001)  cg2d: iter=    93 ; resid.=  5.29535503723952E-08
(PID.TID 0000.0001)  cg2d: iter=    94 ; resid.=  3.97991385071597E-08
(PID.TID 0000.0001)  cg2d: iter=    95 ; resid.=  2.88879956877811E-08
(PID.TID 0000.0001)  cg2d: iter=    96 ; resid.=  2.07866926269975E-08
(PID.TID 0000.0001)  cg2d: iter=    97 ; resid.=  1.61003449667259E-08
(PID.TID 0000.0001)  cg2d: iter=    98 ; resid.=  1.27696584123276E-08
(PID.TID 0000.0001)  cg2d: iter=    99 ; resid.=  1.03106784453320E-08
(PID.TID 0000.0001)  cg2d: iter=   100 ; resid.=  8.36737987859632E-09
(PID.TID 0000.0001)  cg2d: iter=   101 ; resid.=  6.16717497952681E-09
(PID.TID 0000.0001)  cg2d: iter=   102 ; resid.=  4.90433171749604E-09
(PID.TID 0000.0001)  cg2d: iter=   103 ; resid.=  3.99222534466794E-09
(PID.TID 0000.0001)  cg2d: iter=   104 ; resid.=  3.22891950903980E-09
(PID.TID 0000.0001)  cg2d: iter=   105 ; resid.=  2.59019615921611E-09
(PID.TID 0000.0001)  cg2d: iter=   106 ; resid.=  2.24090079657478E-09
(PID.TID 0000.0001)  cg2d: iter=   107 ; resid.=  1.80177105342200E-09
(PID.TID 0000.0001)  cg2d: iter=   108 ; resid.=  1.51639599165285E-09
(PID.TID 0000.0001)  cg2d: iter=   109 ; resid.=  1.23549335738737E-09
(PID.TID 0000.0001)  cg2d: iter=   110 ; resid.=  9.99321739932571E-10
(PID.TID 0000.0001)  cg2d: iter=   111 ; resid.=  8.13799510701756E-10
(PID.TID 0000.0001)  cg2d: iter=   112 ; resid.=  6.46503272844919E-10
(PID.TID 0000.0001)  cg2d: iter=   113 ; resid.=  5.04069160900562E-10
(PID.TID 0000.0001)  cg2d: iter=   114 ; resid.=  4.37862727349914E-10
(PID.TID 0000.0001)  cg2d: iter=   115 ; resid.=  3.49943157775297E-10
(PID.TID 0000.0001)  cg2d: iter=   116 ; resid.=  2.78918306801570E-10
(PID.TID 0000.0001)  cg2d: iter=   117 ; resid.=  2.32788765976669E-10
(PID.TID 0000.0001)  cg2d: iter=   118 ; resid.=  1.94499466622220E-10
(PID.TID 0000.0001)  cg2d: iter=   119 ; resid.=  1.47942253506162E-10
(PID.TID 0000.0001)  cg2d: iter=   120 ; resid.=  1.17289386245222E-10
(PID.TID 0000.0001)  cg2d: iter=   121 ; resid.=  9.12677095166451E-11
(PID.TID 0000.0001)  cg2d: iter=   122 ; resid.=  6.72482833677808E-11
(PID.TID 0000.0001)  cg2d: iter=   123 ; resid.=  4.64414611741941E-11
(PID.TID 0000.0001)  cg2d: iter=   124 ; resid.=  3.40587323532386E-11
(PID.TID 0000.0001)  cg2d: iter=   125 ; resid.=  2.44383521642222E-11
(PID.TID 0000.0001)  cg2d: iter=   126 ; resid.=  1.89551465072880E-11
(PID.TID 0000.0001)  cg2d: iter=   127 ; resid.=  1.32451511682555E-11
(PID.TID 0000.0001)  cg2d: iter=   128 ; resid.=  9.49265408889235E-12
(PID.TID 0000.0001)  cg2d: iter=   129 ; resid.=  6.51862242426401E-12
(PID.TID 0000.0001)  cg2d: iter=   130 ; resid.=  4.64025914415444E-12
(PID.TID 0000.0001)  cg2d: iter=   131 ; resid.=  3.50031561571159E-12
(PID.TID 0000.0001)  cg2d: iter=   132 ; resid.=  2.49461708643792E-12
(PID.TID 0000.0001)  cg2d: iter=   133 ; resid.=  1.96670840196886E-12
(PID.TID 0000.0001)  cg2d: iter=   134 ; resid.=  1.49538222868218E-12
(PID.TID 0000.0001)  cg2d: iter=   135 ; resid.=  1.10099509449589E-12
(PID.TID 0000.0001)  cg2d: iter=   136 ; resid.=  8.20207321001694E-13
(PID.TID 0000.0001)  cg2d: iter=   137 ; resid.=  5.98602112510741E-13
(PID.TID 0000.0001)  cg2d: iter=   138 ; resid.=  4.47437127001142E-13
(PID.TID 0000.0001)  cg2d: iter=   139 ; resid.=  3.62539161297632E-13
(PID.TID 0000.0001)  cg2d: iter=   140 ; resid.=  2.80424200775225E-13
(PID.TID 0000.0001)  cg2d: iter=   141 ; resid.=  2.22885920807694E-13
(PID.TID 0000.0001)  cg2d: iter=   142 ; resid.=  1.75099484453937E-13
(PID.TID 0000.0001)  cg2d: iter=   143 ; resid.=  1.52640673163877E-13
(PID.TID 0000.0001)  cg2d: iter=   144 ; resid.=  1.01194296171687E-13
(PID.TID 0000.0001)  cg2d: iter=   145 ; resid.=  6.70598422908126E-14
DEBUG_STATS_RL:    cg2d_x (SOLVE_FOR_PRESSURE)  min= -3.36160277849356E+01
DEBUG_STATS_RL:    cg2d_x (SOLVE_FOR_PRESSURE)  max=  3.15304253642212E+01
DEBUG_STATS_RL:    cg2d_x (SOLVE_FOR_PRESSURE) mean= -2.02290971110614E+00
DEBUG_STATS_RL:    cg2d_x (SOLVE_FOR_PRESSURE) S.D.=  1.50858637037114E+01
(PID.TID 0000.0001)      cg2d_init_res =   2.30988125347735E+00
(PID.TID 0000.0001)      cg2d_iters(min,last) =      -1     145
(PID.TID 0000.0001)      cg2d_last_res =   6.70598422908126E-14
(PID.TID 0000.0001) // =======================================================
(PID.TID 0000.0001) // Begin MONITOR dynamic field statistics
(PID.TID 0000.0001) // =======================================================
(PID.TID 0000.0001) %MON time_tsnumber                =                     3
(PID.TID 0000.0001) %MON time_secondsf                =   2.5920000000000E+05
(PID.TID 0000.0001) %MON dynstat_eta_max              =   3.2141106385547E+00
(PID.TID 0000.0001) %MON dynstat_eta_min              =  -3.4267102736936E+00
(PID.TID 0000.0001) %MON dynstat_eta_mean             =  -1.9688192231139E-04
(PID.TID 0000.0001) %MON dynstat_eta_sd               =   1.4015753386300E+00
(PID.TID 0000.0001) %MON dynstat_eta_del2             =   3.3683081284931E-03
(PID.TID 0000.0001) %MON dynstat_uvel_max             =   2.1411885107600E-01
(PID.TID 0000.0001) %MON dynstat_uvel_min             =  -5.6620934077486E-02
(PID.TID 0000.0001) %MON dynstat_uvel_mean            =   3.8683633105893E-03
(PID.TID 0000.0001) %MON dynstat_uvel_sd              =   1.0160125911806E-02
(PID.TID 0000.0001) %MON dynstat_uvel_del2            =   6.0613309204357E-05
(PID.TID 0000.0001) %MON dynstat_vvel_max             =   1.8626984117778E-01
(PID.TID 0000.0001) %MON dynstat_vvel_min             =  -7.5753163584209E-02
(PID.TID 0000.0001) %MON dynstat_vvel_mean            =  -1.6409967141793E-03
(PID.TID 0000.0001) %MON dynstat_vvel_sd              =   9.2001861846778E-03
(PID.TID 0000.0001) %MON dynstat_vvel_del2            =   7.2147997461928E-05
(PID.TID 0000.0001) %MON dynstat_wvel_max             =   2.4767161666491E-04
(PID.TID 0000.0001) %MON dynstat_wvel_min             =  -2.4214744941311E-04
(PID.TID 0000.0001) %MON dynstat_wvel_mean            =   3.9056992285639E-22
(PID.TID 0000.0001) %MON dynstat_wvel_sd              =   2.0124626567949E-05
(PID.TID 0000.0001) %MON dynstat_wvel_del2            =   2.7008593674525E-07
(PID.TID 0000.0001) %MON dynstat_theta_max            =   2.9698918448972E+01
(PID.TID 0000.0001) %MON dynstat_theta_min            =  -1.9200552088673E+00
(PID.TID 0000.0001) %MON dynstat_theta_mean           =   3.6378364617579E+00
(PID.TID 0000.0001) %MON dynstat_theta_sd             =   4.4129301360953E+00
(PID.TID 0000.0001) %MON dynstat_theta_del2           =   5.5542731276952E-03
(PID.TID 0000.0001) %MON dynstat_salt_max             =   3.7471105758055E+01
(PID.TID 0000.0001) %MON dynstat_salt_min             =   2.9772393543490E+01
(PID.TID 0000.0001) %MON dynstat_salt_mean            =   3.4737959430596E+01
(PID.TID 0000.0001) %MON dynstat_salt_sd              =   2.9593633330023E-01
(PID.TID 0000.0001) %MON dynstat_salt_del2            =   1.0173807655652E-03
(PID.TID 0000.0001) %MON dynstat_sst_max              =   2.9698918448972E+01
(PID.TID 0000.0001) %MON dynstat_sst_min              =  -1.9021929995839E+00
(PID.TID 0000.0001) %MON dynstat_sst_mean             =   1.8518965804929E+01
(PID.TID 0000.0001) %MON dynstat_sst_sd               =   9.1344329740600E+00
(PID.TID 0000.0001) %MON dynstat_sst_del2             =   2.6745856696347E-02
(PID.TID 0000.0001) %MON dynstat_sss_max              =   3.7471105758055E+01
(PID.TID 0000.0001) %MON dynstat_sss_min              =   2.9772393543490E+01
(PID.TID 0000.0001) %MON dynstat_sss_mean             =   3.4870464354010E+01
(PID.TID 0000.0001) %MON dynstat_sss_sd               =   9.6307605582795E-01
(PID.TID 0000.0001) %MON dynstat_sss_del2             =   7.9921169108530E-03
(PID.TID 0000.0001) %MON forcing_qnet_max             =   4.2798718261719E+02
(PID.TID 0000.0001) %MON forcing_qnet_min             =  -1.8609266001383E+02
(PID.TID 0000.0001) %MON forcing_qnet_mean            =  -1.6675181426744E+01
(PID.TID 0000.0001) %MON forcing_qnet_sd              =   1.1242481361476E+02
(PID.TID 0000.0001) %MON forcing_qnet_del2            =   9.9305199082959E-01
(PID.TID 0000.0001) %MON forcing_qsw_max              =   0.0000000000000E+00
(PID.TID 0000.0001) %MON forcing_qsw_min              =   0.0000000000000E+00
(PID.TID 0000.0001) %MON forcing_qsw_mean             =   0.0000000000000E+00
(PID.TID 0000.0001) %MON forcing_qsw_sd               =   0.0000000000000E+00
(PID.TID 0000.0001) %MON forcing_qsw_del2             =   0.0000000000000E+00
(PID.TID 0000.0001) %MON forcing_empmr_max            =   8.2732094597304E-05
(PID.TID 0000.0001) %MON forcing_empmr_min            =  -7.3643138875923E-05
(PID.TID 0000.0001) %MON forcing_empmr_mean           =   7.9593021141906E-07
(PID.TID 0000.0001) %MON forcing_empmr_sd             =   2.7874041013016E-05
(PID.TID 0000.0001) %MON forcing_empmr_del2           =   3.6331922792719E-07
(PID.TID 0000.0001) %MON forcing_fu_max               =   2.7317289412022E-01
(PID.TID 0000.0001) %MON forcing_fu_min               =  -1.6030610948801E-01
(PID.TID 0000.0001) %MON forcing_fu_mean              =   1.6101741826049E-02
(PID.TID 0000.0001) %MON forcing_fu_sd                =   9.0133772222350E-02
(PID.TID 0000.0001) %MON forcing_fu_del2              =   6.5664222090357E-04
(PID.TID 0000.0001) %MON forcing_fv_max               =   2.0930016835531E-01
(PID.TID 0000.0001) %MON forcing_fv_min               =  -1.8573744744062E-01
(PID.TID 0000.0001) %MON forcing_fv_mean              =  -6.2178105886955E-03
(PID.TID 0000.0001) %MON forcing_fv_sd                =   4.5379778517573E-02
(PID.TID 0000.0001) %MON forcing_fv_del2              =   4.4636987924417E-04
(PID.TID 0000.0001) %MON trAdv_CFL_u_max              =   4.2512438786657E-02
(PID.TID 0000.0001) %MON trAdv_CFL_v_max              =   3.3093749718428E-02
(PID.TID 0000.0001) %MON trAdv_CFL_w_max              =   7.1629017938291E-02
(PID.TID 0000.0001) %MON advcfl_uvel_max              =   4.2241603585388E-02
(PID.TID 0000.0001) %MON advcfl_vvel_max              =   3.6189242731754E-02
(PID.TID 0000.0001) %MON advcfl_wvel_max              =   9.1329141728249E-02
(PID.TID 0000.0001) %MON advcfl_W_hf_max              =   9.6918443038320E-02
(PID.TID 0000.0001) %MON pe_b_mean                    =   2.5137038094132E-03
(PID.TID 0000.0001) %MON ke_max                       =   2.1382429705915E-02
(PID.TID 0000.0001) %MON ke_mean                      =   9.2905684947681E-05
(PID.TID 0000.0001) %MON ke_vol                       =   1.3226782436723E+18
(PID.TID 0000.0001) %MON vort_r_min                   =  -5.4900370814336E-07
(PID.TID 0000.0001) %MON vort_r_max                   =   7.3364703920322E-07
(PID.TID 0000.0001) %MON vort_a_mean                  =  -2.5274808024704E-05
(PID.TID 0000.0001) %MON vort_a_sd                    =   7.3605007470904E-05
(PID.TID 0000.0001) %MON vort_p_mean                  =  -3.1845656589796E-05
(PID.TID 0000.0001) %MON vort_p_sd                    =   1.3162464893363E-04
(PID.TID 0000.0001) %MON surfExpan_theta_mean         =  -8.8608010809190E-06
(PID.TID 0000.0001) %MON surfExpan_salt_mean          =  -3.4973357248555E-08
(PID.TID 0000.0001) // =======================================================
(PID.TID 0000.0001) // End MONITOR dynamic field statistics
(PID.TID 0000.0001) // =======================================================
 EXTERNAL_FIELDS_LOAD,         3 : iP,iLd,i0,i1=   12    1   12    1 ; Wght=  0.4000000000  0.6000000000
 EXTERNAL_FIELDS_LOAD: (fu0,1),fu,fv= -4.5368E-02 -3.5633E-02 -3.9527E-02 -6.2453E-02
 EXTERNAL_FIELDS_LOAD: SST,SSS,Q,E-P=  2.3421E-01  3.4434E+01  2.6523E+02  1.1002E-05
DEBUG_STATS_RL:          Uvel (THERMODYNAMICS)  min= -5.66209340774860E-02
DEBUG_STATS_RL:          Uvel (THERMODYNAMICS)  max=  2.14118851076003E-01
DEBUG_STATS_RL:          Uvel (THERMODYNAMICS) mean=  6.28712293847796E-03
DEBUG_STATS_RL:          Uvel (THERMODYNAMICS) S.D.=  1.30734654481132E-02
DEBUG_STATS_RL:          Vvel (THERMODYNAMICS)  min= -7.57531635842093E-02
DEBUG_STATS_RL:          Vvel (THERMODYNAMICS)  max=  1.86269841177781E-01
DEBUG_STATS_RL:          Vvel (THERMODYNAMICS) mean= -2.56697423736176E-03
DEBUG_STATS_RL:          Vvel (THERMODYNAMICS) S.D.=  1.22374915127493E-02
DEBUG_STATS_RL:          Wvel (THERMODYNAMICS)  min= -2.42147449413108E-04
DEBUG_STATS_RL:          Wvel (THERMODYNAMICS)  max=  2.47671616664909E-04
DEBUG_STATS_RL:          Wvel (THERMODYNAMICS) mean=  6.91317013927748E-08
DEBUG_STATS_RL:          Wvel (THERMODYNAMICS) S.D.=  1.92278301608587E-05
DEBUG_STATS_RL:         Theta (THERMODYNAMICS)  min= -1.91213174811006E+00
DEBUG_STATS_RL:         Theta (THERMODYNAMICS)  max=  2.97750584977898E+01
DEBUG_STATS_RL:         Theta (THERMODYNAMICS) mean=  3.21698240841488E+00
DEBUG_STATS_RL:         Theta (THERMODYNAMICS) S.D.=  5.84498021031098E+00
DEBUG_STATS_RL:          Salt (THERMODYNAMICS)  min=  2.00000000000000E-02
DEBUG_STATS_RL:          Salt (THERMODYNAMICS)  max=  3.74649112184085E+01
DEBUG_STATS_RL:          Salt (THERMODYNAMICS) mean=  1.88651005145137E+01
DEBUG_STATS_RL:          Salt (THERMODYNAMICS) S.D.=  1.73005688307071E+01
DEBUG_STATS_RL:         GtNm1 (THERMODYNAMICS)  min= -5.74334294228089E-06
DEBUG_STATS_RL:         GtNm1 (THERMODYNAMICS)  max=  4.06984611312647E-06
DEBUG_STATS_RL:         GtNm1 (THERMODYNAMICS) mean=  2.82836930010718E-08
DEBUG_STATS_RL:         GtNm1 (THERMODYNAMICS) S.D.=  2.56842231847250E-07
DEBUG_STATS_RL:         GsNm1 (THERMODYNAMICS)  min= -5.89135469895544E-07
DEBUG_STATS_RL:         GsNm1 (THERMODYNAMICS)  max=  6.52319168490158E-07
DEBUG_STATS_RL:         GsNm1 (THERMODYNAMICS) mean=  7.72771601885699E-10
DEBUG_STATS_RL:         GsNm1 (THERMODYNAMICS) S.D.=  2.03610499532271E-08
DEBUG_STATS_RL:                EtaN (DYNAMICS)  min= -3.42671027369363E+00
DEBUG_STATS_RL:                EtaN (DYNAMICS)  max=  3.21411063855465E+00
DEBUG_STATS_RL:                EtaN (DYNAMICS) mean= -2.06208940989416E-01
DEBUG_STATS_RL:                EtaN (DYNAMICS) S.D.=  1.53780465889005E+00
DEBUG_STATS_RL:                Uvel (DYNAMICS)  min= -5.66209340774860E-02
DEBUG_STATS_RL:                Uvel (DYNAMICS)  max=  2.14118851076003E-01
DEBUG_STATS_RL:                Uvel (DYNAMICS) mean=  6.28712293847796E-03
DEBUG_STATS_RL:                Uvel (DYNAMICS) S.D.=  1.30734654481132E-02
DEBUG_STATS_RL:                Vvel (DYNAMICS)  min= -7.57531635842093E-02
DEBUG_STATS_RL:                Vvel (DYNAMICS)  max=  1.86269841177781E-01
DEBUG_STATS_RL:                Vvel (DYNAMICS) mean= -2.56697423736176E-03
DEBUG_STATS_RL:                Vvel (DYNAMICS) S.D.=  1.22374915127493E-02
DEBUG_STATS_RL:                Wvel (DYNAMICS)  min= -2.42147449413108E-04
DEBUG_STATS_RL:                Wvel (DYNAMICS)  max=  2.47671616664909E-04
DEBUG_STATS_RL:                Wvel (DYNAMICS) mean=  6.91317013927748E-08
DEBUG_STATS_RL:                Wvel (DYNAMICS) S.D.=  1.92278301608587E-05
DEBUG_STATS_RL:               Theta (DYNAMICS)  min= -1.91213174811006E+00
DEBUG_STATS_RL:               Theta (DYNAMICS)  max=  2.97750584977898E+01
DEBUG_STATS_RL:               Theta (DYNAMICS) mean=  3.21698240841488E+00
DEBUG_STATS_RL:               Theta (DYNAMICS) S.D.=  5.84498021031098E+00
DEBUG_STATS_RL:                Salt (DYNAMICS)  min=  2.00000000000000E-02
DEBUG_STATS_RL:                Salt (DYNAMICS)  max=  3.74649112184085E+01
DEBUG_STATS_RL:                Salt (DYNAMICS) mean=  1.88651005145137E+01
DEBUG_STATS_RL:                Salt (DYNAMICS) S.D.=  1.73005688307071E+01
DEBUG_STATS_RL:                  Gu (DYNAMICS)  min= -5.42598738417389E-02
DEBUG_STATS_RL:                  Gu (DYNAMICS)  max=  2.06038552030903E-01
DEBUG_STATS_RL:                  Gu (DYNAMICS) mean=  6.17422861106195E-03
DEBUG_STATS_RL:                  Gu (DYNAMICS) S.D.=  1.51153327691814E-02
DEBUG_STATS_RL:                  Gv (DYNAMICS)  min= -6.08333468413964E-02
DEBUG_STATS_RL:                  Gv (DYNAMICS)  max=  1.88017730889102E-01
DEBUG_STATS_RL:                  Gv (DYNAMICS) mean= -1.58857878783892E-03
DEBUG_STATS_RL:                  Gv (DYNAMICS) S.D.=  1.31378481790279E-02
DEBUG_STATS_RL:               GuNm1 (DYNAMICS)  min= -9.34531742501910E-06
DEBUG_STATS_RL:               GuNm1 (DYNAMICS)  max=  8.82422541499410E-06
DEBUG_STATS_RL:               GuNm1 (DYNAMICS) mean= -5.71552125960981E-08
DEBUG_STATS_RL:               GuNm1 (DYNAMICS) S.D.=  1.36314804973670E-06
DEBUG_STATS_RL:               GvNm1 (DYNAMICS)  min= -1.17941331146301E-05
DEBUG_STATS_RL:               GvNm1 (DYNAMICS)  max=  1.72380087700869E-05
DEBUG_STATS_RL:               GvNm1 (DYNAMICS) mean=  7.71099145089701E-07
DEBUG_STATS_RL:               GvNm1 (DYNAMICS) S.D.=  2.85418375399465E-06
DEBUG_STATS_RL:               GtNm1 (DYNAMICS)  min= -5.74334294228089E-06
DEBUG_STATS_RL:               GtNm1 (DYNAMICS)  max=  4.06984611312647E-06
DEBUG_STATS_RL:               GtNm1 (DYNAMICS) mean=  2.82836930010718E-08
DEBUG_STATS_RL:               GtNm1 (DYNAMICS) S.D.=  2.56842231847250E-07
DEBUG_STATS_RL:               GsNm1 (DYNAMICS)  min= -5.89135469895544E-07
DEBUG_STATS_RL:               GsNm1 (DYNAMICS)  max=  6.52319168490158E-07
DEBUG_STATS_RL:               GsNm1 (DYNAMICS) mean=  7.72771601885699E-10
DEBUG_STATS_RL:               GsNm1 (DYNAMICS) S.D.=  2.03610499532271E-08
DEBUG_STATS_RL:    cg2d_b (SOLVE_FOR_PRESSURE)  min= -3.31461256825432E+04
DEBUG_STATS_RL:    cg2d_b (SOLVE_FOR_PRESSURE)  max=  1.80856179013622E+04
DEBUG_STATS_RL:    cg2d_b (SOLVE_FOR_PRESSURE) mean=  2.53159315034375E-01
DEBUG_STATS_RL:    cg2d_b (SOLVE_FOR_PRESSURE) S.D.=  4.85830506510146E+03
 cg2d: Sum(rhs),rhsMax =   1.76812161974809E-02  2.17712628111859E+00
(PID.TID 0000.0001)  cg2d: iter=     1 ; resid.=  2.12559009865205E+00
(PID.TID 0000.0001)  cg2d: iter=     2 ; resid.=  2.88661725636939E+00
(PID.TID 0000.0001)  cg2d: iter=     3 ; resid.=  2.27660306499536E+00
(PID.TID 0000.0001)  cg2d: iter=     4 ; resid.=  1.83015974688690E+00
(PID.TID 0000.0001)  cg2d: iter=     5 ; resid.=  1.45984486389669E+00
(PID.TID 0000.0001)  cg2d: iter=     6 ; resid.=  1.10455606267093E+00
(PID.TID 0000.0001)  cg2d: iter=     7 ; resid.=  8.15968245078655E-01
(PID.TID 0000.0001)  cg2d: iter=     8 ; resid.=  7.50764585971550E-01
(PID.TID 0000.0001)  cg2d: iter=     9 ; resid.=  7.39562186170154E-01
(PID.TID 0000.0001)  cg2d: iter=    10 ; resid.=  6.21673857455031E-01
(PID.TID 0000.0001)  cg2d: iter=    11 ; resid.=  5.39785825525933E-01
(PID.TID 0000.0001)  cg2d: iter=    12 ; resid.=  4.53760537853833E-01
(PID.TID 0000.0001)  cg2d: iter=    13 ; resid.=  4.14828881071333E-01
(PID.TID 0000.0001)  cg2d: iter=    14 ; resid.=  3.79498904262702E-01
(PID.TID 0000.0001)  cg2d: iter=    15 ; resid.=  3.35245409146673E-01
(PID.TID 0000.0001)  cg2d: iter=    16 ; resid.=  2.77228057387221E-01
(PID.TID 0000.0001)  cg2d: iter=    17 ; resid.=  2.41871383370241E-01
(PID.TID 0000.0001)  cg2d: iter=    18 ; resid.=  2.02293642769921E-01
(PID.TID 0000.0001)  cg2d: iter=    19 ; resid.=  1.58660595100968E-01
(PID.TID 0000.0001)  cg2d: iter=    20 ; resid.=  1.21702931149841E-01
(PID.TID 0000.0001)  cg2d: iter=    21 ; resid.=  1.05703749760412E-01
(PID.TID 0000.0001)  cg2d: iter=    22 ; resid.=  9.02775464444376E-02
(PID.TID 0000.0001)  cg2d: iter=    23 ; resid.=  7.06021147523639E-02
(PID.TID 0000.0001)  cg2d: iter=    24 ; resid.=  5.79470114214955E-02
(PID.TID 0000.0001)  cg2d: iter=    25 ; resid.=  4.48843707676278E-02
(PID.TID 0000.0001)  cg2d: iter=    26 ; resid.=  4.05984406583714E-02
(PID.TID 0000.0001)  cg2d: iter=    27 ; resid.=  3.65814279935897E-02
(PID.TID 0000.0001)  cg2d: iter=    28 ; resid.=  2.95077118332031E-02
(PID.TID 0000.0001)  cg2d: iter=    29 ; resid.=  2.23160278568514E-02
(PID.TID 0000.0001)  cg2d: iter=    30 ; resid.=  1.82287692068409E-02
(PID.TID 0000.0001)  cg2d: iter=    31 ; resid.=  1.42275104018338E-02
(PID.TID 0000.0001)  cg2d: iter=    32 ; resid.=  1.16302062828588E-02
(PID.TID 0000.0001)  cg2d: iter=    33 ; resid.=  9.42680624656274E-03
(PID.TID 0000.0001)  cg2d: iter=    34 ; resid.=  8.00508264041076E-03
(PID.TID 0000.0001)  cg2d: iter=    35 ; resid.=  6.44772884677976E-03
(PID.TID 0000.0001)  cg2d: iter=    36 ; resid.=  5.07369601309027E-03
(PID.TID 0000.0001)  cg2d: iter=    37 ; resid.=  4.06871487899471E-03
(PID.TID 0000.0001)  cg2d: iter=    38 ; resid.=  3.01837089786409E-03
(PID.TID 0000.0001)  cg2d: iter=    39 ; resid.=  2.46410815428472E-03
(PID.TID 0000.0001)  cg2d: iter=    40 ; resid.=  2.09965601365683E-03
(PID.TID 0000.0001)  cg2d: iter=    41 ; resid.=  1.77436552238168E-03
(PID.TID 0000.0001)  cg2d: iter=    42 ; resid.=  1.42968567838262E-03
(PID.TID 0000.0001)  cg2d: iter=    43 ; resid.=  9.69485143009210E-04
(PID.TID 0000.0001)  cg2d: iter=    44 ; resid.=  7.03206784415809E-04
(PID.TID 0000.0001)  cg2d: iter=    45 ; resid.=  6.02017811127308E-04
(PID.TID 0000.0001)  cg2d: iter=    46 ; resid.=  5.18427490024705E-04
(PID.TID 0000.0001)  cg2d: iter=    47 ; resid.=  3.89576400072386E-04
(PID.TID 0000.0001)  cg2d: iter=    48 ; resid.=  3.03969993792086E-04
(PID.TID 0000.0001)  cg2d: iter=    49 ; resid.=  2.39334841277671E-04
(PID.TID 0000.0001)  cg2d: iter=    50 ; resid.=  2.11245763249875E-04
(PID.TID 0000.0001)  cg2d: iter=    51 ; resid.=  1.80385487783936E-04
(PID.TID 0000.0001)  cg2d: iter=    52 ; resid.=  1.60516405745355E-04
(PID.TID 0000.0001)  cg2d: iter=    53 ; resid.=  1.41228870186945E-04
(PID.TID 0000.0001)  cg2d: iter=    54 ; resid.=  1.16420053796306E-04
(PID.TID 0000.0001)  cg2d: iter=    55 ; resid.=  9.60152452712389E-05
(PID.TID 0000.0001)  cg2d: iter=    56 ; resid.=  7.86468488853604E-05
(PID.TID 0000.0001)  cg2d: iter=    57 ; resid.=  7.14075913356961E-05
(PID.TID 0000.0001)  cg2d: iter=    58 ; resid.=  5.95408986713554E-05
(PID.TID 0000.0001)  cg2d: iter=    59 ; resid.=  4.91692632431740E-05
(PID.TID 0000.0001)  cg2d: iter=    60 ; resid.=  4.22180320993967E-05
(PID.TID 0000.0001)  cg2d: iter=    61 ; resid.=  3.34100875071960E-05
(PID.TID 0000.0001)  cg2d: iter=    62 ; resid.=  2.61246219595603E-05
(PID.TID 0000.0001)  cg2d: iter=    63 ; resid.=  1.93945404163638E-05
(PID.TID 0000.0001)  cg2d: iter=    64 ; resid.=  1.61846317198569E-05
(PID.TID 0000.0001)  cg2d: iter=    65 ; resid.=  1.52412120576796E-05
(PID.TID 0000.0001)  cg2d: iter=    66 ; resid.=  1.31169409478428E-05
(PID.TID 0000.0001)  cg2d: iter=    67 ; resid.=  1.11967446979310E-05
(PID.TID 0000.0001)  cg2d: iter=    68 ; resid.=  8.56094355602621E-06
(PID.TID 0000.0001)  cg2d: iter=    69 ; resid.=  6.31938948795608E-06
(PID.TID 0000.0001)  cg2d: iter=    70 ; resid.=  4.86089262505195E-06
(PID.TID 0000.0001)  cg2d: iter=    71 ; resid.=  3.71176412141492E-06
(PID.TID 0000.0001)  cg2d: iter=    72 ; resid.=  2.99395621272110E-06
(PID.TID 0000.0001)  cg2d: iter=    73 ; resid.=  2.64471403598087E-06
(PID.TID 0000.0001)  cg2d: iter=    74 ; resid.=  2.08569218529282E-06
(PID.TID 0000.0001)  cg2d: iter=    75 ; resid.=  1.63282371985636E-06
(PID.TID 0000.0001)  cg2d: iter=    76 ; resid.=  1.26911644431515E-06
(PID.TID 0000.0001)  cg2d: iter=    77 ; resid.=  1.14563227160742E-06
(PID.TID 0000.0001)  cg2d: iter=    78 ; resid.=  8.96329034608010E-07
(PID.TID 0000.0001)  cg2d: iter=    79 ; resid.=  7.57173744198920E-07
(PID.TID 0000.0001)  cg2d: iter=    80 ; resid.=  5.69282572312227E-07
(PID.TID 0000.0001)  cg2d: iter=    81 ; resid.=  4.42711108023790E-07
(PID.TID 0000.0001)  cg2d: iter=    82 ; resid.=  3.38399943521030E-07
(PID.TID 0000.0001)  cg2d: iter=    83 ; resid.=  2.68904293920302E-07
(PID.TID 0000.0001)  cg2d: iter=    84 ; resid.=  2.36411922757833E-07
(PID.TID 0000.0001)  cg2d: iter=    85 ; resid.=  2.02710835627290E-07
(PID.TID 0000.0001)  cg2d: iter=    86 ; resid.=  1.77407645569119E-07
(PID.TID 0000.0001)  cg2d: iter=    87 ; resid.=  1.50215542118519E-07
(PID.TID 0000.0001)  cg2d: iter=    88 ; resid.=  1.38185777069434E-07
(PID.TID 0000.0001)  cg2d: iter=    89 ; resid.=  1.21911711335926E-07
(PID.TID 0000.0001)  cg2d: iter=    90 ; resid.=  9.61160371778348E-08
(PID.TID 0000.0001)  cg2d: iter=    91 ; resid.=  8.25764082371742E-08
(PID.TID 0000.0001)  cg2d: iter=    92 ; resid.=  6.71569660867640E-08
(PID.TID 0000.0001)  cg2d: iter=    93 ; resid.=  5.31357276639803E-08
(PID.TID 0000.0001)  cg2d: iter=    94 ; resid.=  3.73197960873844E-08
(PID.TID 0000.0001)  cg2d: iter=    95 ; resid.=  2.73753237223618E-08
(PID.TID 0000.0001)  cg2d: iter=    96 ; resid.=  2.12621971497234E-08
(PID.TID 0000.0001)  cg2d: iter=    97 ; resid.=  1.61674169424273E-08
(PID.TID 0000.0001)  cg2d: iter=    98 ; resid.=  1.28049416291387E-08
(PID.TID 0000.0001)  cg2d: iter=    99 ; resid.=  1.02884699637461E-08
(PID.TID 0000.0001)  cg2d: iter=   100 ; resid.=  7.86820380767519E-09
(PID.TID 0000.0001)  cg2d: iter=   101 ; resid.=  5.44835984631338E-09
(PID.TID 0000.0001)  cg2d: iter=   102 ; resid.=  3.94799744461075E-09
(PID.TID 0000.0001)  cg2d: iter=   103 ; resid.=  2.95271843978398E-09
(PID.TID 0000.0001)  cg2d: iter=   104 ; resid.=  2.37980512715974E-09
(PID.TID 0000.0001)  cg2d: iter=   105 ; resid.=  1.95480451677074E-09
(PID.TID 0000.0001)  cg2d: iter=   106 ; resid.=  1.64474253246711E-09
(PID.TID 0000.0001)  cg2d: iter=   107 ; resid.=  1.22515429938782E-09
(PID.TID 0000.0001)  cg2d: iter=   108 ; resid.=  9.20464654545557E-10
(PID.TID 0000.0001)  cg2d: iter=   109 ; resid.=  7.24916068376860E-10
(PID.TID 0000.0001)  cg2d: iter=   110 ; resid.=  5.62021568008017E-10
(PID.TID 0000.0001)  cg2d: iter=   111 ; resid.=  4.47306160508218E-10
(PID.TID 0000.0001)  cg2d: iter=   112 ; resid.=  3.25643458835187E-10
(PID.TID 0000.0001)  cg2d: iter=   113 ; resid.=  2.53613433710929E-10
(PID.TID 0000.0001)  cg2d: iter=   114 ; resid.=  2.37397584062663E-10
(PID.TID 0000.0001)  cg2d: iter=   115 ; resid.=  1.88529588319545E-10
(PID.TID 0000.0001)  cg2d: iter=   116 ; resid.=  1.55873156664609E-10
(PID.TID 0000.0001)  cg2d: iter=   117 ; resid.=  1.37984002012887E-10
(PID.TID 0000.0001)  cg2d: iter=   118 ; resid.=  1.20141679736104E-10
(PID.TID 0000.0001)  cg2d: iter=   119 ; resid.=  1.04219854134390E-10
(PID.TID 0000.0001)  cg2d: iter=   120 ; resid.=  8.76176995741546E-11
(PID.TID 0000.0001)  cg2d: iter=   121 ; resid.=  6.69403027638456E-11
(PID.TID 0000.0001)  cg2d: iter=   122 ; resid.=  4.98488290239381E-11
(PID.TID 0000.0001)  cg2d: iter=   123 ; resid.=  3.57260013279492E-11
(PID.TID 0000.0001)  cg2d: iter=   124 ; resid.=  2.77237798532767E-11
(PID.TID 0000.0001)  cg2d: iter=   125 ; resid.=  2.16333461185385E-11
(PID.TID 0000.0001)  cg2d: iter=   126 ; resid.=  1.59019931369799E-11
(PID.TID 0000.0001)  cg2d: iter=   127 ; resid.=  1.09703990376129E-11
(PID.TID 0000.0001)  cg2d: iter=   128 ; resid.=  8.14029801215793E-12
(PID.TID 0000.0001)  cg2d: iter=   129 ; resid.=  6.34124902507254E-12
(PID.TID 0000.0001)  cg2d: iter=   130 ; resid.=  5.33463060593722E-12
(PID.TID 0000.0001)  cg2d: iter=   131 ; resid.=  4.54698730636940E-12
(PID.TID 0000.0001)  cg2d: iter=   132 ; resid.=  3.47139034339656E-12
(PID.TID 0000.0001)  cg2d: iter=   133 ; resid.=  2.59024240410296E-12
(PID.TID 0000.0001)  cg2d: iter=   134 ; resid.=  1.86585360094978E-12
(PID.TID 0000.0001)  cg2d: iter=   135 ; resid.=  1.33831407260973E-12
(PID.TID 0000.0001)  cg2d: iter=   136 ; resid.=  9.48327421794776E-13
(PID.TID 0000.0001)  cg2d: iter=   137 ; resid.=  7.06707713265599E-13
(PID.TID 0000.0001)  cg2d: iter=   138 ; resid.=  5.55770910853045E-13
(PID.TID 0000.0001)  cg2d: iter=   139 ; resid.=  4.85779763442266E-13
(PID.TID 0000.0001)  cg2d: iter=   140 ; resid.=  3.31221021938988E-13
(PID.TID 0000.0001)  cg2d: iter=   141 ; resid.=  2.18979704095251E-13
(PID.TID 0000.0001)  cg2d: iter=   142 ; resid.=  1.36541131117895E-13
(PID.TID 0000.0001)  cg2d: iter=   143 ; resid.=  9.83679487167709E-14
DEBUG_STATS_RL:    cg2d_x (SOLVE_FOR_PRESSURE)  min= -2.32505238365329E+01
DEBUG_STATS_RL:    cg2d_x (SOLVE_FOR_PRESSURE)  max=  2.18245400155077E+01
DEBUG_STATS_RL:    cg2d_x (SOLVE_FOR_PRESSURE) mean= -1.10547429039943E+00
DEBUG_STATS_RL:    cg2d_x (SOLVE_FOR_PRESSURE) S.D.=  1.04818453278195E+01
(PID.TID 0000.0001)      cg2d_init_res =   1.89348760742353E+00
(PID.TID 0000.0001)      cg2d_iters(min,last) =      -1     143
(PID.TID 0000.0001)      cg2d_last_res =   9.83679487167709E-14
(PID.TID 0000.0001) // =======================================================
(PID.TID 0000.0001) // Begin MONITOR dynamic field statistics
(PID.TID 0000.0001) // =======================================================
(PID.TID 0000.0001) %MON time_tsnumber                =                     4
(PID.TID 0000.0001) %MON time_secondsf                =   3.4560000000000E+05
(PID.TID 0000.0001) %MON dynstat_eta_max              =   2.2247237528550E+00
(PID.TID 0000.0001) %MON dynstat_eta_min              =  -2.3700839792590E+00
(PID.TID 0000.0001) %MON dynstat_eta_mean             =  -2.6414035451998E-04
(PID.TID 0000.0001) %MON dynstat_eta_sd               =   9.5913497534699E-01
(PID.TID 0000.0001) %MON dynstat_eta_del2             =   2.9487387511273E-03
(PID.TID 0000.0001) %MON dynstat_uvel_max             =   2.0589019005783E-01
(PID.TID 0000.0001) %MON dynstat_uvel_min             =  -7.8383617233287E-02
(PID.TID 0000.0001) %MON dynstat_uvel_mean            =   3.2760023562350E-03
(PID.TID 0000.0001) %MON dynstat_uvel_sd              =   1.1436379441047E-02
(PID.TID 0000.0001) %MON dynstat_uvel_del2            =   6.8922438380453E-05
(PID.TID 0000.0001) %MON dynstat_vvel_max             =   1.7774771289493E-01
(PID.TID 0000.0001) %MON dynstat_vvel_min             =  -8.3994054497652E-02
(PID.TID 0000.0001) %MON dynstat_vvel_mean            =  -3.9349215799675E-03
(PID.TID 0000.0001) %MON dynstat_vvel_sd              =   1.0417673720290E-02
(PID.TID 0000.0001) %MON dynstat_vvel_del2            =   8.6509279205563E-05
(PID.TID 0000.0001) %MON dynstat_wvel_max             =   2.5340979548695E-04
(PID.TID 0000.0001) %MON dynstat_wvel_min             =  -2.0518564078890E-04
(PID.TID 0000.0001) %MON dynstat_wvel_mean            =   2.6143504702356E-22
(PID.TID 0000.0001) %MON dynstat_wvel_sd              =   2.3261334730715E-05
(PID.TID 0000.0001) %MON dynstat_wvel_del2            =   3.0596558920840E-07
(PID.TID 0000.0001) %MON dynstat_theta_max            =   2.9775058497790E+01
(PID.TID 0000.0001) %MON dynstat_theta_min            =  -1.9121317481101E+00
(PID.TID 0000.0001) %MON dynstat_theta_mean           =   3.6385280065164E+00
(PID.TID 0000.0001) %MON dynstat_theta_sd             =   4.4139719195830E+00
(PID.TID 0000.0001) %MON dynstat_theta_del2           =   5.4893116896732E-03
(PID.TID 0000.0001) %MON dynstat_salt_max             =   3.7464911218409E+01
(PID.TID 0000.0001) %MON dynstat_salt_min             =   2.9778007307600E+01
(PID.TID 0000.0001) %MON dynstat_salt_mean            =   3.4737973520453E+01
(PID.TID 0000.0001) %MON dynstat_salt_sd              =   2.9602797256193E-01
(PID.TID 0000.0001) %MON dynstat_salt_del2            =   1.0155832451352E-03
(PID.TID 0000.0001) %MON dynstat_sst_max              =   2.9775058497790E+01
(PID.TID 0000.0001) %MON dynstat_sst_min              =  -1.9069974968765E+00
(PID.TID 0000.0001) %MON dynstat_sst_mean             =   1.8539313127389E+01
(PID.TID 0000.0001) %MON dynstat_sst_sd               =   9.1325168510967E+00
(PID.TID 0000.0001) %MON dynstat_sst_del2             =   2.6610616750826E-02
(PID.TID 0000.0001) %MON dynstat_sss_max              =   3.7464911218409E+01
(PID.TID 0000.0001) %MON dynstat_sss_min              =   2.9778007307600E+01
(PID.TID 0000.0001) %MON dynstat_sss_mean             =   3.4871117095530E+01
(PID.TID 0000.0001) %MON dynstat_sss_sd               =   9.6434639582869E-01
(PID.TID 0000.0001) %MON dynstat_sss_del2             =   8.0044930204890E-03
(PID.TID 0000.0001) %MON forcing_qnet_max             =   4.2903536987305E+02
(PID.TID 0000.0001) %MON forcing_qnet_min             =  -1.8562549743652E+02
(PID.TID 0000.0001) %MON forcing_qnet_mean            =  -1.6662669470921E+01
(PID.TID 0000.0001) %MON forcing_qnet_sd              =   1.1221272517031E+02
(PID.TID 0000.0001) %MON forcing_qnet_del2            =   9.9444386812388E-01
(PID.TID 0000.0001) %MON forcing_qsw_max              =   0.0000000000000E+00
(PID.TID 0000.0001) %MON forcing_qsw_min              =   0.0000000000000E+00
(PID.TID 0000.0001) %MON forcing_qsw_mean             =   0.0000000000000E+00
(PID.TID 0000.0001) %MON forcing_qsw_sd               =   0.0000000000000E+00
(PID.TID 0000.0001) %MON forcing_qsw_del2             =   0.0000000000000E+00
(PID.TID 0000.0001) %MON forcing_empmr_max            =   8.2476260843123E-05
(PID.TID 0000.0001) %MON forcing_empmr_min            =  -7.3379955267683E-05
(PID.TID 0000.0001) %MON forcing_empmr_mean           =   8.0569996916457E-07
(PID.TID 0000.0001) %MON forcing_empmr_sd             =   2.7920083767862E-05
(PID.TID 0000.0001) %MON forcing_empmr_del2           =   3.6296416696684E-07
(PID.TID 0000.0001) %MON forcing_fu_max               =   2.7231434583664E-01
(PID.TID 0000.0001) %MON forcing_fu_min               =  -1.6111952960491E-01
(PID.TID 0000.0001) %MON forcing_fu_mean              =   1.6094049005012E-02
(PID.TID 0000.0001) %MON forcing_fu_sd                =   9.0140377513934E-02
(PID.TID 0000.0001) %MON forcing_fu_del2              =   6.5893332094781E-04
(PID.TID 0000.0001) %MON forcing_fv_max               =   2.1056245863438E-01
(PID.TID 0000.0001) %MON forcing_fv_min               =  -1.8515278995037E-01
(PID.TID 0000.0001) %MON forcing_fv_mean              =  -6.1440480618347E-03
(PID.TID 0000.0001) %MON forcing_fv_sd                =   4.5513649503191E-02
(PID.TID 0000.0001) %MON forcing_fv_del2              =   4.4740184358134E-04
(PID.TID 0000.0001) %MON trAdv_CFL_u_max              =   4.2250183157193E-02
(PID.TID 0000.0001) %MON trAdv_CFL_v_max              =   3.6397286842057E-02
(PID.TID 0000.0001) %MON trAdv_CFL_w_max              =   8.7885773234362E-02
(PID.TID 0000.0001) %MON advcfl_uvel_max              =   4.4591166482151E-02
(PID.TID 0000.0001) %MON advcfl_vvel_max              =   3.4533529884902E-02
(PID.TID 0000.0001) %MON advcfl_wvel_max              =   7.9850139900092E-02
(PID.TID 0000.0001) %MON advcfl_W_hf_max              =   9.1043994674704E-02
(PID.TID 0000.0001) %MON pe_b_mean                    =   1.1771740754846E-03
(PID.TID 0000.0001) %MON ke_max                       =   2.2046429768228E-02
(PID.TID 0000.0001) %MON ke_mean                      =   1.1997023928906E-04
(PID.TID 0000.0001) %MON ke_vol                       =   1.3226782436723E+18
(PID.TID 0000.0001) %MON vort_r_min                   =  -5.4556722823511E-07
(PID.TID 0000.0001) %MON vort_r_max                   =   7.4498957917934E-07
(PID.TID 0000.0001) %MON vort_a_mean                  =  -2.5274808102420E-05
(PID.TID 0000.0001) %MON vort_a_sd                    =   7.3604881182068E-05
(PID.TID 0000.0001) %MON vort_p_mean                  =  -3.1845656687716E-05
(PID.TID 0000.0001) %MON vort_p_sd                    =   1.3162386930387E-04
(PID.TID 0000.0001) %MON surfExpan_theta_mean         =  -2.2282181292158E-05
(PID.TID 0000.0001) %MON surfExpan_salt_mean          =  -6.2038353196898E-07
(PID.TID 0000.0001) // =======================================================
(PID.TID 0000.0001) // End MONITOR dynamic field statistics
(PID.TID 0000.0001) // =======================================================
 EXTERNAL_FIELDS_LOAD,         4 : iP,iLd,i0,i1=   12    1   12    1 ; Wght=  0.3666666667  0.6333333333
 EXTERNAL_FIELDS_LOAD: (fu0,1),fu,fv= -4.5368E-02 -3.5633E-02 -3.9202E-02 -6.2020E-02
 EXTERNAL_FIELDS_LOAD: SST,SSS,Q,E-P=  2.9456E-01  3.4457E+01  2.6528E+02  1.1055E-05
DEBUG_STATS_RL:          Uvel (THERMODYNAMICS)  min= -7.83836172332874E-02
DEBUG_STATS_RL:          Uvel (THERMODYNAMICS)  max=  2.05890190057831E-01
DEBUG_STATS_RL:          Uvel (THERMODYNAMICS) mean=  6.06236869797831E-03
DEBUG_STATS_RL:          Uvel (THERMODYNAMICS) S.D.=  1.51076175019957E-02
DEBUG_STATS_RL:          Vvel (THERMODYNAMICS)  min= -8.39940544976524E-02
DEBUG_STATS_RL:          Vvel (THERMODYNAMICS)  max=  1.77747712894933E-01
DEBUG_STATS_RL:          Vvel (THERMODYNAMICS) mean= -5.08608353958368E-03
DEBUG_STATS_RL:          Vvel (THERMODYNAMICS) S.D.=  1.40151720821798E-02
DEBUG_STATS_RL:          Wvel (THERMODYNAMICS)  min= -2.05185640788903E-04
DEBUG_STATS_RL:          Wvel (THERMODYNAMICS)  max=  2.53409795486950E-04
DEBUG_STATS_RL:          Wvel (THERMODYNAMICS) mean=  2.69585474171356E-07
DEBUG_STATS_RL:          Wvel (THERMODYNAMICS) S.D.=  2.21823398790769E-05
DEBUG_STATS_RL:         Theta (THERMODYNAMICS)  min= -1.90765540310326E+00
DEBUG_STATS_RL:         Theta (THERMODYNAMICS)  max=  2.98390580093131E+01
DEBUG_STATS_RL:         Theta (THERMODYNAMICS) mean=  3.21885331699883E+00
DEBUG_STATS_RL:         Theta (THERMODYNAMICS) S.D.=  5.84799648139144E+00
DEBUG_STATS_RL:          Salt (THERMODYNAMICS)  min=  2.00000000000000E-02
DEBUG_STATS_RL:          Salt (THERMODYNAMICS)  max=  3.74600744305391E+01
DEBUG_STATS_RL:          Salt (THERMODYNAMICS) mean=  1.88651684626961E+01
DEBUG_STATS_RL:          Salt (THERMODYNAMICS) S.D.=  1.73006344761501E+01
DEBUG_STATS_RL:         GtNm1 (THERMODYNAMICS)  min= -5.54594464102640E-06
DEBUG_STATS_RL:         GtNm1 (THERMODYNAMICS)  max=  3.93979013661199E-06
DEBUG_STATS_RL:         GtNm1 (THERMODYNAMICS) mean=  3.64443949731842E-08
DEBUG_STATS_RL:         GtNm1 (THERMODYNAMICS) S.D.=  2.79778723381126E-07
DEBUG_STATS_RL:         GsNm1 (THERMODYNAMICS)  min= -5.66661442393465E-07
DEBUG_STATS_RL:         GsNm1 (THERMODYNAMICS)  max=  4.70832025524730E-07
DEBUG_STATS_RL:         GsNm1 (THERMODYNAMICS) mean=  1.18670088966908E-09
DEBUG_STATS_RL:         GsNm1 (THERMODYNAMICS) S.D.=  2.30154818875704E-08
DEBUG_STATS_RL:                EtaN (DYNAMICS)  min= -2.37008397925895E+00
DEBUG_STATS_RL:                EtaN (DYNAMICS)  max=  2.22472375285498E+00
DEBUG_STATS_RL:                EtaN (DYNAMICS) mean= -1.12688510744079E-01
DEBUG_STATS_RL:                EtaN (DYNAMICS) S.D.=  1.06848576226498E+00
DEBUG_STATS_RL:                Uvel (DYNAMICS)  min= -7.83836172332874E-02
DEBUG_STATS_RL:                Uvel (DYNAMICS)  max=  2.05890190057831E-01
DEBUG_STATS_RL:                Uvel (DYNAMICS) mean=  6.06236869797831E-03
DEBUG_STATS_RL:                Uvel (DYNAMICS) S.D.=  1.51076175019957E-02
DEBUG_STATS_RL:                Vvel (DYNAMICS)  min= -8.39940544976524E-02
DEBUG_STATS_RL:                Vvel (DYNAMICS)  max=  1.77747712894933E-01
DEBUG_STATS_RL:                Vvel (DYNAMICS) mean= -5.08608353958368E-03
DEBUG_STATS_RL:                Vvel (DYNAMICS) S.D.=  1.40151720821798E-02
DEBUG_STATS_RL:                Wvel (DYNAMICS)  min= -2.05185640788903E-04
DEBUG_STATS_RL:                Wvel (DYNAMICS)  max=  2.53409795486950E-04
DEBUG_STATS_RL:                Wvel (DYNAMICS) mean=  2.69585474171356E-07
DEBUG_STATS_RL:                Wvel (DYNAMICS) S.D.=  2.21823398790769E-05
DEBUG_STATS_RL:               Theta (DYNAMICS)  min= -1.90765540310326E+00
DEBUG_STATS_RL:               Theta (DYNAMICS)  max=  2.98390580093131E+01
DEBUG_STATS_RL:               Theta (DYNAMICS) mean=  3.21885331699883E+00
DEBUG_STATS_RL:               Theta (DYNAMICS) S.D.=  5.84799648139144E+00
DEBUG_STATS_RL:                Salt (DYNAMICS)  min=  2.00000000000000E-02
DEBUG_STATS_RL:                Salt (DYNAMICS)  max=  3.74600744305391E+01
DEBUG_STATS_RL:                Salt (DYNAMICS) mean=  1.88651684626961E+01
DEBUG_STATS_RL:                Salt (DYNAMICS) S.D.=  1.73006344761501E+01
DEBUG_STATS_RL:                  Gu (DYNAMICS)  min= -8.31793064746212E-02
DEBUG_STATS_RL:                  Gu (DYNAMICS)  max=  1.98507467961188E-01
DEBUG_STATS_RL:                  Gu (DYNAMICS) mean=  5.57133195626026E-03
DEBUG_STATS_RL:                  Gu (DYNAMICS) S.D.=  1.71134358442966E-02
DEBUG_STATS_RL:                  Gv (DYNAMICS)  min= -7.33549160670018E-02
DEBUG_STATS_RL:                  Gv (DYNAMICS)  max=  1.79693109551058E-01
DEBUG_STATS_RL:                  Gv (DYNAMICS) mean= -4.07413059520267E-03
DEBUG_STATS_RL:                  Gv (DYNAMICS) S.D.=  1.45948643824594E-02
DEBUG_STATS_RL:               GuNm1 (DYNAMICS)  min= -8.56706546659036E-06
DEBUG_STATS_RL:               GuNm1 (DYNAMICS)  max=  8.06508909302755E-06
DEBUG_STATS_RL:               GuNm1 (DYNAMICS) mean= -5.01460543633160E-08
DEBUG_STATS_RL:               GuNm1 (DYNAMICS) S.D.=  1.32946073160391E-06
DEBUG_STATS_RL:               GvNm1 (DYNAMICS)  min= -1.14816939686638E-05
DEBUG_STATS_RL:               GvNm1 (DYNAMICS)  max=  1.69874843279670E-05
DEBUG_STATS_RL:               GvNm1 (DYNAMICS) mean=  7.79788704041040E-07
DEBUG_STATS_RL:               GvNm1 (DYNAMICS) S.D.=  2.82233288701942E-06
DEBUG_STATS_RL:               GtNm1 (DYNAMICS)  min= -5.54594464102640E-06
DEBUG_STATS_RL:               GtNm1 (DYNAMICS)  max=  3.93979013661199E-06
DEBUG_STATS_RL:               GtNm1 (DYNAMICS) mean=  3.64443949731842E-08
DEBUG_STATS_RL:               GtNm1 (DYNAMICS) S.D.=  2.79778723381126E-07
DEBUG_STATS_RL:               GsNm1 (DYNAMICS)  min= -5.66661442393465E-07
DEBUG_STATS_RL:               GsNm1 (DYNAMICS)  max=  4.70832025524730E-07
DEBUG_STATS_RL:               GsNm1 (DYNAMICS) mean=  1.18670088966908E-09
DEBUG_STATS_RL:               GsNm1 (DYNAMICS) S.D.=  2.30154818875704E-08
DEBUG_STATS_RL:    cg2d_b (SOLVE_FOR_PRESSURE)  min= -2.96502294498287E+04
DEBUG_STATS_RL:    cg2d_b (SOLVE_FOR_PRESSURE)  max=  1.73283380678521E+04
DEBUG_STATS_RL:    cg2d_b (SOLVE_FOR_PRESSURE) mean=  3.18403286841358E-01
DEBUG_STATS_RL:    cg2d_b (SOLVE_FOR_PRESSURE) S.D.=  4.64100540465249E+03
 cg2d: Sum(rhs),rhsMax =   2.48599630665546E-02  1.94750645655144E+00
(PID.TID 0000.0001)  cg2d: iter=     1 ; resid.=  1.84697264512237E+00
(PID.TID 0000.0001)  cg2d: iter=     2 ; resid.=  2.47412158718483E+00
(PID.TID 0000.0001)  cg2d: iter=     3 ; resid.=  1.96970246052530E+00
(PID.TID 0000.0001)  cg2d: iter=     4 ; resid.=  1.57014483226620E+00
(PID.TID 0000.0001)  cg2d: iter=     5 ; resid.=  1.44656909067970E+00
(PID.TID 0000.0001)  cg2d: iter=     6 ; resid.=  1.06605637116853E+00
(PID.TID 0000.0001)  cg2d: iter=     7 ; resid.=  7.85975400284446E-01
(PID.TID 0000.0001)  cg2d: iter=     8 ; resid.=  6.88888516251128E-01
(PID.TID 0000.0001)  cg2d: iter=     9 ; resid.=  6.92854949453296E-01
(PID.TID 0000.0001)  cg2d: iter=    10 ; resid.=  5.85359383002808E-01
(PID.TID 0000.0001)  cg2d: iter=    11 ; resid.=  4.98247416329317E-01
(PID.TID 0000.0001)  cg2d: iter=    12 ; resid.=  4.21863113816782E-01
(PID.TID 0000.0001)  cg2d: iter=    13 ; resid.=  3.89395198677401E-01
(PID.TID 0000.0001)  cg2d: iter=    14 ; resid.=  3.54389672169339E-01
(PID.TID 0000.0001)  cg2d: iter=    15 ; resid.=  3.08734651855617E-01
(PID.TID 0000.0001)  cg2d: iter=    16 ; resid.=  2.68993501361678E-01
(PID.TID 0000.0001)  cg2d: iter=    17 ; resid.=  2.32396458898132E-01
(PID.TID 0000.0001)  cg2d: iter=    18 ; resid.=  1.82756042647540E-01
(PID.TID 0000.0001)  cg2d: iter=    19 ; resid.=  1.36736978444899E-01
(PID.TID 0000.0001)  cg2d: iter=    20 ; resid.=  1.09591956984266E-01
(PID.TID 0000.0001)  cg2d: iter=    21 ; resid.=  9.76861421469730E-02
(PID.TID 0000.0001)  cg2d: iter=    22 ; resid.=  8.71544669752357E-02
(PID.TID 0000.0001)  cg2d: iter=    23 ; resid.=  6.90849039886122E-02
(PID.TID 0000.0001)  cg2d: iter=    24 ; resid.=  5.75755552422237E-02
(PID.TID 0000.0001)  cg2d: iter=    25 ; resid.=  4.74146749549663E-02
(PID.TID 0000.0001)  cg2d: iter=    26 ; resid.=  3.94412297528015E-02
(PID.TID 0000.0001)  cg2d: iter=    27 ; resid.=  3.38644232785437E-02
(PID.TID 0000.0001)  cg2d: iter=    28 ; resid.=  2.66438957414064E-02
(PID.TID 0000.0001)  cg2d: iter=    29 ; resid.=  2.16592992164176E-02
(PID.TID 0000.0001)  cg2d: iter=    30 ; resid.=  1.77661137484625E-02
(PID.TID 0000.0001)  cg2d: iter=    31 ; resid.=  1.43871533314576E-02
(PID.TID 0000.0001)  cg2d: iter=    32 ; resid.=  1.10914998776907E-02
(PID.TID 0000.0001)  cg2d: iter=    33 ; resid.=  9.37228629113493E-03
(PID.TID 0000.0001)  cg2d: iter=    34 ; resid.=  7.85891067743827E-03
(PID.TID 0000.0001)  cg2d: iter=    35 ; resid.=  6.73226681118412E-03
(PID.TID 0000.0001)  cg2d: iter=    36 ; resid.=  5.68675395810101E-03
(PID.TID 0000.0001)  cg2d: iter=    37 ; resid.=  4.31814761408288E-03
(PID.TID 0000.0001)  cg2d: iter=    38 ; resid.=  3.00924744092262E-03
(PID.TID 0000.0001)  cg2d: iter=    39 ; resid.=  2.37773581332997E-03
(PID.TID 0000.0001)  cg2d: iter=    40 ; resid.=  2.02336725866687E-03
(PID.TID 0000.0001)  cg2d: iter=    41 ; resid.=  1.70075154808629E-03
(PID.TID 0000.0001)  cg2d: iter=    42 ; resid.=  1.52020572420639E-03
(PID.TID 0000.0001)  cg2d: iter=    43 ; resid.=  1.06561772707971E-03
(PID.TID 0000.0001)  cg2d: iter=    44 ; resid.=  8.01490842390368E-04
(PID.TID 0000.0001)  cg2d: iter=    45 ; resid.=  6.89906961774030E-04
(PID.TID 0000.0001)  cg2d: iter=    46 ; resid.=  5.35997558048718E-04
(PID.TID 0000.0001)  cg2d: iter=    47 ; resid.=  4.02142363417545E-04
(PID.TID 0000.0001)  cg2d: iter=    48 ; resid.=  3.41505303403498E-04
(PID.TID 0000.0001)  cg2d: iter=    49 ; resid.=  3.02592444759810E-04
(PID.TID 0000.0001)  cg2d: iter=    50 ; resid.=  2.84076595543525E-04
(PID.TID 0000.0001)  cg2d: iter=    51 ; resid.=  2.49869113336967E-04
(PID.TID 0000.0001)  cg2d: iter=    52 ; resid.=  2.05856126669758E-04
(PID.TID 0000.0001)  cg2d: iter=    53 ; resid.=  1.77526194568912E-04
(PID.TID 0000.0001)  cg2d: iter=    54 ; resid.=  1.43124868821354E-04
(PID.TID 0000.0001)  cg2d: iter=    55 ; resid.=  1.14263175792702E-04
(PID.TID 0000.0001)  cg2d: iter=    56 ; resid.=  9.28919776243600E-05
(PID.TID 0000.0001)  cg2d: iter=    57 ; resid.=  7.74517949850177E-05
(PID.TID 0000.0001)  cg2d: iter=    58 ; resid.=  6.12897604460601E-05
(PID.TID 0000.0001)  cg2d: iter=    59 ; resid.=  4.58592930627575E-05
(PID.TID 0000.0001)  cg2d: iter=    60 ; resid.=  3.60047055635840E-05
(PID.TID 0000.0001)  cg2d: iter=    61 ; resid.=  2.74615753990217E-05
(PID.TID 0000.0001)  cg2d: iter=    62 ; resid.=  2.24321686288547E-05
(PID.TID 0000.0001)  cg2d: iter=    63 ; resid.=  1.82094996297601E-05
(PID.TID 0000.0001)  cg2d: iter=    64 ; resid.=  1.51750634416049E-05
(PID.TID 0000.0001)  cg2d: iter=    65 ; resid.=  1.26124958482884E-05
(PID.TID 0000.0001)  cg2d: iter=    66 ; resid.=  9.92876045756186E-06
(PID.TID 0000.0001)  cg2d: iter=    67 ; resid.=  8.26511152559944E-06
(PID.TID 0000.0001)  cg2d: iter=    68 ; resid.=  7.07639636540954E-06
(PID.TID 0000.0001)  cg2d: iter=    69 ; resid.=  5.48178170019848E-06
(PID.TID 0000.0001)  cg2d: iter=    70 ; resid.=  4.39319543536149E-06
(PID.TID 0000.0001)  cg2d: iter=    71 ; resid.=  3.26904600789475E-06
(PID.TID 0000.0001)  cg2d: iter=    72 ; resid.=  2.41207842034435E-06
(PID.TID 0000.0001)  cg2d: iter=    73 ; resid.=  2.02758898555233E-06
(PID.TID 0000.0001)  cg2d: iter=    74 ; resid.=  1.60634412047139E-06
(PID.TID 0000.0001)  cg2d: iter=    75 ; resid.=  1.25426792565724E-06
(PID.TID 0000.0001)  cg2d: iter=    76 ; resid.=  1.03506632716981E-06
(PID.TID 0000.0001)  cg2d: iter=    77 ; resid.=  8.85994805129890E-07
(PID.TID 0000.0001)  cg2d: iter=    78 ; resid.=  7.04224242807085E-07
(PID.TID 0000.0001)  cg2d: iter=    79 ; resid.=  5.56154497793982E-07
(PID.TID 0000.0001)  cg2d: iter=    80 ; resid.=  4.34057321786002E-07
(PID.TID 0000.0001)  cg2d: iter=    81 ; resid.=  3.28683801447618E-07
(PID.TID 0000.0001)  cg2d: iter=    82 ; resid.=  2.51235513881689E-07
(PID.TID 0000.0001)  cg2d: iter=    83 ; resid.=  2.04296551599000E-07
(PID.TID 0000.0001)  cg2d: iter=    84 ; resid.=  1.74349761525041E-07
(PID.TID 0000.0001)  cg2d: iter=    85 ; resid.=  1.45869559861292E-07
(PID.TID 0000.0001)  cg2d: iter=    86 ; resid.=  1.22285494207880E-07
(PID.TID 0000.0001)  cg2d: iter=    87 ; resid.=  9.94683799225390E-08
(PID.TID 0000.0001)  cg2d: iter=    88 ; resid.=  9.24760156312894E-08
(PID.TID 0000.0001)  cg2d: iter=    89 ; resid.=  8.87168123652457E-08
(PID.TID 0000.0001)  cg2d: iter=    90 ; resid.=  7.39535432621752E-08
(PID.TID 0000.0001)  cg2d: iter=    91 ; resid.=  6.50906138614779E-08
(PID.TID 0000.0001)  cg2d: iter=    92 ; resid.=  5.44669009123182E-08
(PID.TID 0000.0001)  cg2d: iter=    93 ; resid.=  4.26446918657805E-08
(PID.TID 0000.0001)  cg2d: iter=    94 ; resid.=  2.95812438409289E-08
(PID.TID 0000.0001)  cg2d: iter=    95 ; resid.=  2.27012342117824E-08
(PID.TID 0000.0001)  cg2d: iter=    96 ; resid.=  1.94324829790381E-08
(PID.TID 0000.0001)  cg2d: iter=    97 ; resid.=  1.54518349643722E-08
(PID.TID 0000.0001)  cg2d: iter=    98 ; resid.=  1.25242848493687E-08
(PID.TID 0000.0001)  cg2d: iter=    99 ; resid.=  1.02949055004118E-08
(PID.TID 0000.0001)  cg2d: iter=   100 ; resid.=  8.34398677616302E-09
(PID.TID 0000.0001)  cg2d: iter=   101 ; resid.=  6.21332949245774E-09
(PID.TID 0000.0001)  cg2d: iter=   102 ; resid.=  5.10826623626685E-09
(PID.TID 0000.0001)  cg2d: iter=   103 ; resid.=  4.25348658140887E-09
(PID.TID 0000.0001)  cg2d: iter=   104 ; resid.=  3.80721222094908E-09
(PID.TID 0000.0001)  cg2d: iter=   105 ; resid.=  3.28542842980837E-09
(PID.TID 0000.0001)  cg2d: iter=   106 ; resid.=  2.84997588482411E-09
(PID.TID 0000.0001)  cg2d: iter=   107 ; resid.=  2.26413949602138E-09
(PID.TID 0000.0001)  cg2d: iter=   108 ; resid.=  1.70168408330316E-09
(PID.TID 0000.0001)  cg2d: iter=   109 ; resid.=  1.44170043917627E-09
(PID.TID 0000.0001)  cg2d: iter=   110 ; resid.=  1.11296412005843E-09
(PID.TID 0000.0001)  cg2d: iter=   111 ; resid.=  9.44341164961556E-10
(PID.TID 0000.0001)  cg2d: iter=   112 ; resid.=  7.12260281387692E-10
(PID.TID 0000.0001)  cg2d: iter=   113 ; resid.=  6.12431299626486E-10
(PID.TID 0000.0001)  cg2d: iter=   114 ; resid.=  5.17801187113122E-10
(PID.TID 0000.0001)  cg2d: iter=   115 ; resid.=  3.93961366472113E-10
(PID.TID 0000.0001)  cg2d: iter=   116 ; resid.=  2.73862838598580E-10
(PID.TID 0000.0001)  cg2d: iter=   117 ; resid.=  2.09108816246928E-10
(PID.TID 0000.0001)  cg2d: iter=   118 ; resid.=  1.57846596435059E-10
(PID.TID 0000.0001)  cg2d: iter=   119 ; resid.=  1.25918809183021E-10
(PID.TID 0000.0001)  cg2d: iter=   120 ; resid.=  9.55801257005903E-11
(PID.TID 0000.0001)  cg2d: iter=   121 ; resid.=  6.67815565302861E-11
(PID.TID 0000.0001)  cg2d: iter=   122 ; resid.=  4.97442927117902E-11
(PID.TID 0000.0001)  cg2d: iter=   123 ; resid.=  3.24326948929381E-11
(PID.TID 0000.0001)  cg2d: iter=   124 ; resid.=  2.27735230643933E-11
(PID.TID 0000.0001)  cg2d: iter=   125 ; resid.=  1.63610722747169E-11
(PID.TID 0000.0001)  cg2d: iter=   126 ; resid.=  1.18910101195903E-11
(PID.TID 0000.0001)  cg2d: iter=   127 ; resid.=  8.23090401728725E-12
(PID.TID 0000.0001)  cg2d: iter=   128 ; resid.=  6.42158416974846E-12
(PID.TID 0000.0001)  cg2d: iter=   129 ; resid.=  5.37163324556103E-12
(PID.TID 0000.0001)  cg2d: iter=   130 ; resid.=  4.14779304019976E-12
(PID.TID 0000.0001)  cg2d: iter=   131 ; resid.=  3.52588093719740E-12
(PID.TID 0000.0001)  cg2d: iter=   132 ; resid.=  2.75868558970212E-12
(PID.TID 0000.0001)  cg2d: iter=   133 ; resid.=  2.10855258374797E-12
(PID.TID 0000.0001)  cg2d: iter=   134 ; resid.=  1.60935281851166E-12
(PID.TID 0000.0001)  cg2d: iter=   135 ; resid.=  1.18086771477087E-12
(PID.TID 0000.0001)  cg2d: iter=   136 ; resid.=  8.48646259401585E-13
(PID.TID 0000.0001)  cg2d: iter=   137 ; resid.=  6.25072834646927E-13
(PID.TID 0000.0001)  cg2d: iter=   138 ; resid.=  4.67178760163013E-13
(PID.TID 0000.0001)  cg2d: iter=   139 ; resid.=  3.53649318381052E-13
(PID.TID 0000.0001)  cg2d: iter=   140 ; resid.=  2.42233258439682E-13
(PID.TID 0000.0001)  cg2d: iter=   141 ; resid.=  1.71208573335621E-13
(PID.TID 0000.0001)  cg2d: iter=   142 ; resid.=  1.21342145327925E-13
(PID.TID 0000.0001)  cg2d: iter=   143 ; resid.=  9.50259782691727E-14
DEBUG_STATS_RL:    cg2d_x (SOLVE_FOR_PRESSURE)  min= -1.78477532830785E+01
DEBUG_STATS_RL:    cg2d_x (SOLVE_FOR_PRESSURE)  max=  1.92839119487346E+01
DEBUG_STATS_RL:    cg2d_x (SOLVE_FOR_PRESSURE) mean= -3.93776025680597E-01
DEBUG_STATS_RL:    cg2d_x (SOLVE_FOR_PRESSURE) S.D.=  8.11531021519826E+00
(PID.TID 0000.0001)      cg2d_init_res =   1.70658256381517E+00
(PID.TID 0000.0001)      cg2d_iters(min,last) =      -1     143
(PID.TID 0000.0001)      cg2d_last_res =   9.50259782691727E-14
(PID.TID 0000.0001) // =======================================================
(PID.TID 0000.0001) // Begin MONITOR dynamic field statistics
(PID.TID 0000.0001) // =======================================================
(PID.TID 0000.0001) %MON time_tsnumber                =                     5
(PID.TID 0000.0001) %MON time_secondsf                =   4.3200000000000E+05
(PID.TID 0000.0001) %MON dynstat_eta_max              =   1.9657402598099E+00
(PID.TID 0000.0001) %MON dynstat_eta_min              =  -1.8193428423122E+00
(PID.TID 0000.0001) %MON dynstat_eta_mean             =  -3.3221434911334E-04
(PID.TID 0000.0001) %MON dynstat_eta_sd               =   7.8598778813635E-01
(PID.TID 0000.0001) %MON dynstat_eta_del2             =   2.8506074805058E-03
(PID.TID 0000.0001) %MON dynstat_uvel_max             =   1.8358162685040E-01
(PID.TID 0000.0001) %MON dynstat_uvel_min             =  -1.1622045773489E-01
(PID.TID 0000.0001) %MON dynstat_uvel_mean            =   3.7262225776175E-03
(PID.TID 0000.0001) %MON dynstat_uvel_sd              =   1.1864618293689E-02
(PID.TID 0000.0001) %MON dynstat_uvel_del2            =   7.6040991905272E-05
(PID.TID 0000.0001) %MON dynstat_vvel_max             =   1.5916144466477E-01
(PID.TID 0000.0001) %MON dynstat_vvel_min             =  -9.3989564459681E-02
(PID.TID 0000.0001) %MON dynstat_vvel_mean            =  -4.0869870945820E-03
(PID.TID 0000.0001) %MON dynstat_vvel_sd              =   1.1096534954283E-02
(PID.TID 0000.0001) %MON dynstat_vvel_del2            =   9.8168402858865E-05
(PID.TID 0000.0001) %MON dynstat_wvel_max             =   2.7612776870186E-04
(PID.TID 0000.0001) %MON dynstat_wvel_min             =  -1.6707403584485E-04
(PID.TID 0000.0001) %MON dynstat_wvel_mean            =   4.7192718832337E-22
(PID.TID 0000.0001) %MON dynstat_wvel_sd              =   2.5093927931575E-05
(PID.TID 0000.0001) %MON dynstat_wvel_del2            =   3.2750570408654E-07
(PID.TID 0000.0001) %MON dynstat_theta_max            =   2.9839058009313E+01
(PID.TID 0000.0001) %MON dynstat_theta_min            =  -1.9076554031033E+00
(PID.TID 0000.0001) %MON dynstat_theta_mean           =   3.6393025442710E+00
(PID.TID 0000.0001) %MON dynstat_theta_sd             =   4.4156075687170E+00
(PID.TID 0000.0001) %MON dynstat_theta_del2           =   5.4194168701616E-03
(PID.TID 0000.0001) %MON dynstat_salt_max             =   3.7460074430539E+01
(PID.TID 0000.0001) %MON dynstat_salt_min             =   2.9787582551921E+01
(PID.TID 0000.0001) %MON dynstat_salt_mean            =   3.4737996307493E+01
(PID.TID 0000.0001) %MON dynstat_salt_sd              =   2.9611483114230E-01
(PID.TID 0000.0001) %MON dynstat_salt_del2            =   1.0141962284559E-03
(PID.TID 0000.0001) %MON dynstat_sst_max              =   2.9839058009313E+01
(PID.TID 0000.0001) %MON dynstat_sst_min              =  -1.9076554031033E+00
(PID.TID 0000.0001) %MON dynstat_sst_mean             =   1.8558398974073E+01
(PID.TID 0000.0001) %MON dynstat_sst_sd               =   9.1319296954272E+00
(PID.TID 0000.0001) %MON dynstat_sst_del2             =   2.6470108155205E-02
(PID.TID 0000.0001) %MON dynstat_sss_max              =   3.7460074430539E+01
(PID.TID 0000.0001) %MON dynstat_sss_min              =   2.9787582551921E+01
(PID.TID 0000.0001) %MON dynstat_sss_mean             =   3.4871633979879E+01
(PID.TID 0000.0001) %MON dynstat_sss_sd               =   9.6529987701664E-01
(PID.TID 0000.0001) %MON dynstat_sss_del2             =   8.0083640032902E-03
(PID.TID 0000.0001) %MON forcing_qnet_max             =   4.3008355712891E+02
(PID.TID 0000.0001) %MON forcing_qnet_min             =  -1.8515833485921E+02
(PID.TID 0000.0001) %MON forcing_qnet_mean            =  -1.6650157515098E+01
(PID.TID 0000.0001) %MON forcing_qnet_sd              =   1.1200321531664E+02
(PID.TID 0000.0001) %MON forcing_qnet_del2            =   9.9601163526981E-01
(PID.TID 0000.0001) %MON forcing_qsw_max              =   0.0000000000000E+00
(PID.TID 0000.0001) %MON forcing_qsw_min              =   0.0000000000000E+00
(PID.TID 0000.0001) %MON forcing_qsw_mean             =   0.0000000000000E+00
(PID.TID 0000.0001) %MON forcing_qsw_sd               =   0.0000000000000E+00
(PID.TID 0000.0001) %MON forcing_qsw_del2             =   0.0000000000000E+00
(PID.TID 0000.0001) %MON forcing_empmr_max            =   8.2220427088942E-05
(PID.TID 0000.0001) %MON forcing_empmr_min            =  -7.3116771659443E-05
(PID.TID 0000.0001) %MON forcing_empmr_mean           =   8.1546972691007E-07
(PID.TID 0000.0001) %MON forcing_empmr_sd             =   2.7970424919056E-05
(PID.TID 0000.0001) %MON forcing_empmr_del2           =   3.6272300962791E-07
(PID.TID 0000.0001) %MON forcing_fu_max               =   2.7145579755306E-01
(PID.TID 0000.0001) %MON forcing_fu_min               =  -1.6193294972181E-01
(PID.TID 0000.0001) %MON forcing_fu_mean              =   1.6086356183975E-02
(PID.TID 0000.0001) %MON forcing_fu_sd                =   9.0157845327697E-02
(PID.TID 0000.0001) %MON forcing_fu_del2              =   6.6174969745051E-04
(PID.TID 0000.0001) %MON forcing_fv_max               =   2.1244236379862E-01
(PID.TID 0000.0001) %MON forcing_fv_min               =  -1.8456813246012E-01
(PID.TID 0000.0001) %MON forcing_fv_mean              =  -6.0702855349739E-03
(PID.TID 0000.0001) %MON forcing_fv_sd                =   4.5662631572644E-02
(PID.TID 0000.0001) %MON forcing_fv_del2              =   4.4897783530480E-04
(PID.TID 0000.0001) %MON trAdv_CFL_u_max              =   4.4600223266985E-02
(PID.TID 0000.0001) %MON trAdv_CFL_v_max              =   3.4732055661022E-02
(PID.TID 0000.0001) %MON trAdv_CFL_w_max              =   8.6795379882671E-02
(PID.TID 0000.0001) %MON advcfl_uvel_max              =   4.7827074268228E-02
(PID.TID 0000.0001) %MON advcfl_vvel_max              =   3.0922516055687E-02
(PID.TID 0000.0001) %MON advcfl_wvel_max              =   8.7588738642505E-02
(PID.TID 0000.0001) %MON advcfl_W_hf_max              =   9.9113572674414E-02
(PID.TID 0000.0001) %MON pe_b_mean                    =   7.9052002317972E-04
(PID.TID 0000.0001) %MON ke_max                       =   1.6261331768187E-02
(PID.TID 0000.0001) %MON ke_mean                      =   1.3304036645386E-04
(PID.TID 0000.0001) %MON ke_vol                       =   1.3226782436723E+18
(PID.TID 0000.0001) %MON vort_r_min                   =  -5.0887796332122E-07
(PID.TID 0000.0001) %MON vort_r_max                   =   6.4449364763542E-07
(PID.TID 0000.0001) %MON vort_a_mean                  =  -2.5274807952488E-05
(PID.TID 0000.0001) %MON vort_a_sd                    =   7.3605020512922E-05
(PID.TID 0000.0001) %MON vort_p_mean                  =  -3.1845656498806E-05
(PID.TID 0000.0001) %MON vort_p_sd                    =   1.3162365668461E-04
(PID.TID 0000.0001) %MON surfExpan_theta_mean         =  -1.9936690615701E-05
(PID.TID 0000.0001) %MON surfExpan_salt_mean          =  -6.3750887077722E-07
(PID.TID 0000.0001) // =======================================================
(PID.TID 0000.0001) // End MONITOR dynamic field statistics
(PID.TID 0000.0001) // =======================================================
 EXTERNAL_FIELDS_LOAD,         5 : iP,iLd,i0,i1=   12    1   12    1 ; Wght=  0.3333333333  0.6666666667
 EXTERNAL_FIELDS_LOAD: (fu0,1),fu,fv= -4.5368E-02 -3.5633E-02 -3.8878E-02 -6.1587E-02
 EXTERNAL_FIELDS_LOAD: SST,SSS,Q,E-P=  3.5491E-01  3.4481E+01  2.6532E+02  1.1107E-05
DEBUG_STATS_RL:          Uvel (THERMODYNAMICS)  min= -1.16220457734890E-01
DEBUG_STATS_RL:          Uvel (THERMODYNAMICS)  max=  1.83581626850401E-01
DEBUG_STATS_RL:          Uvel (THERMODYNAMICS) mean=  6.67404685956377E-03
DEBUG_STATS_RL:          Uvel (THERMODYNAMICS) S.D.=  1.64434983868068E-02
DEBUG_STATS_RL:          Vvel (THERMODYNAMICS)  min= -9.39895644596812E-02
DEBUG_STATS_RL:          Vvel (THERMODYNAMICS)  max=  1.59161444664775E-01
DEBUG_STATS_RL:          Vvel (THERMODYNAMICS) mean= -5.44171855434580E-03
DEBUG_STATS_RL:          Vvel (THERMODYNAMICS) S.D.=  1.51872144822407E-02
DEBUG_STATS_RL:          Wvel (THERMODYNAMICS)  min= -1.67074035844850E-04
DEBUG_STATS_RL:          Wvel (THERMODYNAMICS)  max=  2.76127768701859E-04
DEBUG_STATS_RL:          Wvel (THERMODYNAMICS) mean=  5.15840259367751E-08
DEBUG_STATS_RL:          Wvel (THERMODYNAMICS) S.D.=  2.37801336098590E-05
DEBUG_STATS_RL:         Theta (THERMODYNAMICS)  min= -1.90921680969602E+00
DEBUG_STATS_RL:         Theta (THERMODYNAMICS)  max=  2.98817140970052E+01
DEBUG_STATS_RL:         Theta (THERMODYNAMICS) mean=  3.22038717590899E+00
DEBUG_STATS_RL:         Theta (THERMODYNAMICS) S.D.=  5.85021055441369E+00
DEBUG_STATS_RL:          Salt (THERMODYNAMICS)  min=  2.00000000000000E-02
DEBUG_STATS_RL:          Salt (THERMODYNAMICS)  max=  3.74565314849306E+01
DEBUG_STATS_RL:          Salt (THERMODYNAMICS) mean=  1.88652071619833E+01
DEBUG_STATS_RL:          Salt (THERMODYNAMICS) S.D.=  1.73006721035398E+01
DEBUG_STATS_RL:         GtNm1 (THERMODYNAMICS)  min= -6.58266659273242E-06
DEBUG_STATS_RL:         GtNm1 (THERMODYNAMICS)  max=  4.06145962537119E-06
DEBUG_STATS_RL:         GtNm1 (THERMODYNAMICS) mean=  3.49037790392001E-08
DEBUG_STATS_RL:         GtNm1 (THERMODYNAMICS) S.D.=  2.82941246437272E-07
DEBUG_STATS_RL:         GsNm1 (THERMODYNAMICS)  min= -1.25251147309478E-06
DEBUG_STATS_RL:         GsNm1 (THERMODYNAMICS)  max=  7.75940069591069E-07
DEBUG_STATS_RL:         GsNm1 (THERMODYNAMICS) mean=  9.38464356955886E-10
DEBUG_STATS_RL:         GsNm1 (THERMODYNAMICS) S.D.=  2.37381648083077E-08
DEBUG_STATS_RL:                EtaN (DYNAMICS)  min= -1.81934284231223E+00
DEBUG_STATS_RL:                EtaN (DYNAMICS)  max=  1.96574025980991E+00
DEBUG_STATS_RL:                EtaN (DYNAMICS) mean= -4.01402676534773E-02
DEBUG_STATS_RL:                EtaN (DYNAMICS) S.D.=  8.27248747726634E-01
DEBUG_STATS_RL:                Uvel (DYNAMICS)  min= -1.16220457734890E-01
DEBUG_STATS_RL:                Uvel (DYNAMICS)  max=  1.83581626850401E-01
DEBUG_STATS_RL:                Uvel (DYNAMICS) mean=  6.67404685956377E-03
DEBUG_STATS_RL:                Uvel (DYNAMICS) S.D.=  1.64434983868068E-02
DEBUG_STATS_RL:                Vvel (DYNAMICS)  min= -9.39895644596812E-02
DEBUG_STATS_RL:                Vvel (DYNAMICS)  max=  1.59161444664775E-01
DEBUG_STATS_RL:                Vvel (DYNAMICS) mean= -5.44171855434580E-03
DEBUG_STATS_RL:                Vvel (DYNAMICS) S.D.=  1.51872144822407E-02
DEBUG_STATS_RL:                Wvel (DYNAMICS)  min= -1.67074035844850E-04
DEBUG_STATS_RL:                Wvel (DYNAMICS)  max=  2.76127768701859E-04
DEBUG_STATS_RL:                Wvel (DYNAMICS) mean=  5.15840259367751E-08
DEBUG_STATS_RL:                Wvel (DYNAMICS) S.D.=  2.37801336098590E-05
DEBUG_STATS_RL:               Theta (DYNAMICS)  min= -1.90921680969602E+00
DEBUG_STATS_RL:               Theta (DYNAMICS)  max=  2.98817140970052E+01
DEBUG_STATS_RL:               Theta (DYNAMICS) mean=  3.22038717590899E+00
DEBUG_STATS_RL:               Theta (DYNAMICS) S.D.=  5.85021055441369E+00
DEBUG_STATS_RL:                Salt (DYNAMICS)  min=  2.00000000000000E-02
DEBUG_STATS_RL:                Salt (DYNAMICS)  max=  3.74565314849306E+01
DEBUG_STATS_RL:                Salt (DYNAMICS) mean=  1.88652071619833E+01
DEBUG_STATS_RL:                Salt (DYNAMICS) S.D.=  1.73006721035398E+01
DEBUG_STATS_RL:                  Gu (DYNAMICS)  min= -1.20445350770703E-01
DEBUG_STATS_RL:                  Gu (DYNAMICS)  max=  1.77194997648130E-01
DEBUG_STATS_RL:                  Gu (DYNAMICS) mean=  5.67088394658939E-03
DEBUG_STATS_RL:                  Gu (DYNAMICS) S.D.=  1.83175907871165E-02
DEBUG_STATS_RL:                  Gv (DYNAMICS)  min= -8.60989416049439E-02
DEBUG_STATS_RL:                  Gv (DYNAMICS)  max=  1.61004658562252E-01
DEBUG_STATS_RL:                  Gv (DYNAMICS) mean= -4.43275949829557E-03
DEBUG_STATS_RL:                  Gv (DYNAMICS) S.D.=  1.54502183632075E-02
DEBUG_STATS_RL:               GuNm1 (DYNAMICS)  min= -8.10106705685820E-06
DEBUG_STATS_RL:               GuNm1 (DYNAMICS)  max=  7.73106729997177E-06
DEBUG_STATS_RL:               GuNm1 (DYNAMICS) mean= -4.52234122795483E-08
DEBUG_STATS_RL:               GuNm1 (DYNAMICS) S.D.=  1.29354130271823E-06
DEBUG_STATS_RL:               GvNm1 (DYNAMICS)  min= -1.11175512702724E-05
DEBUG_STATS_RL:               GvNm1 (DYNAMICS)  max=  1.67013222839127E-05
DEBUG_STATS_RL:               GvNm1 (DYNAMICS) mean=  7.83784474176610E-07
DEBUG_STATS_RL:               GvNm1 (DYNAMICS) S.D.=  2.78651148676735E-06
DEBUG_STATS_RL:               GtNm1 (DYNAMICS)  min= -6.58266659273242E-06
DEBUG_STATS_RL:               GtNm1 (DYNAMICS)  max=  4.06145962537119E-06
DEBUG_STATS_RL:               GtNm1 (DYNAMICS) mean=  3.49037790392001E-08
DEBUG_STATS_RL:               GtNm1 (DYNAMICS) S.D.=  2.82941246437272E-07
DEBUG_STATS_RL:               GsNm1 (DYNAMICS)  min= -1.25251147309478E-06
DEBUG_STATS_RL:               GsNm1 (DYNAMICS)  max=  7.75940069591069E-07
DEBUG_STATS_RL:               GsNm1 (DYNAMICS) mean=  9.38464356955886E-10
DEBUG_STATS_RL:               GsNm1 (DYNAMICS) S.D.=  2.37381648083077E-08
DEBUG_STATS_RL:    cg2d_b (SOLVE_FOR_PRESSURE)  min= -2.60801936908823E+04
DEBUG_STATS_RL:    cg2d_b (SOLVE_FOR_PRESSURE)  max=  1.68437982124269E+04
DEBUG_STATS_RL:    cg2d_b (SOLVE_FOR_PRESSURE) mean=  3.84428915865345E-01
DEBUG_STATS_RL:    cg2d_b (SOLVE_FOR_PRESSURE) S.D.=  4.48695469369633E+03
 cg2d: Sum(rhs),rhsMax =   3.41237090022114E-02  1.71301694939830E+00
(PID.TID 0000.0001)  cg2d: iter=     1 ; resid.=  1.42812967413277E+00
(PID.TID 0000.0001)  cg2d: iter=     2 ; resid.=  1.60315640514475E+00
(PID.TID 0000.0001)  cg2d: iter=     3 ; resid.=  1.46693252569142E+00
(PID.TID 0000.0001)  cg2d: iter=     4 ; resid.=  1.16158324944097E+00
(PID.TID 0000.0001)  cg2d: iter=     5 ; resid.=  1.14825151656410E+00
(PID.TID 0000.0001)  cg2d: iter=     6 ; resid.=  9.24079493340661E-01
(PID.TID 0000.0001)  cg2d: iter=     7 ; resid.=  6.67432747125244E-01
(PID.TID 0000.0001)  cg2d: iter=     8 ; resid.=  4.95105407642860E-01
(PID.TID 0000.0001)  cg2d: iter=     9 ; resid.=  4.46148697891382E-01
(PID.TID 0000.0001)  cg2d: iter=    10 ; resid.=  4.30748061445212E-01
(PID.TID 0000.0001)  cg2d: iter=    11 ; resid.=  3.68666428228743E-01
(PID.TID 0000.0001)  cg2d: iter=    12 ; resid.=  3.13666382833446E-01
(PID.TID 0000.0001)  cg2d: iter=    13 ; resid.=  2.82205645793949E-01
(PID.TID 0000.0001)  cg2d: iter=    14 ; resid.=  2.42390934329206E-01
(PID.TID 0000.0001)  cg2d: iter=    15 ; resid.=  2.15807377262718E-01
(PID.TID 0000.0001)  cg2d: iter=    16 ; resid.=  2.00258420970101E-01
(PID.TID 0000.0001)  cg2d: iter=    17 ; resid.=  1.69986478889032E-01
(PID.TID 0000.0001)  cg2d: iter=    18 ; resid.=  1.43101556965193E-01
(PID.TID 0000.0001)  cg2d: iter=    19 ; resid.=  1.07186047934792E-01
(PID.TID 0000.0001)  cg2d: iter=    20 ; resid.=  8.30429916264137E-02
(PID.TID 0000.0001)  cg2d: iter=    21 ; resid.=  7.19146971724155E-02
(PID.TID 0000.0001)  cg2d: iter=    22 ; resid.=  6.26902849965305E-02
(PID.TID 0000.0001)  cg2d: iter=    23 ; resid.=  4.83945060147534E-02
(PID.TID 0000.0001)  cg2d: iter=    24 ; resid.=  4.35646690458816E-02
(PID.TID 0000.0001)  cg2d: iter=    25 ; resid.=  3.92935172794377E-02
(PID.TID 0000.0001)  cg2d: iter=    26 ; resid.=  3.19545783637468E-02
(PID.TID 0000.0001)  cg2d: iter=    27 ; resid.=  2.61693696245549E-02
(PID.TID 0000.0001)  cg2d: iter=    28 ; resid.=  2.14304917535218E-02
(PID.TID 0000.0001)  cg2d: iter=    29 ; resid.=  1.77093586021057E-02
(PID.TID 0000.0001)  cg2d: iter=    30 ; resid.=  1.47294548626051E-02
(PID.TID 0000.0001)  cg2d: iter=    31 ; resid.=  1.21168322080049E-02
(PID.TID 0000.0001)  cg2d: iter=    32 ; resid.=  9.27978602141852E-03
(PID.TID 0000.0001)  cg2d: iter=    33 ; resid.=  8.12067666404970E-03
(PID.TID 0000.0001)  cg2d: iter=    34 ; resid.=  7.20771644087557E-03
(PID.TID 0000.0001)  cg2d: iter=    35 ; resid.=  5.74653700356625E-03
(PID.TID 0000.0001)  cg2d: iter=    36 ; resid.=  5.27710515169121E-03
(PID.TID 0000.0001)  cg2d: iter=    37 ; resid.=  4.14018044839306E-03
(PID.TID 0000.0001)  cg2d: iter=    38 ; resid.=  3.03515693177743E-03
(PID.TID 0000.0001)  cg2d: iter=    39 ; resid.=  2.36401246988258E-03
(PID.TID 0000.0001)  cg2d: iter=    40 ; resid.=  2.01922324542086E-03
(PID.TID 0000.0001)  cg2d: iter=    41 ; resid.=  1.55092978947627E-03
(PID.TID 0000.0001)  cg2d: iter=    42 ; resid.=  1.42356947177176E-03
(PID.TID 0000.0001)  cg2d: iter=    43 ; resid.=  1.09786991482899E-03
(PID.TID 0000.0001)  cg2d: iter=    44 ; resid.=  9.27983385576360E-04
(PID.TID 0000.0001)  cg2d: iter=    45 ; resid.=  8.27420549812841E-04
(PID.TID 0000.0001)  cg2d: iter=    46 ; resid.=  6.45820578882531E-04
(PID.TID 0000.0001)  cg2d: iter=    47 ; resid.=  4.77882240898448E-04
(PID.TID 0000.0001)  cg2d: iter=    48 ; resid.=  4.12836599620184E-04
(PID.TID 0000.0001)  cg2d: iter=    49 ; resid.=  3.78049087944384E-04
(PID.TID 0000.0001)  cg2d: iter=    50 ; resid.=  3.26474550029603E-04
(PID.TID 0000.0001)  cg2d: iter=    51 ; resid.=  2.87200773152412E-04
(PID.TID 0000.0001)  cg2d: iter=    52 ; resid.=  2.42514341522742E-04
(PID.TID 0000.0001)  cg2d: iter=    53 ; resid.=  1.99297795571583E-04
(PID.TID 0000.0001)  cg2d: iter=    54 ; resid.=  1.53837997747915E-04
(PID.TID 0000.0001)  cg2d: iter=    55 ; resid.=  1.17392654240744E-04
(PID.TID 0000.0001)  cg2d: iter=    56 ; resid.=  9.02197116410636E-05
(PID.TID 0000.0001)  cg2d: iter=    57 ; resid.=  6.94984280338954E-05
(PID.TID 0000.0001)  cg2d: iter=    58 ; resid.=  5.66334283312257E-05
(PID.TID 0000.0001)  cg2d: iter=    59 ; resid.=  4.36901919767890E-05
(PID.TID 0000.0001)  cg2d: iter=    60 ; resid.=  3.17298819984932E-05
(PID.TID 0000.0001)  cg2d: iter=    61 ; resid.=  2.54300403147075E-05
(PID.TID 0000.0001)  cg2d: iter=    62 ; resid.=  1.95469873824356E-05
(PID.TID 0000.0001)  cg2d: iter=    63 ; resid.=  1.70391559059171E-05
(PID.TID 0000.0001)  cg2d: iter=    64 ; resid.=  1.50213413206527E-05
(PID.TID 0000.0001)  cg2d: iter=    65 ; resid.=  1.22977837365164E-05
(PID.TID 0000.0001)  cg2d: iter=    66 ; resid.=  9.59510057828788E-06
(PID.TID 0000.0001)  cg2d: iter=    67 ; resid.=  8.59276123613755E-06
(PID.TID 0000.0001)  cg2d: iter=    68 ; resid.=  7.26179606951175E-06
(PID.TID 0000.0001)  cg2d: iter=    69 ; resid.=  5.51474703465561E-06
(PID.TID 0000.0001)  cg2d: iter=    70 ; resid.=  4.72729633326308E-06
(PID.TID 0000.0001)  cg2d: iter=    71 ; resid.=  3.92857467866145E-06
(PID.TID 0000.0001)  cg2d: iter=    72 ; resid.=  3.11761775416921E-06
(PID.TID 0000.0001)  cg2d: iter=    73 ; resid.=  2.63072357030740E-06
(PID.TID 0000.0001)  cg2d: iter=    74 ; resid.=  2.29828886942398E-06
(PID.TID 0000.0001)  cg2d: iter=    75 ; resid.=  1.86305935305921E-06
(PID.TID 0000.0001)  cg2d: iter=    76 ; resid.=  1.68424064089634E-06
(PID.TID 0000.0001)  cg2d: iter=    77 ; resid.=  1.43503207429725E-06
(PID.TID 0000.0001)  cg2d: iter=    78 ; resid.=  1.17637973394768E-06
(PID.TID 0000.0001)  cg2d: iter=    79 ; resid.=  9.84920330979374E-07
(PID.TID 0000.0001)  cg2d: iter=    80 ; resid.=  7.95027166579040E-07
(PID.TID 0000.0001)  cg2d: iter=    81 ; resid.=  6.52299237251411E-07
(PID.TID 0000.0001)  cg2d: iter=    82 ; resid.=  4.83538165313275E-07
(PID.TID 0000.0001)  cg2d: iter=    83 ; resid.=  4.36003314652270E-07
(PID.TID 0000.0001)  cg2d: iter=    84 ; resid.=  3.72385452517493E-07
(PID.TID 0000.0001)  cg2d: iter=    85 ; resid.=  3.13869877226607E-07
(PID.TID 0000.0001)  cg2d: iter=    86 ; resid.=  2.58347162300061E-07
(PID.TID 0000.0001)  cg2d: iter=    87 ; resid.=  1.98894262793934E-07
(PID.TID 0000.0001)  cg2d: iter=    88 ; resid.=  1.68443040795712E-07
(PID.TID 0000.0001)  cg2d: iter=    89 ; resid.=  1.44869464647442E-07
(PID.TID 0000.0001)  cg2d: iter=    90 ; resid.=  1.06253816969593E-07
(PID.TID 0000.0001)  cg2d: iter=    91 ; resid.=  7.81951792513618E-08
(PID.TID 0000.0001)  cg2d: iter=    92 ; resid.=  5.79590902853537E-08
(PID.TID 0000.0001)  cg2d: iter=    93 ; resid.=  4.28336879708456E-08
(PID.TID 0000.0001)  cg2d: iter=    94 ; resid.=  2.90772688672868E-08
(PID.TID 0000.0001)  cg2d: iter=    95 ; resid.=  2.22288519883745E-08
(PID.TID 0000.0001)  cg2d: iter=    96 ; resid.=  1.82844091858578E-08
(PID.TID 0000.0001)  cg2d: iter=    97 ; resid.=  1.44426055123807E-08
(PID.TID 0000.0001)  cg2d: iter=    98 ; resid.=  1.18276920747464E-08
(PID.TID 0000.0001)  cg2d: iter=    99 ; resid.=  1.04865733623591E-08
(PID.TID 0000.0001)  cg2d: iter=   100 ; resid.=  9.05799403775648E-09
(PID.TID 0000.0001)  cg2d: iter=   101 ; resid.=  7.24146479544212E-09
(PID.TID 0000.0001)  cg2d: iter=   102 ; resid.=  6.07920257369182E-09
(PID.TID 0000.0001)  cg2d: iter=   103 ; resid.=  4.83748074831409E-09
(PID.TID 0000.0001)  cg2d: iter=   104 ; resid.=  4.11668148903462E-09
(PID.TID 0000.0001)  cg2d: iter=   105 ; resid.=  3.44829110044352E-09
(PID.TID 0000.0001)  cg2d: iter=   106 ; resid.=  2.66865333765145E-09
(PID.TID 0000.0001)  cg2d: iter=   107 ; resid.=  2.14198720881710E-09
(PID.TID 0000.0001)  cg2d: iter=   108 ; resid.=  1.67043023799092E-09
(PID.TID 0000.0001)  cg2d: iter=   109 ; resid.=  1.35927246577478E-09
(PID.TID 0000.0001)  cg2d: iter=   110 ; resid.=  1.07246688972072E-09
(PID.TID 0000.0001)  cg2d: iter=   111 ; resid.=  8.43107366358297E-10
(PID.TID 0000.0001)  cg2d: iter=   112 ; resid.=  6.12874948789570E-10
(PID.TID 0000.0001)  cg2d: iter=   113 ; resid.=  4.99035058008761E-10
(PID.TID 0000.0001)  cg2d: iter=   114 ; resid.=  3.91732341836769E-10
(PID.TID 0000.0001)  cg2d: iter=   115 ; resid.=  3.11825316015421E-10
(PID.TID 0000.0001)  cg2d: iter=   116 ; resid.=  2.17942027524006E-10
(PID.TID 0000.0001)  cg2d: iter=   117 ; resid.=  1.57776546127411E-10
(PID.TID 0000.0001)  cg2d: iter=   118 ; resid.=  1.19382500944580E-10
(PID.TID 0000.0001)  cg2d: iter=   119 ; resid.=  8.89254340005530E-11
(PID.TID 0000.0001)  cg2d: iter=   120 ; resid.=  6.81242951717298E-11
(PID.TID 0000.0001)  cg2d: iter=   121 ; resid.=  4.93114666175219E-11
(PID.TID 0000.0001)  cg2d: iter=   122 ; resid.=  3.83064978293315E-11
(PID.TID 0000.0001)  cg2d: iter=   123 ; resid.=  2.72900030674378E-11
(PID.TID 0000.0001)  cg2d: iter=   124 ; resid.=  2.02420310644376E-11
(PID.TID 0000.0001)  cg2d: iter=   125 ; resid.=  1.42509536024382E-11
(PID.TID 0000.0001)  cg2d: iter=   126 ; resid.=  9.79362069961604E-12
(PID.TID 0000.0001)  cg2d: iter=   127 ; resid.=  6.28949793731534E-12
(PID.TID 0000.0001)  cg2d: iter=   128 ; resid.=  4.41725679271070E-12
(PID.TID 0000.0001)  cg2d: iter=   129 ; resid.=  3.41429025818585E-12
(PID.TID 0000.0001)  cg2d: iter=   130 ; resid.=  2.40241077743601E-12
(PID.TID 0000.0001)  cg2d: iter=   131 ; resid.=  1.87371154036927E-12
(PID.TID 0000.0001)  cg2d: iter=   132 ; resid.=  1.54709426212654E-12
(PID.TID 0000.0001)  cg2d: iter=   133 ; resid.=  1.38830822285841E-12
(PID.TID 0000.0001)  cg2d: iter=   134 ; resid.=  1.15149549360826E-12
(PID.TID 0000.0001)  cg2d: iter=   135 ; resid.=  8.44060621858317E-13
(PID.TID 0000.0001)  cg2d: iter=   136 ; resid.=  5.82847572610094E-13
(PID.TID 0000.0001)  cg2d: iter=   137 ; resid.=  4.05602234041974E-13
(PID.TID 0000.0001)  cg2d: iter=   138 ; resid.=  3.09813521889387E-13
(PID.TID 0000.0001)  cg2d: iter=   139 ; resid.=  2.21733617541793E-13
(PID.TID 0000.0001)  cg2d: iter=   140 ; resid.=  1.49433495648208E-13
(PID.TID 0000.0001)  cg2d: iter=   141 ; resid.=  1.09892542164796E-13
(PID.TID 0000.0001)  cg2d: iter=   142 ; resid.=  7.42026576378821E-14
DEBUG_STATS_RL:    cg2d_x (SOLVE_FOR_PRESSURE)  min= -1.49655493651458E+01
DEBUG_STATS_RL:    cg2d_x (SOLVE_FOR_PRESSURE)  max=  2.76085795420407E+01
DEBUG_STATS_RL:    cg2d_x (SOLVE_FOR_PRESSURE) mean= -1.26601383127556E-01
DEBUG_STATS_RL:    cg2d_x (SOLVE_FOR_PRESSURE) S.D.=  8.01621687967320E+00
(PID.TID 0000.0001)      cg2d_init_res =   1.41045614567529E+00
(PID.TID 0000.0001)      cg2d_iters(min,last) =      -1     142
(PID.TID 0000.0001)      cg2d_last_res =   7.42026576378821E-14
(PID.TID 0000.0001) // =======================================================
(PID.TID 0000.0001) // Begin MONITOR dynamic field statistics
(PID.TID 0000.0001) // =======================================================
(PID.TID 0000.0001) %MON time_tsnumber                =                     6
(PID.TID 0000.0001) %MON time_secondsf                =   5.1840000000000E+05
(PID.TID 0000.0001) %MON dynstat_eta_max              =   2.8143302285464E+00
(PID.TID 0000.0001) %MON dynstat_eta_min              =  -1.5255402003207E+00
(PID.TID 0000.0001) %MON dynstat_eta_mean             =  -4.0110390609425E-04
(PID.TID 0000.0001) %MON dynstat_eta_sd               =   8.4004450358335E-01
(PID.TID 0000.0001) %MON dynstat_eta_del2             =   2.7815546064556E-03
(PID.TID 0000.0001) %MON dynstat_uvel_max             =   1.5525043209871E-01
(PID.TID 0000.0001) %MON dynstat_uvel_min             =  -1.3215482013956E-01
(PID.TID 0000.0001) %MON dynstat_uvel_mean            =   4.3889877133218E-03
(PID.TID 0000.0001) %MON dynstat_uvel_sd              =   1.1883368786066E-02
(PID.TID 0000.0001) %MON dynstat_uvel_del2            =   8.2055736940006E-05
(PID.TID 0000.0001) %MON dynstat_vvel_max             =   1.3581993583762E-01
(PID.TID 0000.0001) %MON dynstat_vvel_min             =  -1.0436101949109E-01
(PID.TID 0000.0001) %MON dynstat_vvel_mean            =  -3.0616170436319E-03
(PID.TID 0000.0001) %MON dynstat_vvel_sd              =   1.1514255895661E-02
(PID.TID 0000.0001) %MON dynstat_vvel_del2            =   1.0651026192334E-04
(PID.TID 0000.0001) %MON dynstat_wvel_max             =   2.7780475919169E-04
(PID.TID 0000.0001) %MON dynstat_wvel_min             =  -1.7843681696132E-04
(PID.TID 0000.0001) %MON dynstat_wvel_mean            =   3.7105060148273E-22
(PID.TID 0000.0001) %MON dynstat_wvel_sd              =   2.5906963820842E-05
(PID.TID 0000.0001) %MON dynstat_wvel_del2            =   3.3596650943837E-07
(PID.TID 0000.0001) %MON dynstat_theta_max            =   2.9881714097005E+01
(PID.TID 0000.0001) %MON dynstat_theta_min            =  -1.9092168096960E+00
(PID.TID 0000.0001) %MON dynstat_theta_mean           =   3.6398109242120E+00
(PID.TID 0000.0001) %MON dynstat_theta_sd             =   4.4167318459403E+00
(PID.TID 0000.0001) %MON dynstat_theta_del2           =   5.3461546899743E-03
(PID.TID 0000.0001) %MON dynstat_salt_max             =   3.7456531484931E+01
(PID.TID 0000.0001) %MON dynstat_salt_min             =   2.9797119532993E+01
(PID.TID 0000.0001) %MON dynstat_salt_mean            =   3.4738011803035E+01
(PID.TID 0000.0001) %MON dynstat_salt_sd              =   2.9616979324890E-01
(PID.TID 0000.0001) %MON dynstat_salt_del2            =   1.0129714209311E-03
(PID.TID 0000.0001) %MON dynstat_sst_max              =   2.9881714097005E+01
(PID.TID 0000.0001) %MON dynstat_sst_min              =  -1.9092168096960E+00
(PID.TID 0000.0001) %MON dynstat_sst_mean             =   1.8574379337480E+01
(PID.TID 0000.0001) %MON dynstat_sst_sd               =   9.1280213965832E+00
(PID.TID 0000.0001) %MON dynstat_sst_del2             =   2.6369005601467E-02
(PID.TID 0000.0001) %MON dynstat_sss_max              =   3.7456531484931E+01
(PID.TID 0000.0001) %MON dynstat_sss_min              =   2.9797119532993E+01
(PID.TID 0000.0001) %MON dynstat_sss_mean             =   3.4872061677642E+01
(PID.TID 0000.0001) %MON dynstat_sss_sd               =   9.6579528426713E-01
(PID.TID 0000.0001) %MON dynstat_sss_del2             =   8.0103768470331E-03
(PID.TID 0000.0001) %MON forcing_qnet_max             =   4.3113174438477E+02
(PID.TID 0000.0001) %MON forcing_qnet_min             =  -1.8469117228190E+02
(PID.TID 0000.0001) %MON forcing_qnet_mean            =  -1.6637645559275E+01
(PID.TID 0000.0001) %MON forcing_qnet_sd              =   1.1179629855085E+02
(PID.TID 0000.0001) %MON forcing_qnet_del2            =   9.9775446314289E-01
(PID.TID 0000.0001) %MON forcing_qsw_max              =   0.0000000000000E+00
(PID.TID 0000.0001) %MON forcing_qsw_min              =   0.0000000000000E+00
(PID.TID 0000.0001) %MON forcing_qsw_mean             =   0.0000000000000E+00
(PID.TID 0000.0001) %MON forcing_qsw_sd               =   0.0000000000000E+00
(PID.TID 0000.0001) %MON forcing_qsw_del2             =   0.0000000000000E+00
(PID.TID 0000.0001) %MON forcing_empmr_max            =   8.1964593334760E-05
(PID.TID 0000.0001) %MON forcing_empmr_min            =  -7.2853588051203E-05
(PID.TID 0000.0001) %MON forcing_empmr_mean           =   8.2523948465558E-07
(PID.TID 0000.0001) %MON forcing_empmr_sd             =   2.8025041303087E-05
(PID.TID 0000.0001) %MON forcing_empmr_del2           =   3.6259598317743E-07
(PID.TID 0000.0001) %MON forcing_fu_max               =   2.7059724926949E-01
(PID.TID 0000.0001) %MON forcing_fu_min               =  -1.6274636983871E-01
(PID.TID 0000.0001) %MON forcing_fu_mean              =   1.6078663362938E-02
(PID.TID 0000.0001) %MON forcing_fu_sd                =   9.0186169351879E-02
(PID.TID 0000.0001) %MON forcing_fu_del2              =   6.6508467741693E-04
(PID.TID 0000.0001) %MON forcing_fv_max               =   2.1432226896286E-01
(PID.TID 0000.0001) %MON forcing_fv_min               =  -1.8398347496986E-01
(PID.TID 0000.0001) %MON forcing_fv_mean              =  -5.9965230081131E-03
(PID.TID 0000.0001) %MON forcing_fv_sd                =   4.5826577347902E-02
(PID.TID 0000.0001) %MON forcing_fv_del2              =   4.5109215240509E-04
(PID.TID 0000.0001) %MON trAdv_CFL_u_max              =   4.7836788289076E-02
(PID.TID 0000.0001) %MON trAdv_CFL_v_max              =   3.1100282896204E-02
(PID.TID 0000.0001) %MON trAdv_CFL_w_max              =   7.8464911700577E-02
(PID.TID 0000.0001) %MON advcfl_uvel_max              =   5.1295469861301E-02
(PID.TID 0000.0001) %MON advcfl_vvel_max              =   2.6387635243365E-02
(PID.TID 0000.0001) %MON advcfl_wvel_max              =   8.8453655842935E-02
(PID.TID 0000.0001) %MON advcfl_W_hf_max              =   1.0009229476964E-01
(PID.TID 0000.0001) %MON pe_b_mean                    =   9.0299612850509E-04
(PID.TID 0000.0001) %MON ke_max                       =   1.1015668492182E-02
(PID.TID 0000.0001) %MON ke_mean                      =   1.3663572346887E-04
(PID.TID 0000.0001) %MON ke_vol                       =   1.3226782436723E+18
(PID.TID 0000.0001) %MON vort_r_min                   =  -5.9485901998946E-07
(PID.TID 0000.0001) %MON vort_r_max                   =   5.9683888562233E-07
(PID.TID 0000.0001) %MON vort_a_mean                  =  -2.5274807587355E-05
(PID.TID 0000.0001) %MON vort_a_sd                    =   7.3605227225526E-05
(PID.TID 0000.0001) %MON vort_p_mean                  =  -3.1845656038747E-05
(PID.TID 0000.0001) %MON vort_p_sd                    =   1.3162364913671E-04
(PID.TID 0000.0001) %MON surfExpan_theta_mean         =  -9.0741323117851E-06
(PID.TID 0000.0001) %MON surfExpan_salt_mean          =  -3.1939557217940E-07
(PID.TID 0000.0001) // =======================================================
(PID.TID 0000.0001) // End MONITOR dynamic field statistics
(PID.TID 0000.0001) // =======================================================
 EXTERNAL_FIELDS_LOAD,         6 : iP,iLd,i0,i1=   12    1   12    1 ; Wght=  0.3000000000  0.7000000000
 EXTERNAL_FIELDS_LOAD: (fu0,1),fu,fv= -4.5368E-02 -3.5633E-02 -3.8553E-02 -6.1154E-02
 EXTERNAL_FIELDS_LOAD: SST,SSS,Q,E-P=  4.1526E-01  3.4504E+01  2.6537E+02  1.1160E-05
DEBUG_STATS_RL:          Uvel (THERMODYNAMICS)  min= -1.32154820139559E-01
DEBUG_STATS_RL:          Uvel (THERMODYNAMICS)  max=  1.55250432098706E-01
DEBUG_STATS_RL:          Uvel (THERMODYNAMICS) mean=  7.40718113627223E-03
DEBUG_STATS_RL:          Uvel (THERMODYNAMICS) S.D.=  1.74688464636299E-02
DEBUG_STATS_RL:          Vvel (THERMODYNAMICS)  min= -1.04361019491094E-01
DEBUG_STATS_RL:          Vvel (THERMODYNAMICS)  max=  1.35819935837616E-01
DEBUG_STATS_RL:          Vvel (THERMODYNAMICS) mean= -4.58500724186471E-03
DEBUG_STATS_RL:          Vvel (THERMODYNAMICS) S.D.=  1.60013033684620E-02
DEBUG_STATS_RL:          Wvel (THERMODYNAMICS)  min= -1.78436816961317E-04
DEBUG_STATS_RL:          Wvel (THERMODYNAMICS)  max=  2.77804759191693E-04
DEBUG_STATS_RL:          Wvel (THERMODYNAMICS) mean= -3.46310010122563E-07
DEBUG_STATS_RL:          Wvel (THERMODYNAMICS) S.D.=  2.44354517537059E-05
DEBUG_STATS_RL:         Theta (THERMODYNAMICS)  min= -1.91485479624636E+00
DEBUG_STATS_RL:         Theta (THERMODYNAMICS)  max=  2.98982911566928E+01
DEBUG_STATS_RL:         Theta (THERMODYNAMICS) mean=  3.22150302185283E+00
DEBUG_STATS_RL:         Theta (THERMODYNAMICS) S.D.=  5.85126087856073E+00
DEBUG_STATS_RL:          Salt (THERMODYNAMICS)  min=  2.00000000000000E-02
DEBUG_STATS_RL:          Salt (THERMODYNAMICS)  max=  3.74542054936749E+01
DEBUG_STATS_RL:          Salt (THERMODYNAMICS) mean=  1.88652176639985E+01
DEBUG_STATS_RL:          Salt (THERMODYNAMICS) S.D.=  1.73006831132452E+01
DEBUG_STATS_RL:         GtNm1 (THERMODYNAMICS)  min= -4.51356574644131E-06
DEBUG_STATS_RL:         GtNm1 (THERMODYNAMICS)  max=  2.54862874733298E-06
DEBUG_STATS_RL:         GtNm1 (THERMODYNAMICS) mean=  2.86671994228029E-08
DEBUG_STATS_RL:         GtNm1 (THERMODYNAMICS) S.D.=  2.73650189870045E-07
DEBUG_STATS_RL:         GsNm1 (THERMODYNAMICS)  min= -5.91593198827288E-07
DEBUG_STATS_RL:         GsNm1 (THERMODYNAMICS)  max=  3.72091471806458E-07
DEBUG_STATS_RL:         GsNm1 (THERMODYNAMICS) mean=  4.38887014258162E-10
DEBUG_STATS_RL:         GsNm1 (THERMODYNAMICS) S.D.=  2.20726103695518E-08
DEBUG_STATS_RL:                EtaN (DYNAMICS)  min= -1.52554020032069E+00
DEBUG_STATS_RL:                EtaN (DYNAMICS)  max=  2.81433022854643E+00
DEBUG_STATS_RL:                EtaN (DYNAMICS) mean= -1.29053397683546E-02
DEBUG_STATS_RL:                EtaN (DYNAMICS) S.D.=  8.17147490282691E-01
DEBUG_STATS_RL:                Uvel (DYNAMICS)  min= -1.32154820139559E-01
DEBUG_STATS_RL:                Uvel (DYNAMICS)  max=  1.55250432098706E-01
DEBUG_STATS_RL:                Uvel (DYNAMICS) mean=  7.40718113627223E-03
DEBUG_STATS_RL:                Uvel (DYNAMICS) S.D.=  1.74688464636299E-02
DEBUG_STATS_RL:                Vvel (DYNAMICS)  min= -1.04361019491094E-01
DEBUG_STATS_RL:                Vvel (DYNAMICS)  max=  1.35819935837616E-01
DEBUG_STATS_RL:                Vvel (DYNAMICS) mean= -4.58500724186471E-03
DEBUG_STATS_RL:                Vvel (DYNAMICS) S.D.=  1.60013033684620E-02
DEBUG_STATS_RL:                Wvel (DYNAMICS)  min= -1.78436816961317E-04
DEBUG_STATS_RL:                Wvel (DYNAMICS)  max=  2.77804759191693E-04
DEBUG_STATS_RL:                Wvel (DYNAMICS) mean= -3.46310010122563E-07
DEBUG_STATS_RL:                Wvel (DYNAMICS) S.D.=  2.44354517537059E-05
DEBUG_STATS_RL:               Theta (DYNAMICS)  min= -1.91485479624636E+00
DEBUG_STATS_RL:               Theta (DYNAMICS)  max=  2.98982911566928E+01
DEBUG_STATS_RL:               Theta (DYNAMICS) mean=  3.22150302185283E+00
DEBUG_STATS_RL:               Theta (DYNAMICS) S.D.=  5.85126087856073E+00
DEBUG_STATS_RL:                Salt (DYNAMICS)  min=  2.00000000000000E-02
DEBUG_STATS_RL:                Salt (DYNAMICS)  max=  3.74542054936749E+01
DEBUG_STATS_RL:                Salt (DYNAMICS) mean=  1.88652176639985E+01
DEBUG_STATS_RL:                Salt (DYNAMICS) S.D.=  1.73006831132452E+01
DEBUG_STATS_RL:                  Gu (DYNAMICS)  min= -1.35698827378511E-01
DEBUG_STATS_RL:                  Gu (DYNAMICS)  max=  1.49955270339331E-01
DEBUG_STATS_RL:                  Gu (DYNAMICS) mean=  5.90280194173607E-03
DEBUG_STATS_RL:                  Gu (DYNAMICS) S.D.=  1.92002554787923E-02
DEBUG_STATS_RL:                  Gv (DYNAMICS)  min= -9.29655654417131E-02
DEBUG_STATS_RL:                  Gv (DYNAMICS)  max=  1.37565166471853E-01
DEBUG_STATS_RL:                  Gv (DYNAMICS) mean= -3.58661722054826E-03
DEBUG_STATS_RL:                  Gv (DYNAMICS) S.D.=  1.59739324927311E-02
DEBUG_STATS_RL:               GuNm1 (DYNAMICS)  min= -7.82300700808863E-06
DEBUG_STATS_RL:               GuNm1 (DYNAMICS)  max=  7.64095583179126E-06
DEBUG_STATS_RL:               GuNm1 (DYNAMICS) mean= -4.18828026763214E-08
DEBUG_STATS_RL:               GuNm1 (DYNAMICS) S.D.=  1.25823804736580E-06
DEBUG_STATS_RL:               GvNm1 (DYNAMICS)  min= -1.07315814173377E-05
DEBUG_STATS_RL:               GvNm1 (DYNAMICS)  max=  1.63877700529930E-05
DEBUG_STATS_RL:               GvNm1 (DYNAMICS) mean=  7.84535635593702E-07
DEBUG_STATS_RL:               GvNm1 (DYNAMICS) S.D.=  2.75019827373625E-06
DEBUG_STATS_RL:               GtNm1 (DYNAMICS)  min= -4.51356574644131E-06
DEBUG_STATS_RL:               GtNm1 (DYNAMICS)  max=  2.54862874733298E-06
DEBUG_STATS_RL:               GtNm1 (DYNAMICS) mean=  2.86671994228029E-08
DEBUG_STATS_RL:               GtNm1 (DYNAMICS) S.D.=  2.73650189870045E-07
DEBUG_STATS_RL:               GsNm1 (DYNAMICS)  min= -5.91593198827288E-07
DEBUG_STATS_RL:               GsNm1 (DYNAMICS)  max=  3.72091471806458E-07
DEBUG_STATS_RL:               GsNm1 (DYNAMICS) mean=  4.38887014258162E-10
DEBUG_STATS_RL:               GsNm1 (DYNAMICS) S.D.=  2.20726103695518E-08
DEBUG_STATS_RL:    cg2d_b (SOLVE_FOR_PRESSURE)  min= -2.39798139898822E+04
DEBUG_STATS_RL:    cg2d_b (SOLVE_FOR_PRESSURE)  max=  1.62367374290591E+04
DEBUG_STATS_RL:    cg2d_b (SOLVE_FOR_PRESSURE) mean=  4.51236202109611E-01
DEBUG_STATS_RL:    cg2d_b (SOLVE_FOR_PRESSURE) S.D.=  4.30751399586066E+03
 cg2d: Sum(rhs),rhsMax =   4.35621313961922E-02  1.57505838702600E+00
(PID.TID 0000.0001)  cg2d: iter=     1 ; resid.=  1.07653706097052E+00
(PID.TID 0000.0001)  cg2d: iter=     2 ; resid.=  1.04641769256073E+00
(PID.TID 0000.0001)  cg2d: iter=     3 ; resid.=  1.02446172837937E+00
(PID.TID 0000.0001)  cg2d: iter=     4 ; resid.=  8.39447050103813E-01
(PID.TID 0000.0001)  cg2d: iter=     5 ; resid.=  8.02680729100619E-01
(PID.TID 0000.0001)  cg2d: iter=     6 ; resid.=  6.74802227787784E-01
(PID.TID 0000.0001)  cg2d: iter=     7 ; resid.=  4.91760115824693E-01
(PID.TID 0000.0001)  cg2d: iter=     8 ; resid.=  3.43200146121336E-01
(PID.TID 0000.0001)  cg2d: iter=     9 ; resid.=  2.76221827954079E-01
(PID.TID 0000.0001)  cg2d: iter=    10 ; resid.=  2.65990058922721E-01
(PID.TID 0000.0001)  cg2d: iter=    11 ; resid.=  2.41956918406781E-01
(PID.TID 0000.0001)  cg2d: iter=    12 ; resid.=  2.09427500840950E-01
(PID.TID 0000.0001)  cg2d: iter=    13 ; resid.=  1.79048461838877E-01
(PID.TID 0000.0001)  cg2d: iter=    14 ; resid.=  1.52909223006836E-01
(PID.TID 0000.0001)  cg2d: iter=    15 ; resid.=  1.32079579294226E-01
(PID.TID 0000.0001)  cg2d: iter=    16 ; resid.=  1.25479183193613E-01
(PID.TID 0000.0001)  cg2d: iter=    17 ; resid.=  1.03866723302634E-01
(PID.TID 0000.0001)  cg2d: iter=    18 ; resid.=  8.82621663578216E-02
(PID.TID 0000.0001)  cg2d: iter=    19 ; resid.=  6.83392231583538E-02
(PID.TID 0000.0001)  cg2d: iter=    20 ; resid.=  5.37300229051706E-02
(PID.TID 0000.0001)  cg2d: iter=    21 ; resid.=  4.27647356812329E-02
(PID.TID 0000.0001)  cg2d: iter=    22 ; resid.=  3.32752907331054E-02
(PID.TID 0000.0001)  cg2d: iter=    23 ; resid.=  2.30471406895422E-02
(PID.TID 0000.0001)  cg2d: iter=    24 ; resid.=  1.92422954832307E-02
(PID.TID 0000.0001)  cg2d: iter=    25 ; resid.=  1.68845671694872E-02
(PID.TID 0000.0001)  cg2d: iter=    26 ; resid.=  1.45566513087318E-02
(PID.TID 0000.0001)  cg2d: iter=    27 ; resid.=  1.20996304397972E-02
(PID.TID 0000.0001)  cg2d: iter=    28 ; resid.=  1.07304607305326E-02
(PID.TID 0000.0001)  cg2d: iter=    29 ; resid.=  9.46429570050066E-03
(PID.TID 0000.0001)  cg2d: iter=    30 ; resid.=  8.40911348295205E-03
(PID.TID 0000.0001)  cg2d: iter=    31 ; resid.=  7.00857156187622E-03
(PID.TID 0000.0001)  cg2d: iter=    32 ; resid.=  5.41185219948126E-03
(PID.TID 0000.0001)  cg2d: iter=    33 ; resid.=  4.74649540921997E-03
(PID.TID 0000.0001)  cg2d: iter=    34 ; resid.=  4.43003019900145E-03
(PID.TID 0000.0001)  cg2d: iter=    35 ; resid.=  3.43434927644162E-03
(PID.TID 0000.0001)  cg2d: iter=    36 ; resid.=  2.98688237773075E-03
(PID.TID 0000.0001)  cg2d: iter=    37 ; resid.=  2.61555817243902E-03
(PID.TID 0000.0001)  cg2d: iter=    38 ; resid.=  2.22819634864020E-03
(PID.TID 0000.0001)  cg2d: iter=    39 ; resid.=  1.81484600473513E-03
(PID.TID 0000.0001)  cg2d: iter=    40 ; resid.=  1.57175919028818E-03
(PID.TID 0000.0001)  cg2d: iter=    41 ; resid.=  1.18490487270564E-03
(PID.TID 0000.0001)  cg2d: iter=    42 ; resid.=  1.08246757489991E-03
(PID.TID 0000.0001)  cg2d: iter=    43 ; resid.=  8.69176819311597E-04
(PID.TID 0000.0001)  cg2d: iter=    44 ; resid.=  7.02257863131509E-04
(PID.TID 0000.0001)  cg2d: iter=    45 ; resid.=  5.71108937276568E-04
(PID.TID 0000.0001)  cg2d: iter=    46 ; resid.=  4.52494516580491E-04
(PID.TID 0000.0001)  cg2d: iter=    47 ; resid.=  3.46634226381873E-04
(PID.TID 0000.0001)  cg2d: iter=    48 ; resid.=  2.75747051054123E-04
(PID.TID 0000.0001)  cg2d: iter=    49 ; resid.=  2.37891277255892E-04
(PID.TID 0000.0001)  cg2d: iter=    50 ; resid.=  1.94301166151547E-04
(PID.TID 0000.0001)  cg2d: iter=    51 ; resid.=  1.83432373787946E-04
(PID.TID 0000.0001)  cg2d: iter=    52 ; resid.=  1.71130289079714E-04
(PID.TID 0000.0001)  cg2d: iter=    53 ; resid.=  1.43850057951674E-04
(PID.TID 0000.0001)  cg2d: iter=    54 ; resid.=  1.12590748974477E-04
(PID.TID 0000.0001)  cg2d: iter=    55 ; resid.=  9.00944674902088E-05
(PID.TID 0000.0001)  cg2d: iter=    56 ; resid.=  7.00605129574626E-05
(PID.TID 0000.0001)  cg2d: iter=    57 ; resid.=  5.41831273622071E-05
(PID.TID 0000.0001)  cg2d: iter=    58 ; resid.=  4.32116283405643E-05
(PID.TID 0000.0001)  cg2d: iter=    59 ; resid.=  3.49687432653067E-05
(PID.TID 0000.0001)  cg2d: iter=    60 ; resid.=  2.67388730213924E-05
(PID.TID 0000.0001)  cg2d: iter=    61 ; resid.=  2.29807460887370E-05
(PID.TID 0000.0001)  cg2d: iter=    62 ; resid.=  1.88020493957275E-05
(PID.TID 0000.0001)  cg2d: iter=    63 ; resid.=  1.76220557188146E-05
(PID.TID 0000.0001)  cg2d: iter=    64 ; resid.=  1.65368397387299E-05
(PID.TID 0000.0001)  cg2d: iter=    65 ; resid.=  1.34424101786215E-05
(PID.TID 0000.0001)  cg2d: iter=    66 ; resid.=  1.07162996964729E-05
(PID.TID 0000.0001)  cg2d: iter=    67 ; resid.=  9.18430975803209E-06
(PID.TID 0000.0001)  cg2d: iter=    68 ; resid.=  7.71338407094941E-06
(PID.TID 0000.0001)  cg2d: iter=    69 ; resid.=  5.97449939638559E-06
(PID.TID 0000.0001)  cg2d: iter=    70 ; resid.=  5.21899729593900E-06
(PID.TID 0000.0001)  cg2d: iter=    71 ; resid.=  4.40926984918440E-06
(PID.TID 0000.0001)  cg2d: iter=    72 ; resid.=  3.61190232941511E-06
(PID.TID 0000.0001)  cg2d: iter=    73 ; resid.=  2.83095709354005E-06
(PID.TID 0000.0001)  cg2d: iter=    74 ; resid.=  2.14722246981946E-06
(PID.TID 0000.0001)  cg2d: iter=    75 ; resid.=  1.66193565692428E-06
(PID.TID 0000.0001)  cg2d: iter=    76 ; resid.=  1.30688568344053E-06
(PID.TID 0000.0001)  cg2d: iter=    77 ; resid.=  1.07988616361153E-06
(PID.TID 0000.0001)  cg2d: iter=    78 ; resid.=  9.18844933092212E-07
(PID.TID 0000.0001)  cg2d: iter=    79 ; resid.=  7.66968004273113E-07
(PID.TID 0000.0001)  cg2d: iter=    80 ; resid.=  6.57473076354458E-07
(PID.TID 0000.0001)  cg2d: iter=    81 ; resid.=  5.29681457337591E-07
(PID.TID 0000.0001)  cg2d: iter=    82 ; resid.=  3.60866081510279E-07
(PID.TID 0000.0001)  cg2d: iter=    83 ; resid.=  2.98953459702323E-07
(PID.TID 0000.0001)  cg2d: iter=    84 ; resid.=  2.49474653853800E-07
(PID.TID 0000.0001)  cg2d: iter=    85 ; resid.=  2.07631299452499E-07
(PID.TID 0000.0001)  cg2d: iter=    86 ; resid.=  1.75201810804823E-07
(PID.TID 0000.0001)  cg2d: iter=    87 ; resid.=  1.31520000759733E-07
(PID.TID 0000.0001)  cg2d: iter=    88 ; resid.=  1.04896840458499E-07
(PID.TID 0000.0001)  cg2d: iter=    89 ; resid.=  9.11616158748260E-08
(PID.TID 0000.0001)  cg2d: iter=    90 ; resid.=  7.18940757098732E-08
(PID.TID 0000.0001)  cg2d: iter=    91 ; resid.=  5.30236474498093E-08
(PID.TID 0000.0001)  cg2d: iter=    92 ; resid.=  3.62407146416920E-08
(PID.TID 0000.0001)  cg2d: iter=    93 ; resid.=  2.82641993504255E-08
(PID.TID 0000.0001)  cg2d: iter=    94 ; resid.=  2.19047713454562E-08
(PID.TID 0000.0001)  cg2d: iter=    95 ; resid.=  1.64098303968699E-08
(PID.TID 0000.0001)  cg2d: iter=    96 ; resid.=  1.21249201426667E-08
(PID.TID 0000.0001)  cg2d: iter=    97 ; resid.=  9.51215568321203E-09
(PID.TID 0000.0001)  cg2d: iter=    98 ; resid.=  7.48239100059847E-09
(PID.TID 0000.0001)  cg2d: iter=    99 ; resid.=  5.84018722641826E-09
(PID.TID 0000.0001)  cg2d: iter=   100 ; resid.=  4.68657474730830E-09
(PID.TID 0000.0001)  cg2d: iter=   101 ; resid.=  3.48768197641791E-09
(PID.TID 0000.0001)  cg2d: iter=   102 ; resid.=  2.98053967511101E-09
(PID.TID 0000.0001)  cg2d: iter=   103 ; resid.=  2.40647051004036E-09
(PID.TID 0000.0001)  cg2d: iter=   104 ; resid.=  2.13285123302453E-09
(PID.TID 0000.0001)  cg2d: iter=   105 ; resid.=  1.92471169527859E-09
(PID.TID 0000.0001)  cg2d: iter=   106 ; resid.=  1.65056856290534E-09
(PID.TID 0000.0001)  cg2d: iter=   107 ; resid.=  1.36882044077847E-09
(PID.TID 0000.0001)  cg2d: iter=   108 ; resid.=  1.06012432191700E-09
(PID.TID 0000.0001)  cg2d: iter=   109 ; resid.=  8.60178148396491E-10
(PID.TID 0000.0001)  cg2d: iter=   110 ; resid.=  6.64498629378990E-10
(PID.TID 0000.0001)  cg2d: iter=   111 ; resid.=  4.89184425571731E-10
(PID.TID 0000.0001)  cg2d: iter=   112 ; resid.=  3.39887601292444E-10
(PID.TID 0000.0001)  cg2d: iter=   113 ; resid.=  2.71861760940850E-10
(PID.TID 0000.0001)  cg2d: iter=   114 ; resid.=  2.04894304348741E-10
(PID.TID 0000.0001)  cg2d: iter=   115 ; resid.=  1.52716333711675E-10
(PID.TID 0000.0001)  cg2d: iter=   116 ; resid.=  1.14445735925622E-10
(PID.TID 0000.0001)  cg2d: iter=   117 ; resid.=  8.66428243867803E-11
(PID.TID 0000.0001)  cg2d: iter=   118 ; resid.=  6.90352820068914E-11
(PID.TID 0000.0001)  cg2d: iter=   119 ; resid.=  5.41729643076670E-11
(PID.TID 0000.0001)  cg2d: iter=   120 ; resid.=  4.29364680422139E-11
(PID.TID 0000.0001)  cg2d: iter=   121 ; resid.=  3.44198325095638E-11
(PID.TID 0000.0001)  cg2d: iter=   122 ; resid.=  2.78665374340650E-11
(PID.TID 0000.0001)  cg2d: iter=   123 ; resid.=  2.04135472550723E-11
(PID.TID 0000.0001)  cg2d: iter=   124 ; resid.=  1.49392550021675E-11
(PID.TID 0000.0001)  cg2d: iter=   125 ; resid.=  1.08365638216295E-11
(PID.TID 0000.0001)  cg2d: iter=   126 ; resid.=  7.81414784782390E-12
(PID.TID 0000.0001)  cg2d: iter=   127 ; resid.=  5.35746319498169E-12
(PID.TID 0000.0001)  cg2d: iter=   128 ; resid.=  3.90345892774490E-12
(PID.TID 0000.0001)  cg2d: iter=   129 ; resid.=  2.98633120392122E-12
(PID.TID 0000.0001)  cg2d: iter=   130 ; resid.=  2.11184651943200E-12
(PID.TID 0000.0001)  cg2d: iter=   131 ; resid.=  1.64275037706991E-12
(PID.TID 0000.0001)  cg2d: iter=   132 ; resid.=  1.31103403575531E-12
(PID.TID 0000.0001)  cg2d: iter=   133 ; resid.=  1.13773428592690E-12
(PID.TID 0000.0001)  cg2d: iter=   134 ; resid.=  9.28580349909195E-13
(PID.TID 0000.0001)  cg2d: iter=   135 ; resid.=  6.55475211676083E-13
(PID.TID 0000.0001)  cg2d: iter=   136 ; resid.=  4.69089129913056E-13
(PID.TID 0000.0001)  cg2d: iter=   137 ; resid.=  3.35964131608894E-13
(PID.TID 0000.0001)  cg2d: iter=   138 ; resid.=  2.45102562309637E-13
(PID.TID 0000.0001)  cg2d: iter=   139 ; resid.=  1.80835730120514E-13
(PID.TID 0000.0001)  cg2d: iter=   140 ; resid.=  1.25510630203756E-13
(PID.TID 0000.0001)  cg2d: iter=   141 ; resid.=  9.63913632335427E-14
DEBUG_STATS_RL:    cg2d_x (SOLVE_FOR_PRESSURE)  min= -1.40179869536643E+01
DEBUG_STATS_RL:    cg2d_x (SOLVE_FOR_PRESSURE)  max=  3.61159096902125E+01
DEBUG_STATS_RL:    cg2d_x (SOLVE_FOR_PRESSURE) mean= -2.88285665730909E-01
DEBUG_STATS_RL:    cg2d_x (SOLVE_FOR_PRESSURE) S.D.=  8.18723765621492E+00
(PID.TID 0000.0001)      cg2d_init_res =   1.18866833632975E+00
(PID.TID 0000.0001)      cg2d_iters(min,last) =      -1     141
(PID.TID 0000.0001)      cg2d_last_res =   9.63913632335427E-14
(PID.TID 0000.0001) // =======================================================
(PID.TID 0000.0001) // Begin MONITOR dynamic field statistics
(PID.TID 0000.0001) // =======================================================
(PID.TID 0000.0001) %MON time_tsnumber                =                     7
(PID.TID 0000.0001) %MON time_secondsf                =   6.0480000000000E+05
(PID.TID 0000.0001) %MON dynstat_eta_max              =   3.6815402334569E+00
(PID.TID 0000.0001) %MON dynstat_eta_min              =  -1.4289487210667E+00
(PID.TID 0000.0001) %MON dynstat_eta_mean             =  -4.7080902545963E-04
(PID.TID 0000.0001) %MON dynstat_eta_sd               =   8.8114101266632E-01
(PID.TID 0000.0001) %MON dynstat_eta_del2             =   2.6496730465901E-03
(PID.TID 0000.0001) %MON dynstat_uvel_max             =   1.4524754952777E-01
(PID.TID 0000.0001) %MON dynstat_uvel_min             =  -1.2535427899971E-01
(PID.TID 0000.0001) %MON dynstat_uvel_mean            =   4.7522298334050E-03
(PID.TID 0000.0001) %MON dynstat_uvel_sd              =   1.2056278017234E-02
(PID.TID 0000.0001) %MON dynstat_uvel_del2            =   8.7009826261851E-05
(PID.TID 0000.0001) %MON dynstat_vvel_max             =   1.0911005660346E-01
(PID.TID 0000.0001) %MON dynstat_vvel_min             =  -1.1016845547750E-01
(PID.TID 0000.0001) %MON dynstat_vvel_mean            =  -1.7285566249883E-03
(PID.TID 0000.0001) %MON dynstat_vvel_sd              =   1.1803252369380E-02
(PID.TID 0000.0001) %MON dynstat_vvel_del2            =   1.1134692252422E-04
(PID.TID 0000.0001) %MON dynstat_wvel_max             =   2.5899274231834E-04
(PID.TID 0000.0001) %MON dynstat_wvel_min             =  -1.8418803389627E-04
(PID.TID 0000.0001) %MON dynstat_wvel_mean            =   3.4651526178602E-22
(PID.TID 0000.0001) %MON dynstat_wvel_sd              =   2.6090524378787E-05
(PID.TID 0000.0001) %MON dynstat_wvel_del2            =   3.3363150396781E-07
(PID.TID 0000.0001) %MON dynstat_theta_max            =   2.9898291156693E+01
(PID.TID 0000.0001) %MON dynstat_theta_min            =  -1.9148547962464E+00
(PID.TID 0000.0001) %MON dynstat_theta_mean           =   3.6399592463329E+00
(PID.TID 0000.0001) %MON dynstat_theta_sd             =   4.4169786281171E+00
(PID.TID 0000.0001) %MON dynstat_theta_del2           =   5.2753978806185E-03
(PID.TID 0000.0001) %MON dynstat_salt_max             =   3.7454205493675E+01
(PID.TID 0000.0001) %MON dynstat_salt_min             =   2.9803914174719E+01
(PID.TID 0000.0001) %MON dynstat_salt_mean            =   3.4738015602393E+01
(PID.TID 0000.0001) %MON dynstat_salt_sd              =   2.9618650273090E-01
(PID.TID 0000.0001) %MON dynstat_salt_del2            =   1.0124540460750E-03
(PID.TID 0000.0001) %MON dynstat_sst_max              =   2.9898291156693E+01
(PID.TID 0000.0001) %MON dynstat_sst_min              =  -1.9148547962464E+00
(PID.TID 0000.0001) %MON dynstat_sst_mean             =   1.8588038394032E+01
(PID.TID 0000.0001) %MON dynstat_sst_sd               =   9.1198352778680E+00
(PID.TID 0000.0001) %MON dynstat_sst_del2             =   2.6305684051745E-02
(PID.TID 0000.0001) %MON dynstat_sss_max              =   3.7454150647906E+01
(PID.TID 0000.0001) %MON dynstat_sss_min              =   2.9803914174719E+01
(PID.TID 0000.0001) %MON dynstat_sss_mean             =   3.4872695734843E+01
(PID.TID 0000.0001) %MON dynstat_sss_sd               =   9.6629497677171E-01
(PID.TID 0000.0001) %MON dynstat_sss_del2             =   8.0156919821666E-03
(PID.TID 0000.0001) %MON forcing_qnet_max             =   4.3217993164062E+02
(PID.TID 0000.0001) %MON forcing_qnet_min             =  -1.8422400970459E+02
(PID.TID 0000.0001) %MON forcing_qnet_mean            =  -1.6625133603451E+01
(PID.TID 0000.0001) %MON forcing_qnet_sd              =   1.1159198929743E+02
(PID.TID 0000.0001) %MON forcing_qnet_del2            =   9.9967143614056E-01
(PID.TID 0000.0001) %MON forcing_qsw_max              =   0.0000000000000E+00
(PID.TID 0000.0001) %MON forcing_qsw_min              =   0.0000000000000E+00
(PID.TID 0000.0001) %MON forcing_qsw_mean             =   0.0000000000000E+00
(PID.TID 0000.0001) %MON forcing_qsw_sd               =   0.0000000000000E+00
(PID.TID 0000.0001) %MON forcing_qsw_del2             =   0.0000000000000E+00
(PID.TID 0000.0001) %MON forcing_empmr_max            =   8.1887607450426E-05
(PID.TID 0000.0001) %MON forcing_empmr_min            =  -7.2590404442963E-05
(PID.TID 0000.0001) %MON forcing_empmr_mean           =   8.3500924240108E-07
(PID.TID 0000.0001) %MON forcing_empmr_sd             =   2.8083907977094E-05
(PID.TID 0000.0001) %MON forcing_empmr_del2           =   3.6258320756835E-07
(PID.TID 0000.0001) %MON forcing_fu_max               =   2.6977391839027E-01
(PID.TID 0000.0001) %MON forcing_fu_min               =  -1.6355978995562E-01
(PID.TID 0000.0001) %MON forcing_fu_mean              =   1.6070970541901E-02
(PID.TID 0000.0001) %MON forcing_fu_sd                =   9.0225339362360E-02
(PID.TID 0000.0001) %MON forcing_fu_del2              =   6.6893050433667E-04
(PID.TID 0000.0001) %MON forcing_fv_max               =   2.1620217412710E-01
(PID.TID 0000.0001) %MON forcing_fv_min               =  -1.8339881747961E-01
(PID.TID 0000.0001) %MON forcing_fv_mean              =  -5.9227604812523E-03
(PID.TID 0000.0001) %MON forcing_fv_sd                =   4.6005326854092E-02
(PID.TID 0000.0001) %MON forcing_fv_del2              =   4.5373726950670E-04
(PID.TID 0000.0001) %MON trAdv_CFL_u_max              =   5.1305888338102E-02
(PID.TID 0000.0001) %MON trAdv_CFL_v_max              =   2.6539332037296E-02
(PID.TID 0000.0001) %MON trAdv_CFL_w_max              =   7.9239733359296E-02
(PID.TID 0000.0001) %MON advcfl_uvel_max              =   5.3113272064764E-02
(PID.TID 0000.0001) %MON advcfl_vvel_max              =   2.1403964009679E-02
(PID.TID 0000.0001) %MON advcfl_wvel_max              =   8.2589976921212E-02
(PID.TID 0000.0001) %MON advcfl_W_hf_max              =   9.3457079147687E-02
(PID.TID 0000.0001) %MON pe_b_mean                    =   9.9350980151240E-04
(PID.TID 0000.0001) %MON ke_max                       =   1.0623658681124E-02
(PID.TID 0000.0001) %MON ke_mean                      =   1.4018336739433E-04
(PID.TID 0000.0001) %MON ke_vol                       =   1.3226782436723E+18
(PID.TID 0000.0001) %MON vort_r_min                   =  -7.1831008442485E-07
(PID.TID 0000.0001) %MON vort_r_max                   =   7.3112257758846E-07
(PID.TID 0000.0001) %MON vort_a_mean                  =  -2.5274807069687E-05
(PID.TID 0000.0001) %MON vort_a_sd                    =   7.3605375965517E-05
(PID.TID 0000.0001) %MON vort_p_mean                  =  -3.1845655386498E-05
(PID.TID 0000.0001) %MON vort_p_sd                    =   1.3162360383569E-04
(PID.TID 0000.0001) %MON surfExpan_theta_mean         =   2.3335593346959E-06
(PID.TID 0000.0001) %MON surfExpan_salt_mean          =   6.3866778189947E-08
(PID.TID 0000.0001) // =======================================================
(PID.TID 0000.0001) // End MONITOR dynamic field statistics
(PID.TID 0000.0001) // =======================================================
 EXTERNAL_FIELDS_LOAD,         7 : iP,iLd,i0,i1=   12    1   12    1 ; Wght=  0.2666666667  0.7333333333
 EXTERNAL_FIELDS_LOAD: (fu0,1),fu,fv= -4.5368E-02 -3.5633E-02 -3.8229E-02 -6.0721E-02
 EXTERNAL_FIELDS_LOAD: SST,SSS,Q,E-P=  4.7561E-01  3.4527E+01  2.6541E+02  1.1213E-05
DEBUG_STATS_RL:          Uvel (THERMODYNAMICS)  min= -1.25354278999709E-01
DEBUG_STATS_RL:          Uvel (THERMODYNAMICS)  max=  1.45247549527772E-01
DEBUG_STATS_RL:          Uvel (THERMODYNAMICS) mean=  7.83153664452902E-03
DEBUG_STATS_RL:          Uvel (THERMODYNAMICS) S.D.=  1.85246889859653E-02
DEBUG_STATS_RL:          Vvel (THERMODYNAMICS)  min= -1.10168455477503E-01
DEBUG_STATS_RL:          Vvel (THERMODYNAMICS)  max=  1.09110056603460E-01
DEBUG_STATS_RL:          Vvel (THERMODYNAMICS) mean= -3.35272939666868E-03
DEBUG_STATS_RL:          Vvel (THERMODYNAMICS) S.D.=  1.65504384202372E-02
DEBUG_STATS_RL:          Wvel (THERMODYNAMICS)  min= -1.84188033896272E-04
DEBUG_STATS_RL:          Wvel (THERMODYNAMICS)  max=  2.58992742318335E-04
DEBUG_STATS_RL:          Wvel (THERMODYNAMICS) mean= -7.09467383165600E-07
DEBUG_STATS_RL:          Wvel (THERMODYNAMICS) S.D.=  2.45416937777777E-05
DEBUG_STATS_RL:         Theta (THERMODYNAMICS)  min= -1.91682179236739E+00
DEBUG_STATS_RL:         Theta (THERMODYNAMICS)  max=  2.98993566458692E+01
DEBUG_STATS_RL:         Theta (THERMODYNAMICS) mean=  3.22230807406313E+00
DEBUG_STATS_RL:         Theta (THERMODYNAMICS) S.D.=  5.85145666815832E+00
DEBUG_STATS_RL:          Salt (THERMODYNAMICS)  min=  2.00000000000000E-02
DEBUG_STATS_RL:          Salt (THERMODYNAMICS)  max=  3.74557999817848E+01
DEBUG_STATS_RL:          Salt (THERMODYNAMICS) mean=  1.88652064633052E+01
DEBUG_STATS_RL:          Salt (THERMODYNAMICS) S.D.=  1.73006737986846E+01
DEBUG_STATS_RL:         GtNm1 (THERMODYNAMICS)  min= -3.78133932324929E-06
DEBUG_STATS_RL:         GtNm1 (THERMODYNAMICS)  max=  2.63733064346435E-06
DEBUG_STATS_RL:         GtNm1 (THERMODYNAMICS) mean=  2.22391512860695E-08
DEBUG_STATS_RL:         GtNm1 (THERMODYNAMICS) S.D.=  2.74239273169457E-07
DEBUG_STATS_RL:         GsNm1 (THERMODYNAMICS)  min= -6.19262889556395E-07
DEBUG_STATS_RL:         GsNm1 (THERMODYNAMICS)  max=  4.83807295340537E-07
DEBUG_STATS_RL:         GsNm1 (THERMODYNAMICS) mean= -1.29278899918623E-11
DEBUG_STATS_RL:         GsNm1 (THERMODYNAMICS) S.D.=  2.25545477415664E-08
DEBUG_STATS_RL:                EtaN (DYNAMICS)  min= -1.42894872106671E+00
DEBUG_STATS_RL:                EtaN (DYNAMICS)  max=  3.68154023345692E+00
DEBUG_STATS_RL:                EtaN (DYNAMICS) mean= -2.93869180153842E-02
DEBUG_STATS_RL:                EtaN (DYNAMICS) S.D.=  8.34580800837407E-01
DEBUG_STATS_RL:                Uvel (DYNAMICS)  min= -1.25354278999709E-01
DEBUG_STATS_RL:                Uvel (DYNAMICS)  max=  1.45247549527772E-01
DEBUG_STATS_RL:                Uvel (DYNAMICS) mean=  7.83153664452902E-03
DEBUG_STATS_RL:                Uvel (DYNAMICS) S.D.=  1.85246889859653E-02
DEBUG_STATS_RL:                Vvel (DYNAMICS)  min= -1.10168455477503E-01
DEBUG_STATS_RL:                Vvel (DYNAMICS)  max=  1.09110056603460E-01
DEBUG_STATS_RL:                Vvel (DYNAMICS) mean= -3.35272939666868E-03
DEBUG_STATS_RL:                Vvel (DYNAMICS) S.D.=  1.65504384202372E-02
DEBUG_STATS_RL:                Wvel (DYNAMICS)  min= -1.84188033896272E-04
DEBUG_STATS_RL:                Wvel (DYNAMICS)  max=  2.58992742318335E-04
DEBUG_STATS_RL:                Wvel (DYNAMICS) mean= -7.09467383165600E-07
DEBUG_STATS_RL:                Wvel (DYNAMICS) S.D.=  2.45416937777777E-05
DEBUG_STATS_RL:               Theta (DYNAMICS)  min= -1.91682179236739E+00
DEBUG_STATS_RL:               Theta (DYNAMICS)  max=  2.98993566458692E+01
DEBUG_STATS_RL:               Theta (DYNAMICS) mean=  3.22230807406313E+00
DEBUG_STATS_RL:               Theta (DYNAMICS) S.D.=  5.85145666815832E+00
DEBUG_STATS_RL:                Salt (DYNAMICS)  min=  2.00000000000000E-02
DEBUG_STATS_RL:                Salt (DYNAMICS)  max=  3.74557999817848E+01
DEBUG_STATS_RL:                Salt (DYNAMICS) mean=  1.88652064633052E+01
DEBUG_STATS_RL:                Salt (DYNAMICS) S.D.=  1.73006737986846E+01
DEBUG_STATS_RL:                  Gu (DYNAMICS)  min= -1.28218928628036E-01
DEBUG_STATS_RL:                  Gu (DYNAMICS)  max=  1.47949634534141E-01
DEBUG_STATS_RL:                  Gu (DYNAMICS) mean=  5.94161456661813E-03
DEBUG_STATS_RL:                  Gu (DYNAMICS) S.D.=  2.01307020934636E-02
DEBUG_STATS_RL:                  Gv (DYNAMICS)  min= -9.51570481522324E-02
DEBUG_STATS_RL:                  Gv (DYNAMICS)  max=  1.10877643866651E-01
DEBUG_STATS_RL:                  Gv (DYNAMICS) mean= -2.34744488306467E-03
DEBUG_STATS_RL:                  Gv (DYNAMICS) S.D.=  1.62805398836223E-02
DEBUG_STATS_RL:               GuNm1 (DYNAMICS)  min= -7.46584349280038E-06
DEBUG_STATS_RL:               GuNm1 (DYNAMICS)  max=  7.61102551991550E-06
DEBUG_STATS_RL:               GuNm1 (DYNAMICS) mean= -3.98473306962673E-08
DEBUG_STATS_RL:               GuNm1 (DYNAMICS) S.D.=  1.22497869283554E-06
DEBUG_STATS_RL:               GvNm1 (DYNAMICS)  min= -1.03390293864077E-05
DEBUG_STATS_RL:               GvNm1 (DYNAMICS)  max=  1.63345850083402E-05
DEBUG_STATS_RL:               GvNm1 (DYNAMICS) mean=  7.83106252868705E-07
DEBUG_STATS_RL:               GvNm1 (DYNAMICS) S.D.=  2.71548658247194E-06
DEBUG_STATS_RL:               GtNm1 (DYNAMICS)  min= -3.78133932324929E-06
DEBUG_STATS_RL:               GtNm1 (DYNAMICS)  max=  2.63733064346435E-06
DEBUG_STATS_RL:               GtNm1 (DYNAMICS) mean=  2.22391512860695E-08
DEBUG_STATS_RL:               GtNm1 (DYNAMICS) S.D.=  2.74239273169457E-07
DEBUG_STATS_RL:               GsNm1 (DYNAMICS)  min= -6.19262889556395E-07
DEBUG_STATS_RL:               GsNm1 (DYNAMICS)  max=  4.83807295340537E-07
DEBUG_STATS_RL:               GsNm1 (DYNAMICS) mean= -1.29278899918623E-11
DEBUG_STATS_RL:               GsNm1 (DYNAMICS) S.D.=  2.25545477415664E-08
DEBUG_STATS_RL:    cg2d_b (SOLVE_FOR_PRESSURE)  min= -2.24305281985042E+04
DEBUG_STATS_RL:    cg2d_b (SOLVE_FOR_PRESSURE)  max=  1.57398574083917E+04
DEBUG_STATS_RL:    cg2d_b (SOLVE_FOR_PRESSURE) mean=  5.18825145573029E-01
DEBUG_STATS_RL:    cg2d_b (SOLVE_FOR_PRESSURE) S.D.=  4.09796016869376E+03
 cg2d: Sum(rhs),rhsMax =   5.35466753779702E-02  1.47329714815068E+00
(PID.TID 0000.0001)  cg2d: iter=     1 ; resid.=  1.03455921934886E+00
(PID.TID 0000.0001)  cg2d: iter=     2 ; resid.=  1.05023686387129E+00
(PID.TID 0000.0001)  cg2d: iter=     3 ; resid.=  1.00844480530480E+00
(PID.TID 0000.0001)  cg2d: iter=     4 ; resid.=  8.20719713821181E-01
(PID.TID 0000.0001)  cg2d: iter=     5 ; resid.=  7.64682482329264E-01
(PID.TID 0000.0001)  cg2d: iter=     6 ; resid.=  5.97641613911412E-01
(PID.TID 0000.0001)  cg2d: iter=     7 ; resid.=  4.37770648588409E-01
(PID.TID 0000.0001)  cg2d: iter=     8 ; resid.=  3.39858037085050E-01
(PID.TID 0000.0001)  cg2d: iter=     9 ; resid.=  3.07631208981950E-01
(PID.TID 0000.0001)  cg2d: iter=    10 ; resid.=  2.86617188654876E-01
(PID.TID 0000.0001)  cg2d: iter=    11 ; resid.=  2.49785819446510E-01
(PID.TID 0000.0001)  cg2d: iter=    12 ; resid.=  2.19337111765726E-01
(PID.TID 0000.0001)  cg2d: iter=    13 ; resid.=  1.83736533473781E-01
(PID.TID 0000.0001)  cg2d: iter=    14 ; resid.=  1.59051862822270E-01
(PID.TID 0000.0001)  cg2d: iter=    15 ; resid.=  1.38977688328360E-01
(PID.TID 0000.0001)  cg2d: iter=    16 ; resid.=  1.37245913131123E-01
(PID.TID 0000.0001)  cg2d: iter=    17 ; resid.=  1.07486317438545E-01
(PID.TID 0000.0001)  cg2d: iter=    18 ; resid.=  8.11201940827089E-02
(PID.TID 0000.0001)  cg2d: iter=    19 ; resid.=  5.68988437272723E-02
(PID.TID 0000.0001)  cg2d: iter=    20 ; resid.=  4.43721179328148E-02
(PID.TID 0000.0001)  cg2d: iter=    21 ; resid.=  3.48287300395556E-02
(PID.TID 0000.0001)  cg2d: iter=    22 ; resid.=  2.83124275142641E-02
(PID.TID 0000.0001)  cg2d: iter=    23 ; resid.=  2.03115000307033E-02
(PID.TID 0000.0001)  cg2d: iter=    24 ; resid.=  1.65534941017905E-02
(PID.TID 0000.0001)  cg2d: iter=    25 ; resid.=  1.26881818682924E-02
(PID.TID 0000.0001)  cg2d: iter=    26 ; resid.=  1.12172243274405E-02
(PID.TID 0000.0001)  cg2d: iter=    27 ; resid.=  9.58471525944427E-03
(PID.TID 0000.0001)  cg2d: iter=    28 ; resid.=  8.53007093096452E-03
(PID.TID 0000.0001)  cg2d: iter=    29 ; resid.=  7.58975661641900E-03
(PID.TID 0000.0001)  cg2d: iter=    30 ; resid.=  7.29736150058339E-03
(PID.TID 0000.0001)  cg2d: iter=    31 ; resid.=  6.65059546882748E-03
(PID.TID 0000.0001)  cg2d: iter=    32 ; resid.=  5.54144922643538E-03
(PID.TID 0000.0001)  cg2d: iter=    33 ; resid.=  4.79189229839574E-03
(PID.TID 0000.0001)  cg2d: iter=    34 ; resid.=  3.86419894230797E-03
(PID.TID 0000.0001)  cg2d: iter=    35 ; resid.=  2.85849103735664E-03
(PID.TID 0000.0001)  cg2d: iter=    36 ; resid.=  2.28582154578840E-03
(PID.TID 0000.0001)  cg2d: iter=    37 ; resid.=  1.85723312534494E-03
(PID.TID 0000.0001)  cg2d: iter=    38 ; resid.=  1.49407813249959E-03
(PID.TID 0000.0001)  cg2d: iter=    39 ; resid.=  1.17262241963775E-03
(PID.TID 0000.0001)  cg2d: iter=    40 ; resid.=  1.04055765330197E-03
(PID.TID 0000.0001)  cg2d: iter=    41 ; resid.=  7.98680964205242E-04
(PID.TID 0000.0001)  cg2d: iter=    42 ; resid.=  7.49788973497039E-04
(PID.TID 0000.0001)  cg2d: iter=    43 ; resid.=  6.45887916643989E-04
(PID.TID 0000.0001)  cg2d: iter=    44 ; resid.=  5.74592098445438E-04
(PID.TID 0000.0001)  cg2d: iter=    45 ; resid.=  5.00039897227248E-04
(PID.TID 0000.0001)  cg2d: iter=    46 ; resid.=  4.27327509816201E-04
(PID.TID 0000.0001)  cg2d: iter=    47 ; resid.=  3.48780056979000E-04
(PID.TID 0000.0001)  cg2d: iter=    48 ; resid.=  2.69905548817660E-04
(PID.TID 0000.0001)  cg2d: iter=    49 ; resid.=  2.18172786816691E-04
(PID.TID 0000.0001)  cg2d: iter=    50 ; resid.=  1.76109726083169E-04
(PID.TID 0000.0001)  cg2d: iter=    51 ; resid.=  1.55731953798553E-04
(PID.TID 0000.0001)  cg2d: iter=    52 ; resid.=  1.27173617398763E-04
(PID.TID 0000.0001)  cg2d: iter=    53 ; resid.=  1.02095869614757E-04
(PID.TID 0000.0001)  cg2d: iter=    54 ; resid.=  8.47679130381986E-05
(PID.TID 0000.0001)  cg2d: iter=    55 ; resid.=  7.22511053302329E-05
(PID.TID 0000.0001)  cg2d: iter=    56 ; resid.=  5.81817178268822E-05
(PID.TID 0000.0001)  cg2d: iter=    57 ; resid.=  4.62690856570522E-05
(PID.TID 0000.0001)  cg2d: iter=    58 ; resid.=  3.67152391664182E-05
(PID.TID 0000.0001)  cg2d: iter=    59 ; resid.=  3.25095557663470E-05
(PID.TID 0000.0001)  cg2d: iter=    60 ; resid.=  2.76234930907457E-05
(PID.TID 0000.0001)  cg2d: iter=    61 ; resid.=  2.42825700007639E-05
(PID.TID 0000.0001)  cg2d: iter=    62 ; resid.=  2.05738155875537E-05
(PID.TID 0000.0001)  cg2d: iter=    63 ; resid.=  1.97014716248287E-05
(PID.TID 0000.0001)  cg2d: iter=    64 ; resid.=  1.82985239198411E-05
(PID.TID 0000.0001)  cg2d: iter=    65 ; resid.=  1.40279229124173E-05
(PID.TID 0000.0001)  cg2d: iter=    66 ; resid.=  1.00583754272518E-05
(PID.TID 0000.0001)  cg2d: iter=    67 ; resid.=  7.46967306707592E-06
(PID.TID 0000.0001)  cg2d: iter=    68 ; resid.=  6.12821016446437E-06
(PID.TID 0000.0001)  cg2d: iter=    69 ; resid.=  4.69493811911101E-06
(PID.TID 0000.0001)  cg2d: iter=    70 ; resid.=  3.60370966033885E-06
(PID.TID 0000.0001)  cg2d: iter=    71 ; resid.=  2.65766748401432E-06
(PID.TID 0000.0001)  cg2d: iter=    72 ; resid.=  2.24042876624947E-06
(PID.TID 0000.0001)  cg2d: iter=    73 ; resid.=  1.91194829274935E-06
(PID.TID 0000.0001)  cg2d: iter=    74 ; resid.=  1.49407399554457E-06
(PID.TID 0000.0001)  cg2d: iter=    75 ; resid.=  1.22300042635428E-06
(PID.TID 0000.0001)  cg2d: iter=    76 ; resid.=  9.13540091391977E-07
(PID.TID 0000.0001)  cg2d: iter=    77 ; resid.=  7.74578366423122E-07
(PID.TID 0000.0001)  cg2d: iter=    78 ; resid.=  6.57249617620059E-07
(PID.TID 0000.0001)  cg2d: iter=    79 ; resid.=  5.10070188348078E-07
(PID.TID 0000.0001)  cg2d: iter=    80 ; resid.=  4.06135201160145E-07
(PID.TID 0000.0001)  cg2d: iter=    81 ; resid.=  3.16627085765356E-07
(PID.TID 0000.0001)  cg2d: iter=    82 ; resid.=  2.27165782784993E-07
(PID.TID 0000.0001)  cg2d: iter=    83 ; resid.=  1.83881619784175E-07
(PID.TID 0000.0001)  cg2d: iter=    84 ; resid.=  1.41866965837799E-07
(PID.TID 0000.0001)  cg2d: iter=    85 ; resid.=  1.12289267459997E-07
(PID.TID 0000.0001)  cg2d: iter=    86 ; resid.=  9.51456822727510E-08
(PID.TID 0000.0001)  cg2d: iter=    87 ; resid.=  7.53290434402475E-08
(PID.TID 0000.0001)  cg2d: iter=    88 ; resid.=  5.77325115719692E-08
(PID.TID 0000.0001)  cg2d: iter=    89 ; resid.=  4.64522680620924E-08
(PID.TID 0000.0001)  cg2d: iter=    90 ; resid.=  3.83606036907962E-08
(PID.TID 0000.0001)  cg2d: iter=    91 ; resid.=  3.30198314749134E-08
(PID.TID 0000.0001)  cg2d: iter=    92 ; resid.=  2.40903653793951E-08
(PID.TID 0000.0001)  cg2d: iter=    93 ; resid.=  1.74614196085848E-08
(PID.TID 0000.0001)  cg2d: iter=    94 ; resid.=  1.32258465365720E-08
(PID.TID 0000.0001)  cg2d: iter=    95 ; resid.=  1.02061236708889E-08
(PID.TID 0000.0001)  cg2d: iter=    96 ; resid.=  7.75163219326979E-09
(PID.TID 0000.0001)  cg2d: iter=    97 ; resid.=  6.44179317210596E-09
(PID.TID 0000.0001)  cg2d: iter=    98 ; resid.=  5.05248184994183E-09
(PID.TID 0000.0001)  cg2d: iter=    99 ; resid.=  3.76756657031935E-09
(PID.TID 0000.0001)  cg2d: iter=   100 ; resid.=  3.02867699515185E-09
(PID.TID 0000.0001)  cg2d: iter=   101 ; resid.=  2.33504821011911E-09
(PID.TID 0000.0001)  cg2d: iter=   102 ; resid.=  2.07532291797887E-09
(PID.TID 0000.0001)  cg2d: iter=   103 ; resid.=  1.60366337324655E-09
(PID.TID 0000.0001)  cg2d: iter=   104 ; resid.=  1.33973293529127E-09
(PID.TID 0000.0001)  cg2d: iter=   105 ; resid.=  1.14397872000385E-09
(PID.TID 0000.0001)  cg2d: iter=   106 ; resid.=  1.02556488858374E-09
(PID.TID 0000.0001)  cg2d: iter=   107 ; resid.=  8.70093620694272E-10
(PID.TID 0000.0001)  cg2d: iter=   108 ; resid.=  6.47404030588837E-10
(PID.TID 0000.0001)  cg2d: iter=   109 ; resid.=  4.99250182488092E-10
(PID.TID 0000.0001)  cg2d: iter=   110 ; resid.=  4.04231491872925E-10
(PID.TID 0000.0001)  cg2d: iter=   111 ; resid.=  3.25016675400989E-10
(PID.TID 0000.0001)  cg2d: iter=   112 ; resid.=  2.37786317561712E-10
(PID.TID 0000.0001)  cg2d: iter=   113 ; resid.=  2.06421462926872E-10
(PID.TID 0000.0001)  cg2d: iter=   114 ; resid.=  1.67486511663976E-10
(PID.TID 0000.0001)  cg2d: iter=   115 ; resid.=  1.31200670290596E-10
(PID.TID 0000.0001)  cg2d: iter=   116 ; resid.=  9.68811995217533E-11
(PID.TID 0000.0001)  cg2d: iter=   117 ; resid.=  7.13710085600996E-11
(PID.TID 0000.0001)  cg2d: iter=   118 ; resid.=  5.56820997281859E-11
(PID.TID 0000.0001)  cg2d: iter=   119 ; resid.=  4.76384828151890E-11
(PID.TID 0000.0001)  cg2d: iter=   120 ; resid.=  4.19903089706185E-11
(PID.TID 0000.0001)  cg2d: iter=   121 ; resid.=  3.34738731715871E-11
(PID.TID 0000.0001)  cg2d: iter=   122 ; resid.=  2.47047745380170E-11
(PID.TID 0000.0001)  cg2d: iter=   123 ; resid.=  1.77330039389466E-11
(PID.TID 0000.0001)  cg2d: iter=   124 ; resid.=  1.28091022349516E-11
(PID.TID 0000.0001)  cg2d: iter=   125 ; resid.=  9.04411611671126E-12
(PID.TID 0000.0001)  cg2d: iter=   126 ; resid.=  6.14026657250725E-12
(PID.TID 0000.0001)  cg2d: iter=   127 ; resid.=  4.24643898200738E-12
(PID.TID 0000.0001)  cg2d: iter=   128 ; resid.=  3.19930149856879E-12
(PID.TID 0000.0001)  cg2d: iter=   129 ; resid.=  2.35264109157457E-12
(PID.TID 0000.0001)  cg2d: iter=   130 ; resid.=  1.80978687257628E-12
(PID.TID 0000.0001)  cg2d: iter=   131 ; resid.=  1.48489869742037E-12
(PID.TID 0000.0001)  cg2d: iter=   132 ; resid.=  1.15195839952678E-12
(PID.TID 0000.0001)  cg2d: iter=   133 ; resid.=  9.40887415576511E-13
(PID.TID 0000.0001)  cg2d: iter=   134 ; resid.=  7.54941906145229E-13
(PID.TID 0000.0001)  cg2d: iter=   135 ; resid.=  5.46466397961584E-13
(PID.TID 0000.0001)  cg2d: iter=   136 ; resid.=  3.99320784924130E-13
(PID.TID 0000.0001)  cg2d: iter=   137 ; resid.=  2.86122439213072E-13
(PID.TID 0000.0001)  cg2d: iter=   138 ; resid.=  2.16782348188861E-13
(PID.TID 0000.0001)  cg2d: iter=   139 ; resid.=  1.77567449548137E-13
(PID.TID 0000.0001)  cg2d: iter=   140 ; resid.=  1.27486266116076E-13
(PID.TID 0000.0001)  cg2d: iter=   141 ; resid.=  9.28876310894391E-14
DEBUG_STATS_RL:    cg2d_x (SOLVE_FOR_PRESSURE)  min= -1.76743330905644E+01
DEBUG_STATS_RL:    cg2d_x (SOLVE_FOR_PRESSURE)  max=  4.49090387891026E+01
DEBUG_STATS_RL:    cg2d_x (SOLVE_FOR_PRESSURE) mean= -7.15136221661925E-01
DEBUG_STATS_RL:    cg2d_x (SOLVE_FOR_PRESSURE) S.D.=  8.07096918723571E+00
(PID.TID 0000.0001)      cg2d_init_res =   1.17199011129923E+00
(PID.TID 0000.0001)      cg2d_iters(min,last) =      -1     141
(PID.TID 0000.0001)      cg2d_last_res =   9.28876310894391E-14
(PID.TID 0000.0001) // =======================================================
(PID.TID 0000.0001) // Begin MONITOR dynamic field statistics
(PID.TID 0000.0001) // =======================================================
(PID.TID 0000.0001) %MON time_tsnumber                =                     8
(PID.TID 0000.0001) %MON time_secondsf                =   6.9120000000000E+05
(PID.TID 0000.0001) %MON dynstat_eta_max              =   4.5778836686139E+00
(PID.TID 0000.0001) %MON dynstat_eta_min              =  -1.8016649429730E+00
(PID.TID 0000.0001) %MON dynstat_eta_mean             =  -5.4132970721096E-04
(PID.TID 0000.0001) %MON dynstat_eta_sd               =   8.5536638130689E-01
(PID.TID 0000.0001) %MON dynstat_eta_del2             =   2.5094775339030E-03
(PID.TID 0000.0001) %MON dynstat_uvel_max             =   1.5031204995995E-01
(PID.TID 0000.0001) %MON dynstat_uvel_min             =  -1.1965425357949E-01
(PID.TID 0000.0001) %MON dynstat_uvel_mean            =   4.6236807221397E-03
(PID.TID 0000.0001) %MON dynstat_uvel_sd              =   1.2675246121045E-02
(PID.TID 0000.0001) %MON dynstat_uvel_del2            =   9.1214828157208E-05
(PID.TID 0000.0001) %MON dynstat_vvel_max             =   1.0048738576341E-01
(PID.TID 0000.0001) %MON dynstat_vvel_min             =  -1.1223241733373E-01
(PID.TID 0000.0001) %MON dynstat_vvel_mean            =  -6.5403814539350E-04
(PID.TID 0000.0001) %MON dynstat_vvel_sd              =   1.1926661785320E-02
(PID.TID 0000.0001) %MON dynstat_vvel_del2            =   1.1290058659232E-04
(PID.TID 0000.0001) %MON dynstat_wvel_max             =   2.3570526837702E-04
(PID.TID 0000.0001) %MON dynstat_wvel_min             =  -2.0514580306113E-04
(PID.TID 0000.0001) %MON dynstat_wvel_mean            =   1.2578608509188E-22
(PID.TID 0000.0001) %MON dynstat_wvel_sd              =   2.5856098861693E-05
(PID.TID 0000.0001) %MON dynstat_wvel_del2            =   3.2304088351380E-07
(PID.TID 0000.0001) %MON dynstat_theta_max            =   2.9899356645869E+01
(PID.TID 0000.0001) %MON dynstat_theta_min            =  -1.9168217923674E+00
(PID.TID 0000.0001) %MON dynstat_theta_mean           =   3.6398430196987E+00
(PID.TID 0000.0001) %MON dynstat_theta_sd             =   4.4165572766299E+00
(PID.TID 0000.0001) %MON dynstat_theta_del2           =   5.2091434992532E-03
(PID.TID 0000.0001) %MON dynstat_salt_max             =   3.7455799981785E+01
(PID.TID 0000.0001) %MON dynstat_salt_min             =   2.9806506392274E+01
(PID.TID 0000.0001) %MON dynstat_salt_mean            =   3.4738009890196E+01
(PID.TID 0000.0001) %MON dynstat_salt_sd              =   2.9617922054496E-01
(PID.TID 0000.0001) %MON dynstat_salt_del2            =   1.0118314736117E-03
(PID.TID 0000.0001) %MON dynstat_sst_max              =   2.9899356645869E+01
(PID.TID 0000.0001) %MON dynstat_sst_min              =  -1.9168217923674E+00
(PID.TID 0000.0001) %MON dynstat_sst_mean             =   1.8599541807401E+01
(PID.TID 0000.0001) %MON dynstat_sst_sd               =   9.1089994340821E+00
(PID.TID 0000.0001) %MON dynstat_sst_del2             =   2.6274922170292E-02
(PID.TID 0000.0001) %MON dynstat_sss_max              =   3.7452693192988E+01
(PID.TID 0000.0001) %MON dynstat_sss_min              =   2.9806506392274E+01
(PID.TID 0000.0001) %MON dynstat_sss_mean             =   3.4873217461475E+01
(PID.TID 0000.0001) %MON dynstat_sss_sd               =   9.6658613027591E-01
(PID.TID 0000.0001) %MON dynstat_sss_del2             =   8.0151970904189E-03
(PID.TID 0000.0001) %MON forcing_qnet_max             =   4.3322811889648E+02
(PID.TID 0000.0001) %MON forcing_qnet_min             =  -1.8375684712728E+02
(PID.TID 0000.0001) %MON forcing_qnet_mean            =  -1.6612621647629E+01
(PID.TID 0000.0001) %MON forcing_qnet_sd              =   1.1139030190430E+02
(PID.TID 0000.0001) %MON forcing_qnet_del2            =   1.0017615545299E+00
(PID.TID 0000.0001) %MON forcing_qsw_max              =   0.0000000000000E+00
(PID.TID 0000.0001) %MON forcing_qsw_min              =   0.0000000000000E+00
(PID.TID 0000.0001) %MON forcing_qsw_mean             =   0.0000000000000E+00
(PID.TID 0000.0001) %MON forcing_qsw_sd               =   0.0000000000000E+00
(PID.TID 0000.0001) %MON forcing_qsw_del2             =   0.0000000000000E+00
(PID.TID 0000.0001) %MON forcing_empmr_max            =   8.1889273909989E-05
(PID.TID 0000.0001) %MON forcing_empmr_min            =  -7.2333472189712E-05
(PID.TID 0000.0001) %MON forcing_empmr_mean           =   8.4477900014659E-07
(PID.TID 0000.0001) %MON forcing_empmr_sd             =   2.8146998273902E-05
(PID.TID 0000.0001) %MON forcing_empmr_del2           =   3.6268469487418E-07
(PID.TID 0000.0001) %MON forcing_fu_max               =   2.6985520720482E-01
(PID.TID 0000.0001) %MON forcing_fu_min               =  -1.6437321007252E-01
(PID.TID 0000.0001) %MON forcing_fu_mean              =   1.6063277720863E-02
(PID.TID 0000.0001) %MON forcing_fu_sd                =   9.0275341241088E-02
(PID.TID 0000.0001) %MON forcing_fu_del2              =   6.7327842425542E-04
(PID.TID 0000.0001) %MON forcing_fv_max               =   2.1808207929134E-01
(PID.TID 0000.0001) %MON forcing_fv_min               =  -1.8281415998936E-01
(PID.TID 0000.0001) %MON forcing_fv_mean              =  -5.8489979543916E-03
(PID.TID 0000.0001) %MON forcing_fv_sd                =   4.6198708258185E-02
(PID.TID 0000.0001) %MON forcing_fv_del2              =   4.5690396795039E-04
(PID.TID 0000.0001) %MON trAdv_CFL_u_max              =   5.3124059750193E-02
(PID.TID 0000.0001) %MON trAdv_CFL_v_max              =   2.1891754357041E-02
(PID.TID 0000.0001) %MON trAdv_CFL_w_max              =   8.9623627863113E-02
(PID.TID 0000.0001) %MON advcfl_uvel_max              =   6.8284052677073E-02
(PID.TID 0000.0001) %MON advcfl_vvel_max              =   2.1804958696376E-02
(PID.TID 0000.0001) %MON advcfl_wvel_max              =   9.8938198301612E-02
(PID.TID 0000.0001) %MON advcfl_W_hf_max              =   1.1660573371261E-01
(PID.TID 0000.0001) %MON pe_b_mean                    =   9.3623684442386E-04
(PID.TID 0000.0001) %MON ke_max                       =   1.1481445054580E-02
(PID.TID 0000.0001) %MON ke_mean                      =   1.4675583417909E-04
(PID.TID 0000.0001) %MON ke_vol                       =   1.3226782436723E+18
(PID.TID 0000.0001) %MON vort_r_min                   =  -7.9145717985999E-07
(PID.TID 0000.0001) %MON vort_r_max                   =   7.6700111945661E-07
(PID.TID 0000.0001) %MON vort_a_mean                  =  -2.5274806493995E-05
(PID.TID 0000.0001) %MON vort_a_sd                    =   7.3605416544325E-05
(PID.TID 0000.0001) %MON vort_p_mean                  =  -3.1845654661139E-05
(PID.TID 0000.0001) %MON vort_p_sd                    =   1.3162339579620E-04
(PID.TID 0000.0001) %MON surfExpan_theta_mean         =   9.5041250840973E-06
(PID.TID 0000.0001) %MON surfExpan_salt_mean          =   3.4292556948967E-07
(PID.TID 0000.0001) // =======================================================
(PID.TID 0000.0001) // End MONITOR dynamic field statistics
(PID.TID 0000.0001) // =======================================================
 EXTERNAL_FIELDS_LOAD,         8 : iP,iLd,i0,i1=   12    1   12    1 ; Wght=  0.2333333333  0.7666666667
 EXTERNAL_FIELDS_LOAD: (fu0,1),fu,fv= -4.5368E-02 -3.5633E-02 -3.7904E-02 -6.0288E-02
 EXTERNAL_FIELDS_LOAD: SST,SSS,Q,E-P=  5.3596E-01  3.4551E+01  2.6546E+02  1.1266E-05
DEBUG_STATS_RL:          Uvel (THERMODYNAMICS)  min= -1.19654253579490E-01
DEBUG_STATS_RL:          Uvel (THERMODYNAMICS)  max=  1.50312049959950E-01
DEBUG_STATS_RL:          Uvel (THERMODYNAMICS) mean=  7.79113241182333E-03
DEBUG_STATS_RL:          Uvel (THERMODYNAMICS) S.D.=  1.97422759698056E-02
DEBUG_STATS_RL:          Vvel (THERMODYNAMICS)  min= -1.12232417333734E-01
DEBUG_STATS_RL:          Vvel (THERMODYNAMICS)  max=  1.00487385763413E-01
DEBUG_STATS_RL:          Vvel (THERMODYNAMICS) mean= -2.27749373955627E-03
DEBUG_STATS_RL:          Vvel (THERMODYNAMICS) S.D.=  1.68052774874681E-02
DEBUG_STATS_RL:          Wvel (THERMODYNAMICS)  min= -2.05145803061133E-04
DEBUG_STATS_RL:          Wvel (THERMODYNAMICS)  max=  2.35705268377019E-04
DEBUG_STATS_RL:          Wvel (THERMODYNAMICS) mean= -9.13767353115532E-07
DEBUG_STATS_RL:          Wvel (THERMODYNAMICS) S.D.=  2.42271831001699E-05
DEBUG_STATS_RL:         Theta (THERMODYNAMICS)  min= -1.93054644035845E+00
DEBUG_STATS_RL:         Theta (THERMODYNAMICS)  max=  2.98941680697511E+01
DEBUG_STATS_RL:         Theta (THERMODYNAMICS) mean=  3.22298244324104E+00
DEBUG_STATS_RL:         Theta (THERMODYNAMICS) S.D.=  5.85134175431796E+00
DEBUG_STATS_RL:          Salt (THERMODYNAMICS)  min=  2.00000000000000E-02
DEBUG_STATS_RL:          Salt (THERMODYNAMICS)  max=  3.74565382224535E+01
DEBUG_STATS_RL:          Salt (THERMODYNAMICS) mean=  1.88651868786308E+01
DEBUG_STATS_RL:          Salt (THERMODYNAMICS) S.D.=  1.73006568684055E+01
DEBUG_STATS_RL:         GtNm1 (THERMODYNAMICS)  min= -3.75350004300334E-06
DEBUG_STATS_RL:         GtNm1 (THERMODYNAMICS)  max=  2.37237133208754E-06
DEBUG_STATS_RL:         GtNm1 (THERMODYNAMICS) mean=  1.81597497244228E-08
DEBUG_STATS_RL:         GtNm1 (THERMODYNAMICS) S.D.=  2.77037400747501E-07
DEBUG_STATS_RL:         GsNm1 (THERMODYNAMICS)  min= -4.75422938807263E-07
DEBUG_STATS_RL:         GsNm1 (THERMODYNAMICS)  max=  4.34205170354262E-07
DEBUG_STATS_RL:         GsNm1 (THERMODYNAMICS) mean= -2.82657314341201E-10
DEBUG_STATS_RL:         GsNm1 (THERMODYNAMICS) S.D.=  2.30468398103859E-08
DEBUG_STATS_RL:                EtaN (DYNAMICS)  min= -1.80166494297295E+00
DEBUG_STATS_RL:                EtaN (DYNAMICS)  max=  4.57788366861390E+00
DEBUG_STATS_RL:                EtaN (DYNAMICS) mean= -7.28986974171192E-02
DEBUG_STATS_RL:                EtaN (DYNAMICS) S.D.=  8.22728765263579E-01
DEBUG_STATS_RL:                Uvel (DYNAMICS)  min= -1.19654253579490E-01
DEBUG_STATS_RL:                Uvel (DYNAMICS)  max=  1.50312049959950E-01
DEBUG_STATS_RL:                Uvel (DYNAMICS) mean=  7.79113241182333E-03
DEBUG_STATS_RL:                Uvel (DYNAMICS) S.D.=  1.97422759698056E-02
DEBUG_STATS_RL:                Vvel (DYNAMICS)  min= -1.12232417333734E-01
DEBUG_STATS_RL:                Vvel (DYNAMICS)  max=  1.00487385763413E-01
DEBUG_STATS_RL:                Vvel (DYNAMICS) mean= -2.27749373955627E-03
DEBUG_STATS_RL:                Vvel (DYNAMICS) S.D.=  1.68052774874681E-02
DEBUG_STATS_RL:                Wvel (DYNAMICS)  min= -2.05145803061133E-04
DEBUG_STATS_RL:                Wvel (DYNAMICS)  max=  2.35705268377019E-04
DEBUG_STATS_RL:                Wvel (DYNAMICS) mean= -9.13767353115532E-07
DEBUG_STATS_RL:                Wvel (DYNAMICS) S.D.=  2.42271831001699E-05
DEBUG_STATS_RL:               Theta (DYNAMICS)  min= -1.93054644035845E+00
DEBUG_STATS_RL:               Theta (DYNAMICS)  max=  2.98941680697511E+01
DEBUG_STATS_RL:               Theta (DYNAMICS) mean=  3.22298244324104E+00
DEBUG_STATS_RL:               Theta (DYNAMICS) S.D.=  5.85134175431796E+00
DEBUG_STATS_RL:                Salt (DYNAMICS)  min=  2.00000000000000E-02
DEBUG_STATS_RL:                Salt (DYNAMICS)  max=  3.74565382224535E+01
DEBUG_STATS_RL:                Salt (DYNAMICS) mean=  1.88651868786308E+01
DEBUG_STATS_RL:                Salt (DYNAMICS) S.D.=  1.73006568684055E+01
DEBUG_STATS_RL:                  Gu (DYNAMICS)  min= -1.20317404512857E-01
DEBUG_STATS_RL:                  Gu (DYNAMICS)  max=  1.55992858890062E-01
DEBUG_STATS_RL:                  Gu (DYNAMICS) mean=  5.67393339821135E-03
DEBUG_STATS_RL:                  Gu (DYNAMICS) S.D.=  2.12246587779604E-02
DEBUG_STATS_RL:                  Gv (DYNAMICS)  min= -9.38192013293437E-02
DEBUG_STATS_RL:                  Gv (DYNAMICS)  max=  1.03901975539046E-01
DEBUG_STATS_RL:                  Gv (DYNAMICS) mean= -1.23869904073146E-03
DEBUG_STATS_RL:                  Gv (DYNAMICS) S.D.=  1.63537731759707E-02
DEBUG_STATS_RL:               GuNm1 (DYNAMICS)  min= -7.05133849052420E-06
DEBUG_STATS_RL:               GuNm1 (DYNAMICS)  max=  7.58686155638994E-06
DEBUG_STATS_RL:               GuNm1 (DYNAMICS) mean= -3.83993869014995E-08
DEBUG_STATS_RL:               GuNm1 (DYNAMICS) S.D.=  1.19476228299620E-06
DEBUG_STATS_RL:               GvNm1 (DYNAMICS)  min= -9.94550821121717E-06
DEBUG_STATS_RL:               GvNm1 (DYNAMICS)  max=  1.63858906988583E-05
DEBUG_STATS_RL:               GvNm1 (DYNAMICS) mean=  7.80589577191904E-07
DEBUG_STATS_RL:               GvNm1 (DYNAMICS) S.D.=  2.68369034323526E-06
DEBUG_STATS_RL:               GtNm1 (DYNAMICS)  min= -3.75350004300334E-06
DEBUG_STATS_RL:               GtNm1 (DYNAMICS)  max=  2.37237133208754E-06
DEBUG_STATS_RL:               GtNm1 (DYNAMICS) mean=  1.81597497244228E-08
DEBUG_STATS_RL:               GtNm1 (DYNAMICS) S.D.=  2.77037400747501E-07
DEBUG_STATS_RL:               GsNm1 (DYNAMICS)  min= -4.75422938807263E-07
DEBUG_STATS_RL:               GsNm1 (DYNAMICS)  max=  4.34205170354262E-07
DEBUG_STATS_RL:               GsNm1 (DYNAMICS) mean= -2.82657314341201E-10
DEBUG_STATS_RL:               GsNm1 (DYNAMICS) S.D.=  2.30468398103859E-08
DEBUG_STATS_RL:    cg2d_b (SOLVE_FOR_PRESSURE)  min= -2.06120386889696E+04
DEBUG_STATS_RL:    cg2d_b (SOLVE_FOR_PRESSURE)  max=  1.56460002261704E+04
DEBUG_STATS_RL:    cg2d_b (SOLVE_FOR_PRESSURE) mean=  5.87195746254813E-01
DEBUG_STATS_RL:    cg2d_b (SOLVE_FOR_PRESSURE) S.D.=  3.88886176200949E+03
 cg2d: Sum(rhs),rhsMax =   6.59497186616315E-02  1.35385388829388E+00
(PID.TID 0000.0001)  cg2d: iter=     1 ; resid.=  1.20336586198802E+00
(PID.TID 0000.0001)  cg2d: iter=     2 ; resid.=  1.38255025584555E+00
(PID.TID 0000.0001)  cg2d: iter=     3 ; resid.=  1.15881710627376E+00
(PID.TID 0000.0001)  cg2d: iter=     4 ; resid.=  9.24361857106999E-01
(PID.TID 0000.0001)  cg2d: iter=     5 ; resid.=  7.98266604394225E-01
(PID.TID 0000.0001)  cg2d: iter=     6 ; resid.=  6.04551790146008E-01
(PID.TID 0000.0001)  cg2d: iter=     7 ; resid.=  4.84988697208669E-01
(PID.TID 0000.0001)  cg2d: iter=     8 ; resid.=  4.13922229725141E-01
(PID.TID 0000.0001)  cg2d: iter=     9 ; resid.=  3.91497607031415E-01
(PID.TID 0000.0001)  cg2d: iter=    10 ; resid.=  3.36369005239652E-01
(PID.TID 0000.0001)  cg2d: iter=    11 ; resid.=  2.68219869087304E-01
(PID.TID 0000.0001)  cg2d: iter=    12 ; resid.=  2.23897310608435E-01
(PID.TID 0000.0001)  cg2d: iter=    13 ; resid.=  2.03801000279230E-01
(PID.TID 0000.0001)  cg2d: iter=    14 ; resid.=  1.92622897779159E-01
(PID.TID 0000.0001)  cg2d: iter=    15 ; resid.=  1.64263934495252E-01
(PID.TID 0000.0001)  cg2d: iter=    16 ; resid.=  1.50329142058089E-01
(PID.TID 0000.0001)  cg2d: iter=    17 ; resid.=  1.15305711480794E-01
(PID.TID 0000.0001)  cg2d: iter=    18 ; resid.=  8.46085806798832E-02
(PID.TID 0000.0001)  cg2d: iter=    19 ; resid.=  6.01311988219741E-02
(PID.TID 0000.0001)  cg2d: iter=    20 ; resid.=  4.76097924891886E-02
(PID.TID 0000.0001)  cg2d: iter=    21 ; resid.=  4.04926932055306E-02
(PID.TID 0000.0001)  cg2d: iter=    22 ; resid.=  3.56553283956597E-02
(PID.TID 0000.0001)  cg2d: iter=    23 ; resid.=  2.89947716162444E-02
(PID.TID 0000.0001)  cg2d: iter=    24 ; resid.=  2.46506559859262E-02
(PID.TID 0000.0001)  cg2d: iter=    25 ; resid.=  1.84014755501554E-02
(PID.TID 0000.0001)  cg2d: iter=    26 ; resid.=  1.73346208387159E-02
(PID.TID 0000.0001)  cg2d: iter=    27 ; resid.=  1.57052143644700E-02
(PID.TID 0000.0001)  cg2d: iter=    28 ; resid.=  1.44954556246531E-02
(PID.TID 0000.0001)  cg2d: iter=    29 ; resid.=  1.22420547758631E-02
(PID.TID 0000.0001)  cg2d: iter=    30 ; resid.=  1.08656431783155E-02
(PID.TID 0000.0001)  cg2d: iter=    31 ; resid.=  8.42955573720088E-03
(PID.TID 0000.0001)  cg2d: iter=    32 ; resid.=  6.62325688866422E-03
(PID.TID 0000.0001)  cg2d: iter=    33 ; resid.=  5.75493311015309E-03
(PID.TID 0000.0001)  cg2d: iter=    34 ; resid.=  4.70092919350614E-03
(PID.TID 0000.0001)  cg2d: iter=    35 ; resid.=  3.80725644994901E-03
(PID.TID 0000.0001)  cg2d: iter=    36 ; resid.=  3.29512613942329E-03
(PID.TID 0000.0001)  cg2d: iter=    37 ; resid.=  2.77956052354791E-03
(PID.TID 0000.0001)  cg2d: iter=    38 ; resid.=  2.19805119994954E-03
(PID.TID 0000.0001)  cg2d: iter=    39 ; resid.=  1.77893066771836E-03
(PID.TID 0000.0001)  cg2d: iter=    40 ; resid.=  1.62731365894738E-03
(PID.TID 0000.0001)  cg2d: iter=    41 ; resid.=  1.34061054430463E-03
(PID.TID 0000.0001)  cg2d: iter=    42 ; resid.=  1.23725504222448E-03
(PID.TID 0000.0001)  cg2d: iter=    43 ; resid.=  9.39258681617674E-04
(PID.TID 0000.0001)  cg2d: iter=    44 ; resid.=  7.61668000306449E-04
(PID.TID 0000.0001)  cg2d: iter=    45 ; resid.=  6.16571429180361E-04
(PID.TID 0000.0001)  cg2d: iter=    46 ; resid.=  5.71810067235488E-04
(PID.TID 0000.0001)  cg2d: iter=    47 ; resid.=  5.20281641686620E-04
(PID.TID 0000.0001)  cg2d: iter=    48 ; resid.=  4.13792346269363E-04
(PID.TID 0000.0001)  cg2d: iter=    49 ; resid.=  3.05686340696270E-04
(PID.TID 0000.0001)  cg2d: iter=    50 ; resid.=  2.57170407777374E-04
(PID.TID 0000.0001)  cg2d: iter=    51 ; resid.=  2.24631827768979E-04
(PID.TID 0000.0001)  cg2d: iter=    52 ; resid.=  1.86837505249054E-04
(PID.TID 0000.0001)  cg2d: iter=    53 ; resid.=  1.50417091699037E-04
(PID.TID 0000.0001)  cg2d: iter=    54 ; resid.=  1.14706366674897E-04
(PID.TID 0000.0001)  cg2d: iter=    55 ; resid.=  8.89253426730367E-05
(PID.TID 0000.0001)  cg2d: iter=    56 ; resid.=  7.01830182195493E-05
(PID.TID 0000.0001)  cg2d: iter=    57 ; resid.=  5.66313182260122E-05
(PID.TID 0000.0001)  cg2d: iter=    58 ; resid.=  4.46902867307616E-05
(PID.TID 0000.0001)  cg2d: iter=    59 ; resid.=  3.89855366632070E-05
(PID.TID 0000.0001)  cg2d: iter=    60 ; resid.=  3.20525626924416E-05
(PID.TID 0000.0001)  cg2d: iter=    61 ; resid.=  2.69663864682316E-05
(PID.TID 0000.0001)  cg2d: iter=    62 ; resid.=  2.21447261650746E-05
(PID.TID 0000.0001)  cg2d: iter=    63 ; resid.=  2.09705428023284E-05
(PID.TID 0000.0001)  cg2d: iter=    64 ; resid.=  1.90290390024194E-05
(PID.TID 0000.0001)  cg2d: iter=    65 ; resid.=  1.51287156432599E-05
(PID.TID 0000.0001)  cg2d: iter=    66 ; resid.=  1.13573555903677E-05
(PID.TID 0000.0001)  cg2d: iter=    67 ; resid.=  9.57607008460998E-06
(PID.TID 0000.0001)  cg2d: iter=    68 ; resid.=  8.60082903543549E-06
(PID.TID 0000.0001)  cg2d: iter=    69 ; resid.=  7.43859970883386E-06
(PID.TID 0000.0001)  cg2d: iter=    70 ; resid.=  6.05604969117741E-06
(PID.TID 0000.0001)  cg2d: iter=    71 ; resid.=  4.73945771418625E-06
(PID.TID 0000.0001)  cg2d: iter=    72 ; resid.=  3.79311603866187E-06
(PID.TID 0000.0001)  cg2d: iter=    73 ; resid.=  3.08177340542960E-06
(PID.TID 0000.0001)  cg2d: iter=    74 ; resid.=  2.32743823990441E-06
(PID.TID 0000.0001)  cg2d: iter=    75 ; resid.=  1.81202337198552E-06
(PID.TID 0000.0001)  cg2d: iter=    76 ; resid.=  1.42314672065238E-06
(PID.TID 0000.0001)  cg2d: iter=    77 ; resid.=  1.15363006440064E-06
(PID.TID 0000.0001)  cg2d: iter=    78 ; resid.=  8.61849409757878E-07
(PID.TID 0000.0001)  cg2d: iter=    79 ; resid.=  6.58100495238115E-07
(PID.TID 0000.0001)  cg2d: iter=    80 ; resid.=  4.94966039559463E-07
(PID.TID 0000.0001)  cg2d: iter=    81 ; resid.=  3.60893117088585E-07
(PID.TID 0000.0001)  cg2d: iter=    82 ; resid.=  2.65670033213594E-07
(PID.TID 0000.0001)  cg2d: iter=    83 ; resid.=  2.06976908132785E-07
(PID.TID 0000.0001)  cg2d: iter=    84 ; resid.=  1.57923848726201E-07
(PID.TID 0000.0001)  cg2d: iter=    85 ; resid.=  1.21459300094340E-07
(PID.TID 0000.0001)  cg2d: iter=    86 ; resid.=  1.03280171627302E-07
(PID.TID 0000.0001)  cg2d: iter=    87 ; resid.=  8.80745138483574E-08
(PID.TID 0000.0001)  cg2d: iter=    88 ; resid.=  7.71352121112660E-08
(PID.TID 0000.0001)  cg2d: iter=    89 ; resid.=  6.62012466726818E-08
(PID.TID 0000.0001)  cg2d: iter=    90 ; resid.=  5.44893014272261E-08
(PID.TID 0000.0001)  cg2d: iter=    91 ; resid.=  4.68076168796910E-08
(PID.TID 0000.0001)  cg2d: iter=    92 ; resid.=  3.69199317631993E-08
(PID.TID 0000.0001)  cg2d: iter=    93 ; resid.=  2.86948935000093E-08
(PID.TID 0000.0001)  cg2d: iter=    94 ; resid.=  2.36410034255284E-08
(PID.TID 0000.0001)  cg2d: iter=    95 ; resid.=  1.92935349359993E-08
(PID.TID 0000.0001)  cg2d: iter=    96 ; resid.=  1.41869365645535E-08
(PID.TID 0000.0001)  cg2d: iter=    97 ; resid.=  1.15212632393422E-08
(PID.TID 0000.0001)  cg2d: iter=    98 ; resid.=  9.00054432430693E-09
(PID.TID 0000.0001)  cg2d: iter=    99 ; resid.=  6.67348603483682E-09
(PID.TID 0000.0001)  cg2d: iter=   100 ; resid.=  4.92738716231805E-09
(PID.TID 0000.0001)  cg2d: iter=   101 ; resid.=  3.50162295468785E-09
(PID.TID 0000.0001)  cg2d: iter=   102 ; resid.=  2.93606179427644E-09
(PID.TID 0000.0001)  cg2d: iter=   103 ; resid.=  2.23801486732436E-09
(PID.TID 0000.0001)  cg2d: iter=   104 ; resid.=  1.82912208869093E-09
(PID.TID 0000.0001)  cg2d: iter=   105 ; resid.=  1.33860221972674E-09
(PID.TID 0000.0001)  cg2d: iter=   106 ; resid.=  1.08253569777287E-09
(PID.TID 0000.0001)  cg2d: iter=   107 ; resid.=  7.95967250287804E-10
(PID.TID 0000.0001)  cg2d: iter=   108 ; resid.=  5.74227033783303E-10
(PID.TID 0000.0001)  cg2d: iter=   109 ; resid.=  4.27966676923626E-10
(PID.TID 0000.0001)  cg2d: iter=   110 ; resid.=  3.40430956728222E-10
(PID.TID 0000.0001)  cg2d: iter=   111 ; resid.=  2.53616574384466E-10
(PID.TID 0000.0001)  cg2d: iter=   112 ; resid.=  1.85001280555499E-10
(PID.TID 0000.0001)  cg2d: iter=   113 ; resid.=  1.48059442256202E-10
(PID.TID 0000.0001)  cg2d: iter=   114 ; resid.=  1.12477073901745E-10
(PID.TID 0000.0001)  cg2d: iter=   115 ; resid.=  8.75925526921443E-11
(PID.TID 0000.0001)  cg2d: iter=   116 ; resid.=  6.55688013533100E-11
(PID.TID 0000.0001)  cg2d: iter=   117 ; resid.=  5.28128978523315E-11
(PID.TID 0000.0001)  cg2d: iter=   118 ; resid.=  4.12783348363509E-11
(PID.TID 0000.0001)  cg2d: iter=   119 ; resid.=  3.63489414154436E-11
(PID.TID 0000.0001)  cg2d: iter=   120 ; resid.=  3.37414601767709E-11
(PID.TID 0000.0001)  cg2d: iter=   121 ; resid.=  2.85592895548150E-11
(PID.TID 0000.0001)  cg2d: iter=   122 ; resid.=  2.16046059797693E-11
(PID.TID 0000.0001)  cg2d: iter=   123 ; resid.=  1.61491407372233E-11
(PID.TID 0000.0001)  cg2d: iter=   124 ; resid.=  1.14295592651390E-11
(PID.TID 0000.0001)  cg2d: iter=   125 ; resid.=  8.62431703643454E-12
(PID.TID 0000.0001)  cg2d: iter=   126 ; resid.=  6.08755554241766E-12
(PID.TID 0000.0001)  cg2d: iter=   127 ; resid.=  4.71033000212139E-12
(PID.TID 0000.0001)  cg2d: iter=   128 ; resid.=  3.76444183570241E-12
(PID.TID 0000.0001)  cg2d: iter=   129 ; resid.=  2.80639760747126E-12
(PID.TID 0000.0001)  cg2d: iter=   130 ; resid.=  2.21309449107614E-12
(PID.TID 0000.0001)  cg2d: iter=   131 ; resid.=  1.78659739433446E-12
(PID.TID 0000.0001)  cg2d: iter=   132 ; resid.=  1.34048163095071E-12
(PID.TID 0000.0001)  cg2d: iter=   133 ; resid.=  1.03806704346068E-12
(PID.TID 0000.0001)  cg2d: iter=   134 ; resid.=  8.57699537634322E-13
(PID.TID 0000.0001)  cg2d: iter=   135 ; resid.=  6.65097225406555E-13
(PID.TID 0000.0001)  cg2d: iter=   136 ; resid.=  4.69788985483665E-13
(PID.TID 0000.0001)  cg2d: iter=   137 ; resid.=  3.28279332590239E-13
(PID.TID 0000.0001)  cg2d: iter=   138 ; resid.=  2.44197392587432E-13
(PID.TID 0000.0001)  cg2d: iter=   139 ; resid.=  1.91691654944704E-13
(PID.TID 0000.0001)  cg2d: iter=   140 ; resid.=  1.39629777296933E-13
(PID.TID 0000.0001)  cg2d: iter=   141 ; resid.=  9.28042370104312E-14
DEBUG_STATS_RL:    cg2d_x (SOLVE_FOR_PRESSURE)  min= -2.27048831844153E+01
DEBUG_STATS_RL:    cg2d_x (SOLVE_FOR_PRESSURE)  max=  4.41524951963679E+01
DEBUG_STATS_RL:    cg2d_x (SOLVE_FOR_PRESSURE) mean= -1.21263353161053E+00
DEBUG_STATS_RL:    cg2d_x (SOLVE_FOR_PRESSURE) S.D.=  8.02708596093597E+00
(PID.TID 0000.0001)      cg2d_init_res =   1.22389598830527E+00
(PID.TID 0000.0001)      cg2d_iters(min,last) =      -1     141
(PID.TID 0000.0001)      cg2d_last_res =   9.28042370104312E-14
(PID.TID 0000.0001) // =======================================================
(PID.TID 0000.0001) // Begin MONITOR dynamic field statistics
(PID.TID 0000.0001) // =======================================================
(PID.TID 0000.0001) %MON time_tsnumber                =                     9
(PID.TID 0000.0001) %MON time_secondsf                =   7.7760000000000E+05
(PID.TID 0000.0001) %MON dynstat_eta_max              =   4.5007640363270E+00
(PID.TID 0000.0001) %MON dynstat_eta_min              =  -2.3144631176772E+00
(PID.TID 0000.0001) %MON dynstat_eta_mean             =  -6.1266595134818E-04
(PID.TID 0000.0001) %MON dynstat_eta_sd               =   8.0180778722740E-01
(PID.TID 0000.0001) %MON dynstat_eta_del2             =   2.3753964489706E-03
(PID.TID 0000.0001) %MON dynstat_uvel_max             =   1.5866188080006E-01
(PID.TID 0000.0001) %MON dynstat_uvel_min             =  -1.1782307926395E-01
(PID.TID 0000.0001) %MON dynstat_uvel_mean            =   4.0343890136460E-03
(PID.TID 0000.0001) %MON dynstat_uvel_sd              =   1.3663142434226E-02
(PID.TID 0000.0001) %MON dynstat_uvel_del2            =   9.5064805397543E-05
(PID.TID 0000.0001) %MON dynstat_vvel_max             =   9.6862985859293E-02
(PID.TID 0000.0001) %MON dynstat_vvel_min             =  -1.1105112036718E-01
(PID.TID 0000.0001) %MON dynstat_vvel_mean            =  -6.4552940812845E-05
(PID.TID 0000.0001) %MON dynstat_vvel_sd              =   1.1863279516285E-02
(PID.TID 0000.0001) %MON dynstat_vvel_del2            =   1.1182678658087E-04
(PID.TID 0000.0001) %MON dynstat_wvel_max             =   2.3187765265724E-04
(PID.TID 0000.0001) %MON dynstat_wvel_min             =  -2.1980823910588E-04
(PID.TID 0000.0001) %MON dynstat_wvel_mean            =  -6.2663673317105E-23
(PID.TID 0000.0001) %MON dynstat_wvel_sd              =   2.5338194904866E-05
(PID.TID 0000.0001) %MON dynstat_wvel_del2            =   3.0726199794008E-07
(PID.TID 0000.0001) %MON dynstat_theta_max            =   2.9894168069751E+01
(PID.TID 0000.0001) %MON dynstat_theta_min            =  -1.9305464403584E+00
(PID.TID 0000.0001) %MON dynstat_theta_mean           =   3.6396224095366E+00
(PID.TID 0000.0001) %MON dynstat_theta_sd             =   4.4158719191773E+00
(PID.TID 0000.0001) %MON dynstat_theta_del2           =   5.1481475288320E-03
(PID.TID 0000.0001) %MON dynstat_salt_max             =   3.7456538222454E+01
(PID.TID 0000.0001) %MON dynstat_salt_min             =   2.9804411322791E+01
(PID.TID 0000.0001) %MON dynstat_salt_mean            =   3.4737999305179E+01
(PID.TID 0000.0001) %MON dynstat_salt_sd              =   2.9616342546591E-01
(PID.TID 0000.0001) %MON dynstat_salt_del2            =   1.0113026532168E-03
(PID.TID 0000.0001) %MON dynstat_sst_max              =   2.9894168069751E+01
(PID.TID 0000.0001) %MON dynstat_sst_min              =  -1.9305464403584E+00
(PID.TID 0000.0001) %MON dynstat_sst_mean             =   1.8610307375040E+01
(PID.TID 0000.0001) %MON dynstat_sst_sd               =   9.0976511552695E+00
(PID.TID 0000.0001) %MON dynstat_sst_del2             =   2.6254704908095E-02
(PID.TID 0000.0001) %MON dynstat_sss_max              =   3.7451785153518E+01
(PID.TID 0000.0001) %MON dynstat_sss_min              =   2.9804411322791E+01
(PID.TID 0000.0001) %MON dynstat_sss_mean             =   3.4873682975824E+01
(PID.TID 0000.0001) %MON dynstat_sss_sd               =   9.6690935150238E-01
(PID.TID 0000.0001) %MON dynstat_sss_del2             =   8.0111309129553E-03
(PID.TID 0000.0001) %MON forcing_qnet_max             =   4.3427630615234E+02
(PID.TID 0000.0001) %MON forcing_qnet_min             =  -1.8328968454997E+02
(PID.TID 0000.0001) %MON forcing_qnet_mean            =  -1.6600109691805E+01
(PID.TID 0000.0001) %MON forcing_qnet_sd              =   1.1119125063866E+02
(PID.TID 0000.0001) %MON forcing_qnet_del2            =   1.0040237369794E+00
(PID.TID 0000.0001) %MON forcing_qsw_max              =   0.0000000000000E+00
(PID.TID 0000.0001) %MON forcing_qsw_min              =   0.0000000000000E+00
(PID.TID 0000.0001) %MON forcing_qsw_mean             =   0.0000000000000E+00
(PID.TID 0000.0001) %MON forcing_qsw_sd               =   0.0000000000000E+00
(PID.TID 0000.0001) %MON forcing_qsw_del2             =   0.0000000000000E+00
(PID.TID 0000.0001) %MON forcing_empmr_max            =   8.1890940369552E-05
(PID.TID 0000.0001) %MON forcing_empmr_min            =  -7.2715819499081E-05
(PID.TID 0000.0001) %MON forcing_empmr_mean           =   8.5454875789209E-07
(PID.TID 0000.0001) %MON forcing_empmr_sd             =   2.8214283860046E-05
(PID.TID 0000.0001) %MON forcing_empmr_del2           =   3.6290034923196E-07
(PID.TID 0000.0001) %MON forcing_fu_max               =   2.6993649601936E-01
(PID.TID 0000.0001) %MON forcing_fu_min               =  -1.6518663018942E-01
(PID.TID 0000.0001) %MON forcing_fu_mean              =   1.6055584899826E-02
(PID.TID 0000.0001) %MON forcing_fu_sd                =   9.0336157001452E-02
(PID.TID 0000.0001) %MON forcing_fu_del2              =   6.7811877937571E-04
(PID.TID 0000.0001) %MON forcing_fv_max               =   2.1996198445559E-01
(PID.TID 0000.0001) %MON forcing_fv_min               =  -1.8222950249910E-01
(PID.TID 0000.0001) %MON forcing_fv_mean              =  -5.7752354275307E-03
(PID.TID 0000.0001) %MON forcing_fv_sd                =   4.6406538642117E-02
(PID.TID 0000.0001) %MON forcing_fv_del2              =   4.6058148956476E-04
(PID.TID 0000.0001) %MON trAdv_CFL_u_max              =   6.8297921656547E-02
(PID.TID 0000.0001) %MON trAdv_CFL_v_max              =   2.2501945143154E-02
(PID.TID 0000.0001) %MON trAdv_CFL_w_max              =   1.1660573371261E-01
(PID.TID 0000.0001) %MON advcfl_uvel_max              =   7.9941373379058E-02
(PID.TID 0000.0001) %MON advcfl_vvel_max              =   2.1575451641501E-02
(PID.TID 0000.0001) %MON advcfl_wvel_max              =   1.1083885050256E-01
(PID.TID 0000.0001) %MON advcfl_W_hf_max              =   1.3063150237802E-01
(PID.TID 0000.0001) %MON pe_b_mean                    =   8.2266305389881E-04
(PID.TID 0000.0001) %MON ke_max                       =   1.2791592851344E-02
(PID.TID 0000.0001) %MON ke_mean                      =   1.5539183976112E-04
(PID.TID 0000.0001) %MON ke_vol                       =   1.3226782436723E+18
(PID.TID 0000.0001) %MON vort_r_min                   =  -8.7741983293947E-07
(PID.TID 0000.0001) %MON vort_r_max                   =   7.1065114211286E-07
(PID.TID 0000.0001) %MON vort_a_mean                  =  -2.5274805997030E-05
(PID.TID 0000.0001) %MON vort_a_sd                    =   7.3605351324439E-05
(PID.TID 0000.0001) %MON vort_p_mean                  =  -3.1845654034975E-05
(PID.TID 0000.0001) %MON vort_p_sd                    =   1.3162301561866E-04
(PID.TID 0000.0001) %MON surfExpan_theta_mean         =   1.1456170994806E-05
(PID.TID 0000.0001) %MON surfExpan_salt_mean          =   4.6368122122024E-07
(PID.TID 0000.0001) // =======================================================
(PID.TID 0000.0001) // End MONITOR dynamic field statistics
(PID.TID 0000.0001) // =======================================================
 EXTERNAL_FIELDS_LOAD,         9 : iP,iLd,i0,i1=   12    1   12    1 ; Wght=  0.2000000000  0.8000000000
 EXTERNAL_FIELDS_LOAD: (fu0,1),fu,fv= -4.5368E-02 -3.5633E-02 -3.7580E-02 -5.9855E-02
 EXTERNAL_FIELDS_LOAD: SST,SSS,Q,E-P=  5.9632E-01  3.4574E+01  2.6550E+02  1.1319E-05
DEBUG_STATS_RL:          Uvel (THERMODYNAMICS)  min= -1.17823079263953E-01
DEBUG_STATS_RL:          Uvel (THERMODYNAMICS)  max=  1.58661880800061E-01
DEBUG_STATS_RL:          Uvel (THERMODYNAMICS) mean=  7.32066770680592E-03
DEBUG_STATS_RL:          Uvel (THERMODYNAMICS) S.D.=  2.10512676372610E-02
DEBUG_STATS_RL:          Vvel (THERMODYNAMICS)  min= -1.11051120367184E-01
DEBUG_STATS_RL:          Vvel (THERMODYNAMICS)  max=  9.68629858592929E-02
DEBUG_STATS_RL:          Vvel (THERMODYNAMICS) mean= -1.56558294910923E-03
DEBUG_STATS_RL:          Vvel (THERMODYNAMICS) S.D.=  1.67608951296059E-02
DEBUG_STATS_RL:          Wvel (THERMODYNAMICS)  min= -2.19808239105883E-04
DEBUG_STATS_RL:          Wvel (THERMODYNAMICS)  max=  2.31877652657243E-04
DEBUG_STATS_RL:          Wvel (THERMODYNAMICS) mean= -9.35030404035364E-07
DEBUG_STATS_RL:          Wvel (THERMODYNAMICS) S.D.=  2.35626510014354E-05
DEBUG_STATS_RL:         Theta (THERMODYNAMICS)  min= -1.92710029605891E+00
DEBUG_STATS_RL:         Theta (THERMODYNAMICS)  max=  2.98876065952809E+01
DEBUG_STATS_RL:         Theta (THERMODYNAMICS) mean=  3.22366072824422E+00
DEBUG_STATS_RL:         Theta (THERMODYNAMICS) S.D.=  5.85132607360981E+00
DEBUG_STATS_RL:          Salt (THERMODYNAMICS)  min=  2.00000000000000E-02
DEBUG_STATS_RL:          Salt (THERMODYNAMICS)  max=  3.74567931539240E+01
DEBUG_STATS_RL:          Salt (THERMODYNAMICS) mean=  1.88651687939438E+01
DEBUG_STATS_RL:          Salt (THERMODYNAMICS) S.D.=  1.73006415218003E+01
DEBUG_STATS_RL:         GtNm1 (THERMODYNAMICS)  min= -3.58721262857967E-06
DEBUG_STATS_RL:         GtNm1 (THERMODYNAMICS)  max=  2.83049093734566E-06
DEBUG_STATS_RL:         GtNm1 (THERMODYNAMICS) mean=  1.67436345287518E-08
DEBUG_STATS_RL:         GtNm1 (THERMODYNAMICS) S.D.=  2.79305084138547E-07
DEBUG_STATS_RL:         GsNm1 (THERMODYNAMICS)  min= -4.77573299849983E-07
DEBUG_STATS_RL:         GsNm1 (THERMODYNAMICS)  max=  6.05915019654544E-07
DEBUG_STATS_RL:         GsNm1 (THERMODYNAMICS) mean= -3.48558212170017E-10
DEBUG_STATS_RL:         GsNm1 (THERMODYNAMICS) S.D.=  2.36527078695969E-08
DEBUG_STATS_RL:                EtaN (DYNAMICS)  min= -2.31446311767719E+00
DEBUG_STATS_RL:                EtaN (DYNAMICS)  max=  4.50076403632701E+00
DEBUG_STATS_RL:                EtaN (DYNAMICS) mean= -1.23611980796181E-01
DEBUG_STATS_RL:                EtaN (DYNAMICS) S.D.=  8.18255449636693E-01
DEBUG_STATS_RL:                Uvel (DYNAMICS)  min= -1.17823079263953E-01
DEBUG_STATS_RL:                Uvel (DYNAMICS)  max=  1.58661880800061E-01
DEBUG_STATS_RL:                Uvel (DYNAMICS) mean=  7.32066770680592E-03
DEBUG_STATS_RL:                Uvel (DYNAMICS) S.D.=  2.10512676372610E-02
DEBUG_STATS_RL:                Vvel (DYNAMICS)  min= -1.11051120367184E-01
DEBUG_STATS_RL:                Vvel (DYNAMICS)  max=  9.68629858592929E-02
DEBUG_STATS_RL:                Vvel (DYNAMICS) mean= -1.56558294910923E-03
DEBUG_STATS_RL:                Vvel (DYNAMICS) S.D.=  1.67608951296059E-02
DEBUG_STATS_RL:                Wvel (DYNAMICS)  min= -2.19808239105883E-04
DEBUG_STATS_RL:                Wvel (DYNAMICS)  max=  2.31877652657243E-04
DEBUG_STATS_RL:                Wvel (DYNAMICS) mean= -9.35030404035364E-07
DEBUG_STATS_RL:                Wvel (DYNAMICS) S.D.=  2.35626510014354E-05
DEBUG_STATS_RL:               Theta (DYNAMICS)  min= -1.92710029605891E+00
DEBUG_STATS_RL:               Theta (DYNAMICS)  max=  2.98876065952809E+01
DEBUG_STATS_RL:               Theta (DYNAMICS) mean=  3.22366072824422E+00
DEBUG_STATS_RL:               Theta (DYNAMICS) S.D.=  5.85132607360981E+00
DEBUG_STATS_RL:                Salt (DYNAMICS)  min=  2.00000000000000E-02
DEBUG_STATS_RL:                Salt (DYNAMICS)  max=  3.74567931539240E+01
DEBUG_STATS_RL:                Salt (DYNAMICS) mean=  1.88651687939438E+01
DEBUG_STATS_RL:                Salt (DYNAMICS) S.D.=  1.73006415218003E+01
DEBUG_STATS_RL:                  Gu (DYNAMICS)  min= -1.14661464871178E-01
DEBUG_STATS_RL:                  Gu (DYNAMICS)  max=  1.63082568839221E-01
DEBUG_STATS_RL:                  Gu (DYNAMICS) mean=  5.12362646017983E-03
DEBUG_STATS_RL:                  Gu (DYNAMICS) S.D.=  2.23887724562345E-02
DEBUG_STATS_RL:                  Gv (DYNAMICS)  min= -9.16729271526893E-02
DEBUG_STATS_RL:                  Gv (DYNAMICS)  max=  1.00954081747972E-01
DEBUG_STATS_RL:                  Gv (DYNAMICS) mean= -4.71722206854360E-04
DEBUG_STATS_RL:                  Gv (DYNAMICS) S.D.=  1.62130588121453E-02
DEBUG_STATS_RL:               GuNm1 (DYNAMICS)  min= -6.61738153006892E-06
DEBUG_STATS_RL:               GuNm1 (DYNAMICS)  max=  7.58076697462398E-06
DEBUG_STATS_RL:               GuNm1 (DYNAMICS) mean= -3.70182888293954E-08
DEBUG_STATS_RL:               GuNm1 (DYNAMICS) S.D.=  1.16831761687544E-06
DEBUG_STATS_RL:               GvNm1 (DYNAMICS)  min= -9.56694230891144E-06
DEBUG_STATS_RL:               GvNm1 (DYNAMICS)  max=  1.64463835880880E-05
DEBUG_STATS_RL:               GvNm1 (DYNAMICS) mean=  7.77783777025047E-07
DEBUG_STATS_RL:               GvNm1 (DYNAMICS) S.D.=  2.65561343248975E-06
DEBUG_STATS_RL:               GtNm1 (DYNAMICS)  min= -3.58721262857967E-06
DEBUG_STATS_RL:               GtNm1 (DYNAMICS)  max=  2.83049093734566E-06
DEBUG_STATS_RL:               GtNm1 (DYNAMICS) mean=  1.67436345287518E-08
DEBUG_STATS_RL:               GtNm1 (DYNAMICS) S.D.=  2.79305084138547E-07
DEBUG_STATS_RL:               GsNm1 (DYNAMICS)  min= -4.77573299849983E-07
DEBUG_STATS_RL:               GsNm1 (DYNAMICS)  max=  6.05915019654544E-07
DEBUG_STATS_RL:               GsNm1 (DYNAMICS) mean= -3.48558212170017E-10
DEBUG_STATS_RL:               GsNm1 (DYNAMICS) S.D.=  2.36527078695969E-08
DEBUG_STATS_RL:    cg2d_b (SOLVE_FOR_PRESSURE)  min= -1.88814861602085E+04
DEBUG_STATS_RL:    cg2d_b (SOLVE_FOR_PRESSURE)  max=  1.55321467502606E+04
DEBUG_STATS_RL:    cg2d_b (SOLVE_FOR_PRESSURE) mean=  6.56348004156658E-01
DEBUG_STATS_RL:    cg2d_b (SOLVE_FOR_PRESSURE) S.D.=  3.70537118587572E+03
 cg2d: Sum(rhs),rhsMax =   8.04727772341870E-02  1.24018656477901E+00
(PID.TID 0000.0001)  cg2d: iter=     1 ; resid.=  1.24320217589906E+00
(PID.TID 0000.0001)  cg2d: iter=     2 ; resid.=  1.35557364180541E+00
(PID.TID 0000.0001)  cg2d: iter=     3 ; resid.=  1.08517939973302E+00
(PID.TID 0000.0001)  cg2d: iter=     4 ; resid.=  9.29640690046880E-01
(PID.TID 0000.0001)  cg2d: iter=     5 ; resid.=  7.80752047870838E-01
(PID.TID 0000.0001)  cg2d: iter=     6 ; resid.=  6.18086328401905E-01
(PID.TID 0000.0001)  cg2d: iter=     7 ; resid.=  5.16270864834020E-01
(PID.TID 0000.0001)  cg2d: iter=     8 ; resid.=  3.91250173878655E-01
(PID.TID 0000.0001)  cg2d: iter=     9 ; resid.=  3.40400357817640E-01
(PID.TID 0000.0001)  cg2d: iter=    10 ; resid.=  3.13602290580113E-01
(PID.TID 0000.0001)  cg2d: iter=    11 ; resid.=  2.60763881363845E-01
(PID.TID 0000.0001)  cg2d: iter=    12 ; resid.=  2.06336145102135E-01
(PID.TID 0000.0001)  cg2d: iter=    13 ; resid.=  1.83488086945297E-01
(PID.TID 0000.0001)  cg2d: iter=    14 ; resid.=  1.60500476952279E-01
(PID.TID 0000.0001)  cg2d: iter=    15 ; resid.=  1.44361547115258E-01
(PID.TID 0000.0001)  cg2d: iter=    16 ; resid.=  1.37812886832715E-01
(PID.TID 0000.0001)  cg2d: iter=    17 ; resid.=  1.20786403674634E-01
(PID.TID 0000.0001)  cg2d: iter=    18 ; resid.=  8.68961783156857E-02
(PID.TID 0000.0001)  cg2d: iter=    19 ; resid.=  6.47880082823507E-02
(PID.TID 0000.0001)  cg2d: iter=    20 ; resid.=  4.84102547372977E-02
(PID.TID 0000.0001)  cg2d: iter=    21 ; resid.=  4.28959549976538E-02
(PID.TID 0000.0001)  cg2d: iter=    22 ; resid.=  3.58390966963748E-02
(PID.TID 0000.0001)  cg2d: iter=    23 ; resid.=  3.10397653585750E-02
(PID.TID 0000.0001)  cg2d: iter=    24 ; resid.=  2.67783700950918E-02
(PID.TID 0000.0001)  cg2d: iter=    25 ; resid.=  2.02972271647231E-02
(PID.TID 0000.0001)  cg2d: iter=    26 ; resid.=  1.73784335160311E-02
(PID.TID 0000.0001)  cg2d: iter=    27 ; resid.=  1.50481275049665E-02
(PID.TID 0000.0001)  cg2d: iter=    28 ; resid.=  1.35155258252549E-02
(PID.TID 0000.0001)  cg2d: iter=    29 ; resid.=  1.19341012265549E-02
(PID.TID 0000.0001)  cg2d: iter=    30 ; resid.=  1.10228801244873E-02
(PID.TID 0000.0001)  cg2d: iter=    31 ; resid.=  8.40375978982404E-03
(PID.TID 0000.0001)  cg2d: iter=    32 ; resid.=  6.31095812335871E-03
(PID.TID 0000.0001)  cg2d: iter=    33 ; resid.=  5.58544738995677E-03
(PID.TID 0000.0001)  cg2d: iter=    34 ; resid.=  4.76974268138931E-03
(PID.TID 0000.0001)  cg2d: iter=    35 ; resid.=  3.94579571234763E-03
(PID.TID 0000.0001)  cg2d: iter=    36 ; resid.=  3.70321534910645E-03
(PID.TID 0000.0001)  cg2d: iter=    37 ; resid.=  3.04643486779657E-03
(PID.TID 0000.0001)  cg2d: iter=    38 ; resid.=  2.40263412866547E-03
(PID.TID 0000.0001)  cg2d: iter=    39 ; resid.=  1.98025002340307E-03
(PID.TID 0000.0001)  cg2d: iter=    40 ; resid.=  1.68254950446839E-03
(PID.TID 0000.0001)  cg2d: iter=    41 ; resid.=  1.32019018767897E-03
(PID.TID 0000.0001)  cg2d: iter=    42 ; resid.=  1.12871860438437E-03
(PID.TID 0000.0001)  cg2d: iter=    43 ; resid.=  8.82152430918615E-04
(PID.TID 0000.0001)  cg2d: iter=    44 ; resid.=  7.06167145604910E-04
(PID.TID 0000.0001)  cg2d: iter=    45 ; resid.=  5.91219564280783E-04
(PID.TID 0000.0001)  cg2d: iter=    46 ; resid.=  5.33273526517099E-04
(PID.TID 0000.0001)  cg2d: iter=    47 ; resid.=  4.84644826577084E-04
(PID.TID 0000.0001)  cg2d: iter=    48 ; resid.=  4.06663340560864E-04
(PID.TID 0000.0001)  cg2d: iter=    49 ; resid.=  3.27882128861859E-04
(PID.TID 0000.0001)  cg2d: iter=    50 ; resid.=  2.90179557085261E-04
(PID.TID 0000.0001)  cg2d: iter=    51 ; resid.=  2.32571896482794E-04
(PID.TID 0000.0001)  cg2d: iter=    52 ; resid.=  1.90491767111154E-04
(PID.TID 0000.0001)  cg2d: iter=    53 ; resid.=  1.53952481380401E-04
(PID.TID 0000.0001)  cg2d: iter=    54 ; resid.=  1.20656562544735E-04
(PID.TID 0000.0001)  cg2d: iter=    55 ; resid.=  1.00892822211382E-04
(PID.TID 0000.0001)  cg2d: iter=    56 ; resid.=  7.56694953565383E-05
(PID.TID 0000.0001)  cg2d: iter=    57 ; resid.=  5.83436689019510E-05
(PID.TID 0000.0001)  cg2d: iter=    58 ; resid.=  4.43918675312258E-05
(PID.TID 0000.0001)  cg2d: iter=    59 ; resid.=  3.62993115158724E-05
(PID.TID 0000.0001)  cg2d: iter=    60 ; resid.=  2.97716095528122E-05
(PID.TID 0000.0001)  cg2d: iter=    61 ; resid.=  2.39553658512803E-05
(PID.TID 0000.0001)  cg2d: iter=    62 ; resid.=  2.00112449594106E-05
(PID.TID 0000.0001)  cg2d: iter=    63 ; resid.=  1.84109793196380E-05
(PID.TID 0000.0001)  cg2d: iter=    64 ; resid.=  1.58769590198071E-05
(PID.TID 0000.0001)  cg2d: iter=    65 ; resid.=  1.29317299583089E-05
(PID.TID 0000.0001)  cg2d: iter=    66 ; resid.=  1.05796517139706E-05
(PID.TID 0000.0001)  cg2d: iter=    67 ; resid.=  9.69446272783942E-06
(PID.TID 0000.0001)  cg2d: iter=    68 ; resid.=  8.31954229550089E-06
(PID.TID 0000.0001)  cg2d: iter=    69 ; resid.=  7.11088925631213E-06
(PID.TID 0000.0001)  cg2d: iter=    70 ; resid.=  6.01157263106885E-06
(PID.TID 0000.0001)  cg2d: iter=    71 ; resid.=  4.81822024237235E-06
(PID.TID 0000.0001)  cg2d: iter=    72 ; resid.=  4.03817003873244E-06
(PID.TID 0000.0001)  cg2d: iter=    73 ; resid.=  3.23515837976369E-06
(PID.TID 0000.0001)  cg2d: iter=    74 ; resid.=  2.33850329943906E-06
(PID.TID 0000.0001)  cg2d: iter=    75 ; resid.=  1.78205936397741E-06
(PID.TID 0000.0001)  cg2d: iter=    76 ; resid.=  1.49003296764786E-06
(PID.TID 0000.0001)  cg2d: iter=    77 ; resid.=  1.18170960566201E-06
(PID.TID 0000.0001)  cg2d: iter=    78 ; resid.=  8.94046166188345E-07
(PID.TID 0000.0001)  cg2d: iter=    79 ; resid.=  7.64108755906783E-07
(PID.TID 0000.0001)  cg2d: iter=    80 ; resid.=  6.00993265612533E-07
(PID.TID 0000.0001)  cg2d: iter=    81 ; resid.=  4.31020868080635E-07
(PID.TID 0000.0001)  cg2d: iter=    82 ; resid.=  3.09686455797271E-07
(PID.TID 0000.0001)  cg2d: iter=    83 ; resid.=  2.18206498331547E-07
(PID.TID 0000.0001)  cg2d: iter=    84 ; resid.=  1.67186760168227E-07
(PID.TID 0000.0001)  cg2d: iter=    85 ; resid.=  1.29247405536741E-07
(PID.TID 0000.0001)  cg2d: iter=    86 ; resid.=  1.04908449575490E-07
(PID.TID 0000.0001)  cg2d: iter=    87 ; resid.=  9.11936489224213E-08
(PID.TID 0000.0001)  cg2d: iter=    88 ; resid.=  8.28102615453147E-08
(PID.TID 0000.0001)  cg2d: iter=    89 ; resid.=  7.24461720189156E-08
(PID.TID 0000.0001)  cg2d: iter=    90 ; resid.=  6.05669157406306E-08
(PID.TID 0000.0001)  cg2d: iter=    91 ; resid.=  5.03898255730146E-08
(PID.TID 0000.0001)  cg2d: iter=    92 ; resid.=  4.05027259007633E-08
(PID.TID 0000.0001)  cg2d: iter=    93 ; resid.=  3.12778664830841E-08
(PID.TID 0000.0001)  cg2d: iter=    94 ; resid.=  2.57380613067347E-08
(PID.TID 0000.0001)  cg2d: iter=    95 ; resid.=  2.00104124484105E-08
(PID.TID 0000.0001)  cg2d: iter=    96 ; resid.=  1.38672179419482E-08
(PID.TID 0000.0001)  cg2d: iter=    97 ; resid.=  1.11065318071479E-08
(PID.TID 0000.0001)  cg2d: iter=    98 ; resid.=  9.09911946245870E-09
(PID.TID 0000.0001)  cg2d: iter=    99 ; resid.=  7.30291394306475E-09
(PID.TID 0000.0001)  cg2d: iter=   100 ; resid.=  5.64186191987812E-09
(PID.TID 0000.0001)  cg2d: iter=   101 ; resid.=  3.94894467098601E-09
(PID.TID 0000.0001)  cg2d: iter=   102 ; resid.=  3.12776746379893E-09
(PID.TID 0000.0001)  cg2d: iter=   103 ; resid.=  2.34654742730851E-09
(PID.TID 0000.0001)  cg2d: iter=   104 ; resid.=  1.87252430789595E-09
(PID.TID 0000.0001)  cg2d: iter=   105 ; resid.=  1.41497982212928E-09
(PID.TID 0000.0001)  cg2d: iter=   106 ; resid.=  1.11848573693756E-09
(PID.TID 0000.0001)  cg2d: iter=   107 ; resid.=  8.00901673289477E-10
(PID.TID 0000.0001)  cg2d: iter=   108 ; resid.=  5.56029064176470E-10
(PID.TID 0000.0001)  cg2d: iter=   109 ; resid.=  4.30762516597367E-10
(PID.TID 0000.0001)  cg2d: iter=   110 ; resid.=  3.30133892221052E-10
(PID.TID 0000.0001)  cg2d: iter=   111 ; resid.=  2.51449753498609E-10
(PID.TID 0000.0001)  cg2d: iter=   112 ; resid.=  1.81688116195500E-10
(PID.TID 0000.0001)  cg2d: iter=   113 ; resid.=  1.42437724168689E-10
(PID.TID 0000.0001)  cg2d: iter=   114 ; resid.=  1.12977810265198E-10
(PID.TID 0000.0001)  cg2d: iter=   115 ; resid.=  9.67069371390459E-11
(PID.TID 0000.0001)  cg2d: iter=   116 ; resid.=  7.75954823414301E-11
(PID.TID 0000.0001)  cg2d: iter=   117 ; resid.=  6.62555751003174E-11
(PID.TID 0000.0001)  cg2d: iter=   118 ; resid.=  5.16655613534305E-11
(PID.TID 0000.0001)  cg2d: iter=   119 ; resid.=  4.25989552406499E-11
(PID.TID 0000.0001)  cg2d: iter=   120 ; resid.=  3.67571846050915E-11
(PID.TID 0000.0001)  cg2d: iter=   121 ; resid.=  2.99694882595000E-11
(PID.TID 0000.0001)  cg2d: iter=   122 ; resid.=  2.38965074356353E-11
(PID.TID 0000.0001)  cg2d: iter=   123 ; resid.=  1.75308122885231E-11
(PID.TID 0000.0001)  cg2d: iter=   124 ; resid.=  1.24969396614899E-11
(PID.TID 0000.0001)  cg2d: iter=   125 ; resid.=  9.21347276343815E-12
(PID.TID 0000.0001)  cg2d: iter=   126 ; resid.=  6.39591509567835E-12
(PID.TID 0000.0001)  cg2d: iter=   127 ; resid.=  4.65781914468929E-12
(PID.TID 0000.0001)  cg2d: iter=   128 ; resid.=  3.54196474548517E-12
(PID.TID 0000.0001)  cg2d: iter=   129 ; resid.=  2.59375956031810E-12
(PID.TID 0000.0001)  cg2d: iter=   130 ; resid.=  2.02749063809892E-12
(PID.TID 0000.0001)  cg2d: iter=   131 ; resid.=  1.57839839622981E-12
(PID.TID 0000.0001)  cg2d: iter=   132 ; resid.=  1.16749874413297E-12
(PID.TID 0000.0001)  cg2d: iter=   133 ; resid.=  8.72791790584268E-13
(PID.TID 0000.0001)  cg2d: iter=   134 ; resid.=  6.99770856615762E-13
(PID.TID 0000.0001)  cg2d: iter=   135 ; resid.=  5.54255059350978E-13
(PID.TID 0000.0001)  cg2d: iter=   136 ; resid.=  4.03789243705118E-13
(PID.TID 0000.0001)  cg2d: iter=   137 ; resid.=  3.20171476011112E-13
(PID.TID 0000.0001)  cg2d: iter=   138 ; resid.=  2.44579405098361E-13
(PID.TID 0000.0001)  cg2d: iter=   139 ; resid.=  1.90793676715957E-13
(PID.TID 0000.0001)  cg2d: iter=   140 ; resid.=  1.38671374875897E-13
(PID.TID 0000.0001)  cg2d: iter=   141 ; resid.=  9.01621291998959E-14
DEBUG_STATS_RL:    cg2d_x (SOLVE_FOR_PRESSURE)  min= -2.93607316040440E+01
DEBUG_STATS_RL:    cg2d_x (SOLVE_FOR_PRESSURE)  max=  3.59231107241085E+01
DEBUG_STATS_RL:    cg2d_x (SOLVE_FOR_PRESSURE) mean= -1.63419296838796E+00
DEBUG_STATS_RL:    cg2d_x (SOLVE_FOR_PRESSURE) S.D.=  8.26193664196400E+00
(PID.TID 0000.0001)      cg2d_init_res =   1.23453238806817E+00
(PID.TID 0000.0001)      cg2d_iters(min,last) =      -1     141
(PID.TID 0000.0001)      cg2d_last_res =   9.01621291998959E-14
(PID.TID 0000.0001) // =======================================================
(PID.TID 0000.0001) // Begin MONITOR dynamic field statistics
(PID.TID 0000.0001) // =======================================================
(PID.TID 0000.0001) %MON time_tsnumber                =                    10
(PID.TID 0000.0001) %MON time_secondsf                =   8.6400000000000E+05
(PID.TID 0000.0001) %MON dynstat_eta_max              =   3.6618869239662E+00
(PID.TID 0000.0001) %MON dynstat_eta_min              =  -2.9929390014323E+00
(PID.TID 0000.0001) %MON dynstat_eta_mean             =  -6.8481775787109E-04
(PID.TID 0000.0001) %MON dynstat_eta_sd               =   7.5855087970148E-01
(PID.TID 0000.0001) %MON dynstat_eta_del2             =   2.2183802788135E-03
(PID.TID 0000.0001) %MON dynstat_uvel_max             =   1.6639594150323E-01
(PID.TID 0000.0001) %MON dynstat_uvel_min             =  -1.1517571406023E-01
(PID.TID 0000.0001) %MON dynstat_uvel_mean            =   3.1236357327244E-03
(PID.TID 0000.0001) %MON dynstat_uvel_sd              =   1.4798117455362E-02
(PID.TID 0000.0001) %MON dynstat_uvel_del2            =   9.8672638578972E-05
(PID.TID 0000.0001) %MON dynstat_vvel_max             =   9.9030008138390E-02
(PID.TID 0000.0001) %MON dynstat_vvel_min             =  -1.0889128327554E-01
(PID.TID 0000.0001) %MON dynstat_vvel_mean            =   7.4223188990203E-05
(PID.TID 0000.0001) %MON dynstat_vvel_sd              =   1.1655086220741E-02
(PID.TID 0000.0001) %MON dynstat_vvel_del2            =   1.0901475830194E-04
(PID.TID 0000.0001) %MON dynstat_wvel_max             =   2.2113692216401E-04
(PID.TID 0000.0001) %MON dynstat_wvel_min             =  -2.2706335758029E-04
(PID.TID 0000.0001) %MON dynstat_wvel_mean            =  -5.6190873679445E-22
(PID.TID 0000.0001) %MON dynstat_wvel_sd              =   2.4674008370092E-05
(PID.TID 0000.0001) %MON dynstat_wvel_del2            =   2.8984607690422E-07
(PID.TID 0000.0001) %MON dynstat_theta_max            =   2.9887606595281E+01
(PID.TID 0000.0001) %MON dynstat_theta_min            =  -1.9271002960589E+00
(PID.TID 0000.0001) %MON dynstat_theta_mean           =   3.6394283958440E+00
(PID.TID 0000.0001) %MON dynstat_theta_sd             =   4.4152562831393E+00
(PID.TID 0000.0001) %MON dynstat_theta_del2           =   5.0933602394363E-03
(PID.TID 0000.0001) %MON dynstat_salt_max             =   3.7456793153924E+01
(PID.TID 0000.0001) %MON dynstat_salt_min             =   2.9797997418669E+01
(PID.TID 0000.0001) %MON dynstat_salt_mean            =   3.4737988147286E+01
(PID.TID 0000.0001) %MON dynstat_salt_sd              =   2.9615143232781E-01
(PID.TID 0000.0001) %MON dynstat_salt_del2            =   1.0106750637684E-03
(PID.TID 0000.0001) %MON dynstat_sst_max              =   2.9887606595281E+01
(PID.TID 0000.0001) %MON dynstat_sst_min              =  -1.9271002960589E+00
(PID.TID 0000.0001) %MON dynstat_sst_mean             =   1.8621024194368E+01
(PID.TID 0000.0001) %MON dynstat_sst_sd               =   9.0873258774969E+00
(PID.TID 0000.0001) %MON dynstat_sst_del2             =   2.6223493960082E-02
(PID.TID 0000.0001) %MON dynstat_sss_max              =   3.7451153152116E+01
(PID.TID 0000.0001) %MON dynstat_sss_min              =   2.9797997418669E+01
(PID.TID 0000.0001) %MON dynstat_sss_mean             =   3.4874042719869E+01
(PID.TID 0000.0001) %MON dynstat_sss_sd               =   9.6725433792656E-01
(PID.TID 0000.0001) %MON dynstat_sss_del2             =   8.0002837066186E-03
(PID.TID 0000.0001) %MON forcing_qnet_max             =   4.3532449340820E+02
(PID.TID 0000.0001) %MON forcing_qnet_min             =  -1.8282252197266E+02
(PID.TID 0000.0001) %MON forcing_qnet_mean            =  -1.6587597735982E+01
(PID.TID 0000.0001) %MON forcing_qnet_sd              =   1.1099484968291E+02
(PID.TID 0000.0001) %MON forcing_qnet_del2            =   1.0064568232602E+00
(PID.TID 0000.0001) %MON forcing_qsw_max              =   0.0000000000000E+00
(PID.TID 0000.0001) %MON forcing_qsw_min              =   0.0000000000000E+00
(PID.TID 0000.0001) %MON forcing_qsw_mean             =   0.0000000000000E+00
(PID.TID 0000.0001) %MON forcing_qsw_sd               =   0.0000000000000E+00
(PID.TID 0000.0001) %MON forcing_qsw_del2             =   0.0000000000000E+00
(PID.TID 0000.0001) %MON forcing_empmr_max            =   8.1892606829115E-05
(PID.TID 0000.0001) %MON forcing_empmr_min            =  -7.3098166808450E-05
(PID.TID 0000.0001) %MON forcing_empmr_mean           =   8.6431851563760E-07
(PID.TID 0000.0001) %MON forcing_empmr_sd             =   2.8285734796509E-05
(PID.TID 0000.0001) %MON forcing_empmr_del2           =   3.6322996729435E-07
(PID.TID 0000.0001) %MON forcing_fu_max               =   2.7001778483391E-01
(PID.TID 0000.0001) %MON forcing_fu_min               =  -1.6600005030632E-01
(PID.TID 0000.0001) %MON forcing_fu_mean              =   1.6047892078789E-02
(PID.TID 0000.0001) %MON forcing_fu_sd                =   9.0407764820516E-02
(PID.TID 0000.0001) %MON forcing_fu_del2              =   6.8344110701255E-04
(PID.TID 0000.0001) %MON forcing_fv_max               =   2.2184188961983E-01
(PID.TID 0000.0001) %MON forcing_fv_min               =  -1.8164484500885E-01
(PID.TID 0000.0001) %MON forcing_fv_mean              =  -5.7014729006699E-03
(PID.TID 0000.0001) %MON forcing_fv_sd                =   4.6628624802842E-02
(PID.TID 0000.0001) %MON forcing_fv_del2              =   4.6475770842672E-04
(PID.TID 0000.0001) %MON trAdv_CFL_u_max              =   7.9957610043742E-02
(PID.TID 0000.0001) %MON trAdv_CFL_v_max              =   2.0888570818628E-02
(PID.TID 0000.0001) %MON trAdv_CFL_w_max              =   1.3063150237802E-01
(PID.TID 0000.0001) %MON advcfl_uvel_max              =   8.1182008074355E-02
(PID.TID 0000.0001) %MON advcfl_vvel_max              =   2.1155829934216E-02
(PID.TID 0000.0001) %MON advcfl_wvel_max              =   1.0932833123328E-01
(PID.TID 0000.0001) %MON advcfl_W_hf_max              =   1.2885124752493E-01
(PID.TID 0000.0001) %MON pe_b_mean                    =   7.3629353439768E-04
(PID.TID 0000.0001) %MON ke_max                       =   1.3871436240357E-02
(PID.TID 0000.0001) %MON ke_mean                      =   1.6490813960642E-04
(PID.TID 0000.0001) %MON ke_vol                       =   1.3226782436723E+18
(PID.TID 0000.0001) %MON vort_r_min                   =  -8.2618388854919E-07
(PID.TID 0000.0001) %MON vort_r_max                   =   6.8978157247951E-07
(PID.TID 0000.0001) %MON vort_a_mean                  =  -2.5274805690608E-05
(PID.TID 0000.0001) %MON vort_a_sd                    =   7.3605208493191E-05
(PID.TID 0000.0001) %MON vort_p_mean                  =  -3.1845653648891E-05
(PID.TID 0000.0001) %MON vort_p_sd                    =   1.3162251666852E-04
(PID.TID 0000.0001) %MON surfExpan_theta_mean         =   9.6350584427565E-06
(PID.TID 0000.0001) %MON surfExpan_salt_mean          =   4.5475620753536E-07
(PID.TID 0000.0001) // =======================================================
(PID.TID 0000.0001) // End MONITOR dynamic field statistics
(PID.TID 0000.0001) // =======================================================
(PID.TID 0000.0001) // =======================================================
(PID.TID 0000.0001) // Field Current uVel   at iteration         10
(PID.TID 0000.0001) // CMIN =         -1.151757140602276E-01
(PID.TID 0000.0001) // CMAX =          1.663959415032326E-01
(PID.TID 0000.0001) // CINT =          1.042857983568371E-02
(PID.TID 0000.0001) // SYMBOLS (CMIN->CMAX): -abcdefghijklmnopqrstuvwxyz+
(PID.TID 0000.0001) //                  0.0: .
(PID.TID 0000.0001) // RANGE I (Lo:Hi:Step):(     1:    90:     1)
(PID.TID 0000.0001) // RANGE J (Lo:Hi:Step):(    40:     1:    -1)
(PID.TID 0000.0001) // RANGE K (Lo:Hi:Step):(   1:   1:   1)
(PID.TID 0000.0001) // =======================================================
(PID.TID 0000.0001) K =   1
(PID.TID 0000.0001)                I=10      I=20      I=30      I=40      I=50      I=60      I=70      I=80      I=90
(PID.TID 0000.0001) |--J--|123456789|123456789|123456789|123456789|123456789|123456789|123456789|123456789|123456789|
(PID.TID 0000.0001)     40 kkjii..jihhhfccdefi...................................................................kkkk
(PID.TID 0000.0001)     39 jkkibb-acdfghi....k......................................................kkk.........jihii
(PID.TID 0000.0001)     38 jkkkhhefghhhj............................................................kkkk.......gffgii
(PID.TID 0000.0001)     37 llk...................................................................k....jj....iifg..ijk
(PID.TID 0000.0001)     36 ll..........................................hhi.....................lnprsttlgi..jijjjihddj
(PID.TID 0000.0001)     35 ij..................................jjj...jhfffj....jjjk............ll.....mklmllmnnooomfg
(PID.TID 0000.0001)     34 ....................................kii..iiiihij..mmllllk...................mpqpqrrsssqo..
(PID.TID 0000.0001)     33 .....................................jlljijkkjkmmmmnopppoml..................prruwwuutspm.
(PID.TID 0000.0001)     32 .....................................kmmmlmnnmnooppqrrrrqpn.................oqsrsvvtsrqpm.
(PID.TID 0000.0001)     31 .....................................moppppopopqqqrrrrrrqqp...............portutttsqppon..
(PID.TID 0000.0001)     30 ....................................rsttttttsqrsssssrrqpppo.............qrqqsttusrqpnnnm..
(PID.TID 0000.0001)     29 ..................................moqtuwuttvutsrrrsrqpponnnn............pqqppponnnnmlllk..
(PID.TID 0000.0001)     28 ................................lmnmnoqsrqqqrppponppommmlkklm..........mmmmllllkjkkkjkkl..
(PID.TID 0000.0001)     27 ...............k...............jhijiijlmmmmmnmmnmklmmllkjjjjkl....kln..lllllklljhhiiii....
(PID.TID 0000.0001)     26 ...............kk............kedgggggijjjjkkkkkkkjjkkjjjiiiiijkj..llhhjkkkkkkkkjihhihh....
(PID.TID 0000.0001)     25 ...............jjg....kl....kgeefeeggihghihiijjihihiihhhhghigijjj....ihiljkiijiihfhhgg....
(PID.TID 0000.0001)     24 .............jggigh..gik....hg..hefghggefhgghijjhhhhigghhgggghhijjij..khikjjhiihggihij....
(PID.TID 0000.0001)     23 .............hhgggh..iii....fh...iijjhihghiiijikjjjjkkjjjihiiihijihgh.....jljjjghijjkm....
(PID.TID 0000.0001)     22 l............ihggghijkji....i..mlmklkjlkjjkkjljjkmlkmmkkkjkkkllkkkiiik.......kkhikkkjljkjl
(PID.TID 0000.0001)     21 khk.........iijijiijklkkj......jnnlllmmmlllllmlilmkkmlkmlkkikllkkkjjjl.........jjllkjkklkl
(PID.TID 0000.0001)     20 jhk........kkklmkjjkkllki.........llmonnmmlmmlmkmnllnlklnlkjlmlkkjikkl..........jlkkkkkkjm
(PID.TID 0000.0001)     19 ihi........mmlmoljilkkljiik....nl......oomnmnlnlmnllmmllmlkkllkjkkiikl............kjjjkkmm
(PID.TID 0000.0001)     18 jhj........nmlkojjhiijljiikjjlomk....kmnmmnnomnmnnllmmmnmkjkkkkjkjigjlk...........kjkjlkkk
(PID.TID 0000.0001)     17 jjj..........iikijhfhhkjjjjklll......klklmnmmmmllmllkmmmljjkkkkjkihgkmk..........klkjkljhj
(PID.TID 0000.0001)     16 iij.......l..jjjjkdhkiijjiiklk........jjklmllmnmlmklkmnlkjjkkkjkkijjjmkk.........kkjjkkjij
(PID.TID 0000.0001)     15 iiji.....lm..mmlmndiqmhjjkljk..........kllmlknnmllklmnnkkjlmjjkmmjjjikjjj.......lklkjklkjj
(PID.TID 0000.0001)     14 jjjh.....jkjlonnomhnsmiiillij..........lklmmlnonllmonnnmlmnmimomljjkjjilj......mllmmklljlk
(PID.TID 0000.0001)     13 lmkh.....jmoonmllllonlijmnlig..........nmmonnonmmmnommnoooomlrqlmllmmljmk.....lmmlnnlmmmon
(PID.TID 0000.0001)     12 ponljhhloorrokkllmmmmlmnpolkjllkki.....oononmnmmmnnmlmnooooppromnponnlll......ponmponqppqp
(PID.TID 0000.0001)     11 srronnsuvuvutpqrqrrqrqqrrppponnnmml...oppon..mmmnolllmmmnnopqpnmprqponml.....osqqqsrqrrrrs
(PID.TID 0000.0001)     10 uuutuuyxxxwxxuwyz+zxwvvuuuusrqqponml..ooppn..llmmllmmnmmnoopqqoorssrponm...nnqtttstutuuuuu
(PID.TID 0000.0001)      9 wwwwyyyxwwuuvwxz+yxxwwwwwwvvvtsrrpptpnopqp..mmmmmnooopoopqrsrrqqstsqppoo..moprttuvvwvvxyvw
(PID.TID 0000.0001)      8 vwxyyyxvvustuuuvrqqsuvvwwvvvvtuvvvwzxvuutqnnoppprtttuutuvvvvussrstrrqrqo..lknrstuuvvuuvvut
(PID.TID 0000.0001)      7 rtutssrrrrrrrqqqpomnrqrssssrrrstuvxzxwwwusrrqqrsvwwxyywxxvtutsrrsssssssttomnrttrqprqqrsrqq
(PID.TID 0000.0001)      6 oonmmmmnnoonoonnnnnlkkmoooooopqrssssrqrssssttssuvuuvvussrqqrrrqqrssttuvvvwwxwvsqoonmnoppoo
(PID.TID 0000.0001)      5 kkjjjkklmmmlllkklmlkkjkkkjjkmnnnnnnnnoooopqssrsssrqqonmmmmopqpppqrrsstuvvtsqponommlllmmmlk
(PID.TID 0000.0001)      4 iihhiiijjjjijiijjjjjiiihdegijjjjjjkkkkkjjklmnmnnmllkjjijklmnnnnnoooppqqpnl...jlkkkjjjjjjii
(PID.TID 0000.0001)      3 iihhhiiijj.............................iiiiiiijjiiihhhhhjkkllllllmlllllkk...kjjjiiiiiiiiii
(PID.TID 0000.0001)      2 ...........................................kjkkjjjjiiiijjkkkkkjj...kjk......kkkkjjjjkkk...
(PID.TID 0000.0001)      1 ..........................................................................................
(PID.TID 0000.0001) // =======================================================
(PID.TID 0000.0001) // END OF FIELD                                          =
(PID.TID 0000.0001) // =======================================================
(PID.TID 0000.0001) 
(PID.TID 0000.0001) // =======================================================
(PID.TID 0000.0001) // Field Current vVel   at iteration         10
(PID.TID 0000.0001) // CMIN =         -1.015685404658958E-01
(PID.TID 0000.0001) // CMAX =          9.812689237309186E-02
(PID.TID 0000.0001) // CINT =          7.396127142184726E-03
(PID.TID 0000.0001) // SYMBOLS (CMIN->CMAX): -abcdefghijklmnopqrstuvwxyz+
(PID.TID 0000.0001) //                  0.0: .
(PID.TID 0000.0001) // RANGE I (Lo:Hi:Step):(     1:    90:     1)
(PID.TID 0000.0001) // RANGE J (Lo:Hi:Step):(    40:     1:    -1)
(PID.TID 0000.0001) // RANGE K (Lo:Hi:Step):(   1:   1:   1)
(PID.TID 0000.0001) // =======================================================
(PID.TID 0000.0001) K =   1
(PID.TID 0000.0001)                I=10      I=20      I=30      I=40      I=50      I=60      I=70      I=80      I=90
(PID.TID 0000.0001) |--J--|123456789|123456789|123456789|123456789|123456789|123456789|123456789|123456789|123456789|
(PID.TID 0000.0001)     40 kmpsu.fefghhhh...vv..................................................................ljjjj
(PID.TID 0000.0001)     39 mnprrppnmlmmm...........................................................nlkl........kjkkkl
(PID.TID 0000.0001)     38 llm.......................................................................igj......dc.omml
(PID.TID 0000.0001)     37 kl...................................................................lj...iej...kmnno.fhkj
(PID.TID 0000.0001)     36 kl.........................................oqrp....................nnq....gfgi.jklmnmkiiii
(PID.TID 0000.0001)     35 ...................................kklm..pooppnl...mnqst...................jhhjjjlnmkjjn..
(PID.TID 0000.0001)     34 ....................................kjj.nmllmoon.lkmoqstr...................igjllnopomlm..
(PID.TID 0000.0001)     33 ....................................kghijkllnqpnoonoprssrqp.................mjkoonopmjikm.
(PID.TID 0000.0001)     32 ....................................jggijjlmnpnmoooprsssroo................pnnpplklkihhk..
(PID.TID 0000.0001)     31 ....................................onmllmnlkmlmoppprsssqno..............puwuutqonnmmlln..
(PID.TID 0000.0001)     30 ...................................utrpopqpnnnnnppoprstronn............tsuuqnlklmnnmmmmo..
(PID.TID 0000.0001)     29 .................................srronnnoonmnonmnnoprrrqonmm...........nmmkjjklmnnnnmnoo..
(PID.TID 0000.0001)     28 ...............................kmlllkkjjlnmmmnnmmoprsrqqpnmmm.........nllmllllkllllmlm....
(PID.TID 0000.0001)     27 ..............nm..............knlklmlkknpponnnnopppqqqpponmmmn...mnns.pppppqqpqpooppon....
(PID.TID 0000.0001)     26 ..............nmn...........kmoljjllkkmppnnonmlmmlllmnoonommoooo....rpoonnmnnlmmnpnlml....
(PID.TID 0000.0001)     25 ..............jmoo...mmm...kms.edefgfhiiiiiihhgghiihhhihiijnoopqp....kijkijiiijlnljkjg....
(PID.TID 0000.0001)     24 ............opoosts.nlln...jnq..--abcdddfgfefgjlllkjihgghikkjjkjiiln.....eihhijlmlkkjk....
(PID.TID 0000.0001)     23 ............lklmoon.nkkk...np...hikklmlmlllnooqstssttssuvvtsrqnnnnooo.......knopnnnorv....
(PID.TID 0000.0001)     22 o...........lnonjhhgfhjl......nsqqqqqpoonmopoonqppqrrsusqpprqqpqqrponm........nmmmopqsroon
(PID.TID 0000.0001)     21 mlk........llmmkkkkjlmnpp......o.llnnmmllllmloomnnnmnooponoomllmmnonml.........ilmnnmmmnml
(PID.TID 0000.0001)     20 lln.......mljjjhikmmmooon......r......onlmlllmnmnppqrrqqrrrppqqqpoprsr...........noopppplk
(PID.TID 0000.0001)     19 mmn.......ssrrtqqoortusqomm...opm.....kkmmmkkjjjjklnpponoqqqqrqqpnmopp...........onnmmlmop
(PID.TID 0000.0001)     18 pmm.......t.xxx+yuqrrttsqpqomov.....nnnrqonnommmnmkloqppppqrssssrqqqrpo..........ooooonnqr
(PID.TID 0000.0001)     17 rqp.......r.wvtvusurlknnmmnnnn.......npopppqqqomnnmmmmmnoopppprrrqolopo.........klnpqrsrqr
(PID.TID 0000.0001)     16 rrr......sq.rpnooknsnhknomikm.........onllllmmmklllllmllnoomopppnnnnprrp........lmnnprsrqr
(PID.TID 0000.0001)     15 qrsr....rtt.kjhgggdjkgfilnmml.........oonljhhjjhhihghkljllmnppmnnnpoptwtq......nkllklnprqp
(PID.TID 0000.0001)     14 qrst....orsmijjijiegmlkmnoooq.........mnnnkhghhhfeeddfhgfgijmomnomnonnqro.....omlmmklmoqqp
(PID.TID 0000.0001)     13 nopq....mmomlmonnmlmnnlkmnopp.........lllmliijjjjiijhghgefgeeilkmkkmmnor.....pnmlmmlkjjknn
(PID.TID 0000.0001)     12 mmmmlnkgegmqnoqpppprnmnnopnmlmnnpp....mmnpo.mmmmmkkkkkllkjkkijjlnnlklnpr.....llkjkljjljkll
(PID.TID 0000.0001)     11 llljeehgebdfddjmlkjlnmlmnnnmllmllnp..knnpqp.llnnpponmmnpqnmnnljloqnkkmop....hlnjghkjjkkjll
(PID.TID 0000.0001)     10 mmlmkijkljjlicdhiihhknonmlmmkkmonost.noonp..nmnprrqqpomosutqpomloqpnmmno..rpklppnkjjilliik
(PID.TID 0000.0001)      9 jllllkjlnmloqommoqpljlopomkkihhiiglqonoppp.pnlmmnopqqpmmmosrpomnrrppomlr.ouwtqqqomlkjmpnii
(PID.TID 0000.0001)      8 mmmlmmkklnmlmoqrqqrqljlnnonljhgghhjieegilprrommooljjjijlkjnomlkknonnnnlo.lrxzxvusrnlknrrom
(PID.TID 0000.0001)      7 oonnnonlkmoonmmoqrsrqnnnmmmmmkkjikppifggfhmppnnqrpnmjfeijimpnkjjlmlllmnpttqrtuutrrpmlmpqpo
(PID.TID 0000.0001)      6 oomlmmmmmkklmmllnpqqommmkiijkkklkjmqomkiffhkmnoqqqqrplihggjnmjiikkkjjlmnqrqpqrrpnoomlmnono
(PID.TID 0000.0001)      5 mmlkkjjllkkllkkklmmmmlkkkjjkllllllklmnnlkjiijmpqpoppnmkjiikmmkjjlllllmnnoo..uronnnnmmmmmmm
(PID.TID 0000.0001)      4 kkjkkjjjjk............................qooonmlmopponnlkkklmmmmlkkkllmmnnnm...qonmmmmmmmllkk
(PID.TID 0000.0001)      3 ..........................................nnmlllllllkjkmooonmllm..mmmn.....nnmlkklmmmmm...
(PID.TID 0000.0001)      2 ..........................................................................................
(PID.TID 0000.0001)      1 ..........................................................................................
(PID.TID 0000.0001) // =======================================================
(PID.TID 0000.0001) // END OF FIELD                                          =
(PID.TID 0000.0001) // =======================================================
(PID.TID 0000.0001) 
(PID.TID 0000.0001) // =======================================================
(PID.TID 0000.0001) // Field Current theta  at iteration         10
(PID.TID 0000.0001) // CMIN =         -1.927100296058907E+00
(PID.TID 0000.0001) // CMAX =          2.988760659528092E+01
(PID.TID 0000.0001) // CINT =          1.178322477457030E+00
(PID.TID 0000.0001) // SYMBOLS (CMIN->CMAX): -abcdefghijklmnopqrstuvwxyz+
(PID.TID 0000.0001) //                  0.0: .
(PID.TID 0000.0001) // RANGE I (Lo:Hi:Step):(     1:    90:     1)
(PID.TID 0000.0001) // RANGE J (Lo:Hi:Step):(    40:     1:    -1)
(PID.TID 0000.0001) // RANGE K (Lo:Hi:Step):(   1:   1:   1)
(PID.TID 0000.0001) // =======================================================
(PID.TID 0000.0001) K =   1
(PID.TID 0000.0001)                I=10      I=20      I=30      I=40      I=50      I=60      I=70      I=80      I=90
(PID.TID 0000.0001) |--J--|123456789|123456789|123456789|123456789|123456789|123456789|123456789|123456789|123456789|
(PID.TID 0000.0001)     40 abbcdbbaa----abcdddbbbbbbbbbbbbbbbbbbbbbbbbbbbbbbbbbbbbbbbbbbbbbbbbbbbbbbbbbbbbbbbbbbbbbba
(PID.TID 0000.0001)     39 bcdddccbbaaaa-bbbedbbbbbbbbbbbbbbbbbbbbbbbbbbbbbbbbbbbbbbbbbbbbbbbbbbbbb----bbbbbbbbbbbaab
(PID.TID 0000.0001)     38 effffeddddcccbbbbbbbbbbbbbbbbbbbbbbbbbbbbbbbbbbbbbbbbbbbbbbbbbbbbbbbbbbb-----bbbbbbcabbbde
(PID.TID 0000.0001)     37 gghbbbbbbbbbbbbbbbbbbbbbbbbbbbbbbbbbbbbbbbbbbbbbbbbbbbbbbbbbbbbbbbbbbbcbbbbabbbbedddfbdeef
(PID.TID 0000.0001)     36 hhbbbbbbbbbbbbbbbbbbbbbbbbbbbbbbbbbbbbbbbbbdcbabbbbbbbbbbbbbbbbbbbbdcccbabbccdbeefgghhhhhh
(PID.TID 0000.0001)     35 ggbbbbbbbbbbbbbbbbbbbbbbbbbbbbbbbbbaaaabbccdddccbbbffffgbbbbbbbbbbbbbbbbbbccdeeeffghijjiih
(PID.TID 0000.0001)     34 bbbbbbbbbbbbbbbbbbbbbbbbbbbbbbbbbbba-abbcddddddebeefffghhbbbbbbbbbbbbbbbbbbcbcefgghjjkjjbb
(PID.TID 0000.0001)     33 bbbbbbbbbbbbbbbbbbbbbbbbbbbbbbbbbbbb-bcccddeeeeefffffgghhhibbbbbbbbbbbbbbbbbbceijjkkllkkkb
(PID.TID 0000.0001)     32 bbbbbbbbbbbbbbbbbbbbbbbbbbbbbbbbbbbbbcdddeffffgghhhhhiiiiijbbbbbbbbbbbbbbbbcccgkmmmmmlllkb
(PID.TID 0000.0001)     31 bbbbbbbbbbbbbbbbbbbbbbbbbbbbbbbbbbbbfghhhhiiiijjjjjkkkkllkkbbbbbbbbbbbbbbhjjjjmoooonnmmmbb
(PID.TID 0000.0001)     30 bbbbbbbbbbbbbbbbbbbbbbbbbbbbbbbbbbbmlmmmmmmmmmmmmmmmnnnnnmlbbbbbbbbbbbbmopqqqqqqqqppoooobb
(PID.TID 0000.0001)     29 bbbbbbbbbbbbbbbbbbbbbbbbbbbbbbbbbpppppppppppooooooooppppponmbbbbbbbbbbbrrrrrrrrrqqqqqpppbb
(PID.TID 0000.0001)     28 bbbbbbbbbbbbbbbbbbbbbbbbbbbbbbbprrrrrrrrrrrrrrrrrrrrrrrrqqpoobbbbbbbbbttssssssrrrrrrrqqpbb
(PID.TID 0000.0001)     27 bbbbbbbbbbbbbbvvbbbbbbbbbbbbbbssttstttttttttttttttttttssrrqqqqbbbsstubuuuuuuuuttttsssrbbbb
(PID.TID 0000.0001)     26 bbbbbbbbbbbbbbvvubbbbbbbbbbbutuuuuvvvvvvvvvvvvvvvvvuuutttssrsstubtuvwwvwvvvvvvvvuttssrbbbb
(PID.TID 0000.0001)     25 bbbbbbbbbbbbbbvvwxbbbxwxbbbuuvwwwwxxxxxxxxwwwwwwwwvvvvvuuuttuuvwxbbbxxxwwwwwwwwvvvutsqbbbb
(PID.TID 0000.0001)     24 bbbbbbbbbbbbwwwwxyybxxxxbbbwwxbyyyyyyyyxxxxxxxxwwwwwvwwwvvvwwwxxxwvwbxxwwwwwwwwwvvvutrbbbb
(PID.TID 0000.0001)     23 bbbbbbbbbbbbxxxxyyzbxxyybbbwxxbbyyyyyyyyyyyxxxxxxxxxxxxwwwwxxxxwwwwwwbbbbwwxxxxwwwwvvubbbb
(PID.TID 0000.0001)     22 wbbbbbbbbbbbxxyyyyyyyyyybbbxxbyyzzyzzzzzzzzzzyyyyyyyyyxwwwxxxxwvvwwwxwbbbbbbyyxxxxxxxxxxxw
(PID.TID 0000.0001)     21 xxxbbbbbbbbxxxxyyzzyzzzz+bbbbbzyzzzzzzz++zzzyyyyyyyyyxxwvvwwwwvvvvvvvubbbbbbbbyyyyyyyyyxxx
(PID.TID 0000.0001)     20 xwwbbbbbbbxyyyyxyyzzzzzz+bbbbbbzbzzzzz+++zzzzzzzyyyyxxxxwwwxwvvvvvvvutbbbbbbbbbyyyyyxxxxwx
(PID.TID 0000.0001)     19 vvvbbbbbbbyzyyxwwxyzzyzzzzzbbbzzzbbbbb++++++z+zzzzzzyyyyxxxxxwwvwwwwvubbbbbbbbbbbyyxxxwwww
(PID.TID 0000.0001)     18 uutbbbbbbbzzzyyxxxyzyyzyzzzzzzzzzbbbz+z++++zz+++++++zzzyyyyxxwwwvvwvvutbbbbbbbbbbyyxxwvvwv
(PID.TID 0000.0001)     17 uusbbbbbbbzbzyyyyyxyzyyyyyyyyzzbbbbbyzzzzzzzzzzzzzzzzzyyyyyxxwwvuuvvuuubbbbbbbbbyyyxxwuuvu
(PID.TID 0000.0001)     16 utsbbbbbbyybzyyyyxxxxxxxwxxxxybbbbbbbyyyyyyyyyyyyyyyyyyyyyyyxxwwvvuuuttsbbbbbbbbxyyyxwvuuu
(PID.TID 0000.0001)     15 ttsrbbbbxxxbxxxxxwwwwvwwvvwwwbbbbbbbbbxwxxxxxxxxxxxxxxxxxyyyxwwwvvuuttsssbbbbbbwxxxxxxwvuu
(PID.TID 0000.0001)     14 ttsqbbbbxyxxwxwvwwwvutuuuuuuubbbbbbbbbwwvwwwwwwwwwwwwwwwwxxwwwwvvvuutssrrbbbbbvwwwwwwwvvvu
(PID.TID 0000.0001)     13 tttrbbbbwwwvvvutuuvuuuttsstttbbbbbbbbbvvvuuuuuuuuuttuuuuuvvwwwvuuututssrrbbbbvvvvvvvvvvvuu
(PID.TID 0000.0001)     12 sssssstttutsstsssrrrstsrrrsssqqrrqbbbbuuutsssssrrrrrrrrrrstuttsstssssrrpbbbbbuuuuttttttstt
(PID.TID 0000.0001)     11 qpprssssqrrqqrqqqpoopqqoppppppppppqbbttsrrrbrqqqqqqqqqqqqqrrpppqrqrrrqqpbbbbprssrqqrqqqppq
(PID.TID 0000.0001)     10 mllnopponnnonoooonnmnnmmmmllmnnnnooobqqqqqpbpppppppooooooooonnoooooooooobbnnopponnnnoonnmm
(PID.TID 0000.0001)      9 iihijjiiiiiiiijjiijjjjiiiijiijkklmnmlnnnnobmmmnnnonnnnnnnnmlllmmmmllmmmmbmmmmmmllkjjkkjiii
(PID.TID 0000.0001)      8 ffffffffeefghggffffghhffgggggiijjjkkjklllllkkklllkllllkllkkjijkkkkjjjkkjbkkjjjiihhggggfeee
(PID.TID 0000.0001)      7 ccddddeeeedeffeeeeeeedddefffffggggghhhiijjjijjjjiiihhhhhiiihhhhiiiiiiiiiiiihhggfeeeddddddc
(PID.TID 0000.0001)      6 bbbcdddddddddddddddddddeddddcdeeeeeeeffgghhhghhihfeedeeefffffefggggghhhhhhggfeedccccccbcbb
(PID.TID 0000.0001)      5 bcccccccccddddddddcccdddcccdddddddddddddeeeeeeeeeccbbccccddddddeeeeffeeeeeeddcccbbbbbbbbbb
(PID.TID 0000.0001)      4 cccccbbbbbbbbbccccccbbbabbabbbbcbbbbbbbcccccbbbbbbbbbbbbbbbbccccccccccccccbbaaaabbbbbbbbbb
(PID.TID 0000.0001)      3 bbbbbaaaaabbbbbbbbbbbbbbbbbbbbbbbbbbbbbbaabbaaaabbbbbbaaaaaaaabaaaaaaaaabbbaaaaaaabbbbbbab
(PID.TID 0000.0001)      2 bbbbbbbbbbbbbbbbbbbbbbbbbbbbbbbbbbbbbbbbbbbbbbbaaaaaaaaaaaa--aaabbaaaabbbbbaaaaaaabbbbabbb
(PID.TID 0000.0001)      1 bbbbbbbbbbbbbbbbbbbbbbbbbbbbbbbbbbbbbbbbbbbbbbbbbbbbbbbbbbbbbbbbbbbbbbbbbbbbbbbbbbbbbbbbbb
(PID.TID 0000.0001) // =======================================================
(PID.TID 0000.0001) // END OF FIELD                                          =
(PID.TID 0000.0001) // =======================================================
(PID.TID 0000.0001) 
(PID.TID 0000.0001) // =======================================================
(PID.TID 0000.0001) // Field Current etaN   at iteration         10
(PID.TID 0000.0001) // CMIN =         -2.992939001432271E+00
(PID.TID 0000.0001) // CMAX =          3.661886923966221E+00
(PID.TID 0000.0001) // CINT =          2.464750342740183E-01
(PID.TID 0000.0001) // SYMBOLS (CMIN->CMAX): -abcdefghijklmnopqrstuvwxyz+
(PID.TID 0000.0001) //                  0.0: .
(PID.TID 0000.0001) // RANGE I (Lo:Hi:Step):(    -1:    92:     1)
(PID.TID 0000.0001) // RANGE J (Lo:Hi:Step):(    42:    -1:    -1)
(PID.TID 0000.0001) // RANGE K (Lo:Hi:Step):(   1:   1:   1)
(PID.TID 0000.0001) // =======================================================
(PID.TID 0000.0001) K =   1
(PID.TID 0000.0001)                I=8       I=18      I=28      I=38      I=48      I=58      I=68      I=78      I=88
(PID.TID 0000.0001) |--J--|101234567|901234567|901234567|901234567|901234567|901234567|901234567|901234567|901234567|9012
(PID.TID 0000.0001)     42 ............................................jjjiiiiiiiiiiiiihhhhhh..hhhg.....kjjjjjjjjjjj.....
(PID.TID 0000.0001)     41 ..............................................................................................
(PID.TID 0000.0001)     40 a------.ddddddddddeee..................................................................aaaa---
(PID.TID 0000.0001)     39 aaaa-aabbbbbbbbb...hh.....................................................cccc........bbaaaaaa
(PID.TID 0000.0001)     38 baaaaaaaaaaaaaa...........................................................ddccc......ccbbbbaaa
(PID.TID 0000.0001)     37 bbbba..................................................................ll...edd...ccccb.cbbbbb
(PID.TID 0000.0001)     36 bbbb.........................................kkkj....................nmmkjigfeed.ddccccccbbbbb
(PID.TID 0000.0001)     35 baaa.................................llll..kkkkkkj...jjiii...........ooo....feedddddddcccbbaaa
(PID.TID 0000.0001)     34 .....................................mlll.llkkkkkk.kjjiiijj..................ffeeeeddddddd....
(PID.TID 0000.0001)     33 e.....................................mmlllllkkkkkkkjjjjjjjjj.................gfffffeeeeeee...
(PID.TID 0000.0001)     32 e.....................................nmmlllllllllkkkkkkkkkjj................hhhggggggfffee...
(PID.TID 0000.0001)     31 ......................................nnmmmmmmlllllllkkkkkkkk..............jijiiihhhggggff....
(PID.TID 0000.0001)     30 .....................................pooonnnnmmmmmmmllllllllk............kkkkkkjjjiihhhggf....
(PID.TID 0000.0001)     29 ...................................rrqqqppooonnnnnmmmmmmlllllk...........mllllkkjjjiiihhgg....
(PID.TID 0000.0001)     28 .................................ssssrrrqqpppooonnnnmmmmmmllllk.........nmmlllkkkjjjiiihhg....
(PID.TID 0000.0001)     27 ................ii..............uttsssrrqqppppooonnnnnmmmmlllllk...xuqo.nmmmlllkkjjjjiii......
(PID.TID 0000.0001)     26 ................iii...........xvuttsssrrrqqqpppooonnnnnmmmmllllkkk.xuponnnmmmlllkkkjjjii......
(PID.TID 0000.0001)     25 ................jiij...kkk...zxwuttsssrrrqqqpppooonnnnnmmmmllllllll...oonnmmmmllkkkkjjjj......
(PID.TID 0000.0001)     24 ..............iiiijjj.kkkk...yyy.tsssrrqqqqpppooonnnnmmmmmllllllllllkk.nnmmmmlllkkkkkjjj......
(PID.TID 0000.0001)     23 ..............jjjjjjk.kkkk...zzy..rrrqqqqppppoooonnnnmmmlllllllllkkkkkk....lllllkkkkkkkj......
(PID.TID 0000.0001)     22 mmm...........jjjjjkkkkkkk...++.rrrrqqqqpppppooooonnnnmmmlllllllkkkkkkkk......llllllkklllmmmm.
(PID.TID 0000.0001)     21 mmmmn........jjjjjjjkkkkkkk.....rrrrqqqqqppppoooooonnnnmmmllllllkkkkkkkk........llllllllmmmmmm
(PID.TID 0000.0001)     20 mmmmm.......jjjjjjjjkkkkkkk......q.rqqqqpppppoooooonnnnmmmmllllkkkkkkkkk.........lllllllmmmmmm
(PID.TID 0000.0001)     19 mlmmm.......kjjjjjjjkkkkkkkll...oqq.....ppppooooooonnnnnmmmmllllkkkkkkkk...........mmmmmmmmlmm
(PID.TID 0000.0001)     18 mllmm.......kkkkkjjkkkklllllllllloq...pppoooooooooonnnnnnmmmmllllkkkkkkkk..........mmmmmmmmllm
(PID.TID 0000.0001)     17 mmmmm.......l.lllkkkkllllllllllmm.....ppooooooooooonnnnnnmmmmmllllkkkkkkk.........nnmmmmmmmmmm
(PID.TID 0000.0001)     16 mmmmm......mm.mllllllllllllllllm.......pooooooooooonnnnnnmmmmmmlllllkkkkjj........nnnnnnmmmmmm
(PID.TID 0000.0001)     15 nnmmmm....nmm.mmmmlllllllllllll.........ooooooooonnnnnnnnmnnmmmmlllllkkkkjj......onnnnnnnnnnmm
(PID.TID 0000.0001)     14 nnnnmm....nnnmmmlllllllklllllll.........oooonnnnnnnnnnnnnmmmmmmmmllllllkkkk.....pooonnnnnnnnnn
(PID.TID 0000.0001)     13 nnnnnn....onnmmmlllllllllllllll.........oonnnnnnnnmmmmmmmmmmmmmmlllllllkkkk....ppoooonoooonnnn
(PID.TID 0000.0001)     12 nnnnnnnnooonnmmmllllllllllllllllllll....onnmmmmmmmmmmmmmmlllmlmlllllllllkk.....ppoooonnnnnnnnn
(PID.TID 0000.0001)     11 nnnnnnnnnnnmmmmmmllllllllllllllllllll..onnmml.nmmmmmmmmmmlllllllllllllllkk....ppooonnnnnnnnnnn
(PID.TID 0000.0001)     10 mmmmmmmmmllllllllllkkkklkllllllllllmmm.nnmmml.mmnmmmmmmmmmlllllllllllklllk..pooonnnmmmmmmmmmmm
(PID.TID 0000.0001)      9 llllllllkkkkkkjjjjjjjjkkkkkkkkkllllmmmmmmmmm.mmnnmmmmmmmmmmmllllllllkkllll.ooonnnmmmllllllllll
(PID.TID 0000.0001)      8 jkkkkkjjjjjjjjjjiiiiiijjjjjjjjjkkkllllmmmmmmmmmmmmmmmmlllllllkkkkllkkllllm.nnnmmlllkkkkkkjjkkk
(PID.TID 0000.0001)      7 jjjiiiiiiiiiiiiiiiiiiiiiiiiiiijjjjjkkjjkkklllllllllkkkkkkkkkkjjkkkkkkkkllmlmmmmlkkkkjjjjjjjjji
(PID.TID 0000.0001)      6 iiiiiiiiiiiiiiihhhihhhhiiiiiiiiiiiijjiijjjkkklkkkkjjjiiiiijjjjjjjjjjjjkkkkkkkkkjjjjjjjjjjiiiii
(PID.TID 0000.0001)      5 iiiiiiiiiiihhhhhhhhhhhhhhhhhiiiiiiiiiiiiiiijjjjjjjiiiihhhiiiiiiiiiiiiiiiiiiihhiiiijjjiiiiiiiii
(PID.TID 0000.0001)      4 iiiiiiiiiihhhhhhhhhhhhhhhhiiiiiiiiiiiiiiiiiiiiiiiiiihhhhhiiiiihhhhhhhhhhhggg..ijjjjiiiiiiiiiii
(PID.TID 0000.0001)      3 iiiiiiiiiiii............................ijjjiiiiiiiiiiiiiiihhhhhhhhhhhhgggg..kjjjjjjjjiiiiiiii
(PID.TID 0000.0001)      2 ............................................jjjiiiiiiiiiiiiihhhhhh..hhhg.....kjjjjjjjjjjj.....
(PID.TID 0000.0001)      1 ..............................................................................................
(PID.TID 0000.0001)      0 a------.ddddddddddeee..................................................................aaaa---
(PID.TID 0000.0001)     -1 aaaa-aabbbbbbbbb...hh.....................................................cccc........bbaaaaaa
(PID.TID 0000.0001) // =======================================================
(PID.TID 0000.0001) // END OF FIELD                                          =
(PID.TID 0000.0001) // =======================================================
(PID.TID 0000.0001) 
(PID.TID 0000.0001)  MDS_WRITE_FIELD: it,rec,kS,kL,kH=      10     1  15   1  15 file=U.0000000010
(PID.TID 0000.0001)  MDS_WRITE_FIELD: it,rec,kS,kL,kH=      10     1  15   1  15 file=V.0000000010
(PID.TID 0000.0001)  MDS_WRITE_FIELD: it,rec,kS,kL,kH=      10     1  15   1  15 file=T.0000000010
(PID.TID 0000.0001)  MDS_WRITE_FIELD: it,rec,kS,kL,kH=      10     1  15   1  15 file=S.0000000010
(PID.TID 0000.0001)  MDS_WRITE_FIELD: it,rec,kS,kL,kH=      10     1   1   1   1 file=Eta.0000000010
(PID.TID 0000.0001)  MDS_WRITE_FIELD: it,rec,kS,kL,kH=      10     1  15   1  15 file=W.0000000010
(PID.TID 0000.0001)  MDS_WRITE_FIELD: it,rec,kS,kL,kH=      10     1  15   1  15 file=PH.0000000010
(PID.TID 0000.0001)  MDS_WRITE_FIELD: it,rec,kS,kL,kH=      10     1   1   1   1 file=PHL.0000000010
(PID.TID 0000.0001)  MDS_WRITE_FIELD: it,rec,kS,kL,kH=      10     1   1   1   1 file=ETAtave.0000000010
(PID.TID 0000.0001)  MDS_WRITE_FIELD: it,rec,kS,kL,kH=      10     1  15   1  15 file=Ttave.0000000010
(PID.TID 0000.0001)  MDS_WRITE_FIELD: it,rec,kS,kL,kH=      10     1  15   1  15 file=Stave.0000000010
(PID.TID 0000.0001)  MDS_WRITE_FIELD: it,rec,kS,kL,kH=      10     1  15   1  15 file=uVeltave.0000000010
(PID.TID 0000.0001)  MDS_WRITE_FIELD: it,rec,kS,kL,kH=      10     1  15   1  15 file=vVeltave.0000000010
(PID.TID 0000.0001)  MDS_WRITE_FIELD: it,rec,kS,kL,kH=      10     1  15   1  15 file=wVeltave.0000000010
(PID.TID 0000.0001)  MDS_WRITE_FIELD: it,rec,kS,kL,kH=      10     1   1   1   1 file=Eta2tave.0000000010
(PID.TID 0000.0001)  MDS_WRITE_FIELD: it,rec,kS,kL,kH=      10     1  15   1  15 file=UTtave.0000000010
(PID.TID 0000.0001)  MDS_WRITE_FIELD: it,rec,kS,kL,kH=      10     1  15   1  15 file=VTtave.0000000010
(PID.TID 0000.0001)  MDS_WRITE_FIELD: it,rec,kS,kL,kH=      10     1  15   1  15 file=WTtave.0000000010
(PID.TID 0000.0001)  MDS_WRITE_FIELD: it,rec,kS,kL,kH=      10     1  15   1  15 file=UStave.0000000010
(PID.TID 0000.0001)  MDS_WRITE_FIELD: it,rec,kS,kL,kH=      10     1  15   1  15 file=VStave.0000000010
(PID.TID 0000.0001)  MDS_WRITE_FIELD: it,rec,kS,kL,kH=      10     1  15   1  15 file=WStave.0000000010
(PID.TID 0000.0001)  MDS_WRITE_FIELD: it,rec,kS,kL,kH=      10     1  15   1  15 file=TTtave.0000000010
(PID.TID 0000.0001)  MDS_WRITE_FIELD: it,rec,kS,kL,kH=      10     1  15   1  15 file=UUtave.0000000010
(PID.TID 0000.0001)  MDS_WRITE_FIELD: it,rec,kS,kL,kH=      10     1  15   1  15 file=VVtave.0000000010
(PID.TID 0000.0001)  MDS_WRITE_FIELD: it,rec,kS,kL,kH=      10     1  15   1  15 file=UVtave.0000000010
(PID.TID 0000.0001)  MDS_WRITE_FIELD: it,rec,kS,kL,kH=      10     1  15   1  15 file=Tdiftave.0000000010
(PID.TID 0000.0001)  MDS_WRITE_FIELD: it,rec,kS,kL,kH=      10     1  15   1  15 file=PhHytave.0000000010
(PID.TID 0000.0001)  MDS_WRITE_FIELD: it,rec,kS,kL,kH=      10     1   1   1   1 file=PHLtave.0000000010
(PID.TID 0000.0001)  MDS_WRITE_FIELD: it,rec,kS,kL,kH=      10     1   1   1   1 file=uFluxtave.0000000010
(PID.TID 0000.0001)  MDS_WRITE_FIELD: it,rec,kS,kL,kH=      10     1   1   1   1 file=vFluxtave.0000000010
(PID.TID 0000.0001)  MDS_WRITE_FIELD: it,rec,kS,kL,kH=      10     1   1   1   1 file=tFluxtave.0000000010
(PID.TID 0000.0001)  MDS_WRITE_FIELD: it,rec,kS,kL,kH=      10     1   1   1   1 file=sFluxtave.0000000010
(PID.TID 0000.0001)  MDS_WRITE_FIELD: it,rec,kS,kL,kH=      10     1   1   1   1 file=PHL2tave.0000000010
(PID.TID 0000.0001)  MDS_WRITE_FIELD: it,rec,kS,kL,kH=      10     1  15   1  15 file=Convtave.0000000010
(PID.TID 0000.0001) // Time-average data written, t-step        10
(PID.TID 0000.0001) 
(PID.TID 0000.0001)  MDS_WRITE_FIELD: it,rec,kS,kL,kH=      10     1  15   1  15 file=GM_Kwx-T.0000000010
(PID.TID 0000.0001)  MDS_WRITE_FIELD: it,rec,kS,kL,kH=      10     1  15   1  15 file=GM_Kwy-T.0000000010
(PID.TID 0000.0001)  MDS_WRITE_FIELD: it,rec,kS,kL,kH=      10     1  15   1  15 file=GM_Kwz-T.0000000010
(PID.TID 0000.0001)  MDS_WRITE_FIELD: it,rec,kS,kL,kH=      10     1  15   1  15 file=pickup_cd.0000000010
(PID.TID 0000.0001)  MDS_WRITE_FIELD: it,rec,kS,kL,kH=      10     2  15   1  15 file=pickup_cd.0000000010
(PID.TID 0000.0001)  MDS_WRITE_FIELD: it,rec,kS,kL,kH=      10     3  15   1  15 file=pickup_cd.0000000010
(PID.TID 0000.0001)  MDS_WRITE_FIELD: it,rec,kS,kL,kH=      10     4  15   1  15 file=pickup_cd.0000000010
(PID.TID 0000.0001)  MDS_WRITE_FIELD: it,rec,kS,kL,kH=      10    61   1   1   1 file=pickup_cd.0000000010
(PID.TID 0000.0001)  MDS_WRITE_FIELD: it,rec,kS,kL,kH=      10    -1  15   1  15 file=pickup.0000000010
(PID.TID 0000.0001)  MDS_WRITE_FIELD: it,rec,kS,kL,kH=      10    -2  15   1  15 file=pickup.0000000010
(PID.TID 0000.0001)  MDS_WRITE_FIELD: it,rec,kS,kL,kH=      10    -3  15   1  15 file=pickup.0000000010
(PID.TID 0000.0001)  MDS_WRITE_FIELD: it,rec,kS,kL,kH=      10    -4  15   1  15 file=pickup.0000000010
(PID.TID 0000.0001)  MDS_WRITE_FIELD: it,rec,kS,kL,kH=      10    -5  15   1  15 file=pickup.0000000010
(PID.TID 0000.0001)  MDS_WRITE_FIELD: it,rec,kS,kL,kH=      10    -6  15   1  15 file=pickup.0000000010
(PID.TID 0000.0001)  MDS_WRITE_FIELD: it,rec,kS,kL,kH=      10    -7  15   1  15 file=pickup.0000000010
(PID.TID 0000.0001)  MDS_WRITE_FIELD: it,rec,kS,kL,kH=      10    -8  15   1  15 file=pickup.0000000010
(PID.TID 0000.0001)  MDS_WRITE_FIELD: it,rec,kS,kL,kH=      10  -121   1   1   1 file=pickup.0000000010
(PID.TID 0000.0001)  MDS_WRITE_FIELD: it,rec,kS,kL,kH=      10  -122   1   1   1 file=pickup.0000000010
(PID.TID 0000.0001)  MDS_WRITE_FIELD: it,rec,kS,kL,kH=      10  -123   1   1   1 file=pickup.0000000010
(PID.TID 0000.0001) %CHECKPOINT        10 0000000010
 EXTERNAL_FIELDS_LOAD,        10 : iP,iLd,i0,i1=   12    1   12    1 ; Wght=  0.1666666667  0.8333333333
 EXTERNAL_FIELDS_LOAD: (fu0,1),fu,fv= -4.5368E-02 -3.5633E-02 -3.7255E-02 -5.9422E-02
 EXTERNAL_FIELDS_LOAD: SST,SSS,Q,E-P=  6.5667E-01  3.4598E+01  2.6555E+02  1.1372E-05
DEBUG_STATS_RL:          Uvel (THERMODYNAMICS)  min= -1.15175714060228E-01
DEBUG_STATS_RL:          Uvel (THERMODYNAMICS)  max=  1.66395941503233E-01
DEBUG_STATS_RL:          Uvel (THERMODYNAMICS) mean=  6.54614383584639E-03
DEBUG_STATS_RL:          Uvel (THERMODYNAMICS) S.D.=  2.23041332574086E-02
DEBUG_STATS_RL:          Vvel (THERMODYNAMICS)  min= -1.08891283275535E-01
DEBUG_STATS_RL:          Vvel (THERMODYNAMICS)  max=  9.90300081383905E-02
DEBUG_STATS_RL:          Vvel (THERMODYNAMICS) mean= -1.18412412818520E-03
DEBUG_STATS_RL:          Vvel (THERMODYNAMICS) S.D.=  1.64804889640862E-02
DEBUG_STATS_RL:          Wvel (THERMODYNAMICS)  min= -2.27063357580286E-04
DEBUG_STATS_RL:          Wvel (THERMODYNAMICS)  max=  2.21136922164013E-04
DEBUG_STATS_RL:          Wvel (THERMODYNAMICS) mean= -8.16043861855584E-07
DEBUG_STATS_RL:          Wvel (THERMODYNAMICS) S.D.=  2.26911221705501E-05
DEBUG_STATS_RL:         Theta (THERMODYNAMICS)  min= -1.92154781305449E+00
DEBUG_STATS_RL:         Theta (THERMODYNAMICS)  max=  2.98810241295727E+01
DEBUG_STATS_RL:         Theta (THERMODYNAMICS) mean=  3.22439440164907E+00
DEBUG_STATS_RL:         Theta (THERMODYNAMICS) S.D.=  5.85160010096990E+00
DEBUG_STATS_RL:          Salt (THERMODYNAMICS)  min=  2.00000000000000E-02
DEBUG_STATS_RL:          Salt (THERMODYNAMICS)  max=  3.74568623433840E+01
DEBUG_STATS_RL:          Salt (THERMODYNAMICS) mean=  1.88651588517085E+01
DEBUG_STATS_RL:          Salt (THERMODYNAMICS) S.D.=  1.73006340021376E+01
DEBUG_STATS_RL:         GtNm1 (THERMODYNAMICS)  min= -3.39911064851144E-06
DEBUG_STATS_RL:         GtNm1 (THERMODYNAMICS)  max=  2.73011390005331E-06
DEBUG_STATS_RL:         GtNm1 (THERMODYNAMICS) mean=  1.68950265482244E-08
DEBUG_STATS_RL:         GtNm1 (THERMODYNAMICS) S.D.=  2.77559389007844E-07
DEBUG_STATS_RL:         GsNm1 (THERMODYNAMICS)  min= -4.74299158311101E-07
DEBUG_STATS_RL:         GsNm1 (THERMODYNAMICS)  max=  6.88320134399212E-07
DEBUG_STATS_RL:         GsNm1 (THERMODYNAMICS) mean= -2.75203799051080E-10
DEBUG_STATS_RL:         GsNm1 (THERMODYNAMICS) S.D.=  2.39977283958819E-08
DEBUG_STATS_RL:                EtaN (DYNAMICS)  min= -2.99293900143227E+00
DEBUG_STATS_RL:                EtaN (DYNAMICS)  max=  3.66188692396622E+00
DEBUG_STATS_RL:                EtaN (DYNAMICS) mean= -1.66584400447295E-01
DEBUG_STATS_RL:                EtaN (DYNAMICS) S.D.=  8.42195376346992E-01
DEBUG_STATS_RL:                Uvel (DYNAMICS)  min= -1.15175714060228E-01
DEBUG_STATS_RL:                Uvel (DYNAMICS)  max=  1.66395941503233E-01
DEBUG_STATS_RL:                Uvel (DYNAMICS) mean=  6.54614383584639E-03
DEBUG_STATS_RL:                Uvel (DYNAMICS) S.D.=  2.23041332574086E-02
DEBUG_STATS_RL:                Vvel (DYNAMICS)  min= -1.08891283275535E-01
DEBUG_STATS_RL:                Vvel (DYNAMICS)  max=  9.90300081383905E-02
DEBUG_STATS_RL:                Vvel (DYNAMICS) mean= -1.18412412818520E-03
DEBUG_STATS_RL:                Vvel (DYNAMICS) S.D.=  1.64804889640862E-02
DEBUG_STATS_RL:                Wvel (DYNAMICS)  min= -2.27063357580286E-04
DEBUG_STATS_RL:                Wvel (DYNAMICS)  max=  2.21136922164013E-04
DEBUG_STATS_RL:                Wvel (DYNAMICS) mean= -8.16043861855584E-07
DEBUG_STATS_RL:                Wvel (DYNAMICS) S.D.=  2.26911221705501E-05
DEBUG_STATS_RL:               Theta (DYNAMICS)  min= -1.92154781305449E+00
DEBUG_STATS_RL:               Theta (DYNAMICS)  max=  2.98810241295727E+01
DEBUG_STATS_RL:               Theta (DYNAMICS) mean=  3.22439440164907E+00
DEBUG_STATS_RL:               Theta (DYNAMICS) S.D.=  5.85160010096990E+00
DEBUG_STATS_RL:                Salt (DYNAMICS)  min=  2.00000000000000E-02
DEBUG_STATS_RL:                Salt (DYNAMICS)  max=  3.74568623433840E+01
DEBUG_STATS_RL:                Salt (DYNAMICS) mean=  1.88651588517085E+01
DEBUG_STATS_RL:                Salt (DYNAMICS) S.D.=  1.73006340021376E+01
DEBUG_STATS_RL:                  Gu (DYNAMICS)  min= -1.03077651185296E-01
DEBUG_STATS_RL:                  Gu (DYNAMICS)  max=  1.69099320230933E-01
DEBUG_STATS_RL:                  Gu (DYNAMICS) mean=  4.38015479164058E-03
DEBUG_STATS_RL:                  Gu (DYNAMICS) S.D.=  2.34669182035841E-02
DEBUG_STATS_RL:                  Gv (DYNAMICS)  min= -1.00519769921290E-01
DEBUG_STATS_RL:                  Gv (DYNAMICS)  max=  1.02469444349176E-01
DEBUG_STATS_RL:                  Gv (DYNAMICS) mean= -2.43035286745557E-05
DEBUG_STATS_RL:                  Gv (DYNAMICS) S.D.=  1.59580696502050E-02
DEBUG_STATS_RL:               GuNm1 (DYNAMICS)  min= -6.40234398387240E-06
DEBUG_STATS_RL:               GuNm1 (DYNAMICS)  max=  7.60036971165186E-06
DEBUG_STATS_RL:               GuNm1 (DYNAMICS) mean= -3.53916098180055E-08
DEBUG_STATS_RL:               GuNm1 (DYNAMICS) S.D.=  1.14625480782390E-06
DEBUG_STATS_RL:               GvNm1 (DYNAMICS)  min= -9.21908394049925E-06
DEBUG_STATS_RL:               GvNm1 (DYNAMICS)  max=  1.65127495830313E-05
DEBUG_STATS_RL:               GvNm1 (DYNAMICS) mean=  7.75178266052342E-07
DEBUG_STATS_RL:               GvNm1 (DYNAMICS) S.D.=  2.63163257662339E-06
DEBUG_STATS_RL:               GtNm1 (DYNAMICS)  min= -3.39911064851144E-06
DEBUG_STATS_RL:               GtNm1 (DYNAMICS)  max=  2.73011390005331E-06
DEBUG_STATS_RL:               GtNm1 (DYNAMICS) mean=  1.68950265482244E-08
DEBUG_STATS_RL:               GtNm1 (DYNAMICS) S.D.=  2.77559389007844E-07
DEBUG_STATS_RL:               GsNm1 (DYNAMICS)  min= -4.74299158311101E-07
DEBUG_STATS_RL:               GsNm1 (DYNAMICS)  max=  6.88320134399212E-07
DEBUG_STATS_RL:               GsNm1 (DYNAMICS) mean= -2.75203799051080E-10
DEBUG_STATS_RL:               GsNm1 (DYNAMICS) S.D.=  2.39977283958819E-08
DEBUG_STATS_RL:    cg2d_b (SOLVE_FOR_PRESSURE)  min= -1.75244379107984E+04
DEBUG_STATS_RL:    cg2d_b (SOLVE_FOR_PRESSURE)  max=  1.53950010664447E+04
DEBUG_STATS_RL:    cg2d_b (SOLVE_FOR_PRESSURE) mean=  7.26281919275933E-01
DEBUG_STATS_RL:    cg2d_b (SOLVE_FOR_PRESSURE) S.D.=  3.55904639768965E+03
 cg2d: Sum(rhs),rhsMax =   9.59427430244139E-02  1.15105200236188E+00
(PID.TID 0000.0001)  cg2d: iter=     1 ; resid.=  1.05928339404120E+00
(PID.TID 0000.0001)  cg2d: iter=     2 ; resid.=  1.02464929293995E+00
(PID.TID 0000.0001)  cg2d: iter=     3 ; resid.=  8.48218736014302E-01
(PID.TID 0000.0001)  cg2d: iter=     4 ; resid.=  7.49205039702111E-01
(PID.TID 0000.0001)  cg2d: iter=     5 ; resid.=  6.51240699269841E-01
(PID.TID 0000.0001)  cg2d: iter=     6 ; resid.=  5.21325631904638E-01
(PID.TID 0000.0001)  cg2d: iter=     7 ; resid.=  4.49162319294627E-01
(PID.TID 0000.0001)  cg2d: iter=     8 ; resid.=  2.96429011319964E-01
(PID.TID 0000.0001)  cg2d: iter=     9 ; resid.=  2.35797239224558E-01
(PID.TID 0000.0001)  cg2d: iter=    10 ; resid.=  2.21425803637863E-01
(PID.TID 0000.0001)  cg2d: iter=    11 ; resid.=  1.92576581386039E-01
(PID.TID 0000.0001)  cg2d: iter=    12 ; resid.=  1.42348380811785E-01
(PID.TID 0000.0001)  cg2d: iter=    13 ; resid.=  1.18597209121120E-01
(PID.TID 0000.0001)  cg2d: iter=    14 ; resid.=  1.02355632884975E-01
(PID.TID 0000.0001)  cg2d: iter=    15 ; resid.=  9.01544003175447E-02
(PID.TID 0000.0001)  cg2d: iter=    16 ; resid.=  8.76963366711679E-02
(PID.TID 0000.0001)  cg2d: iter=    17 ; resid.=  8.74275322653196E-02
(PID.TID 0000.0001)  cg2d: iter=    18 ; resid.=  6.82406438500151E-02
(PID.TID 0000.0001)  cg2d: iter=    19 ; resid.=  5.41698471127373E-02
(PID.TID 0000.0001)  cg2d: iter=    20 ; resid.=  4.18320802295600E-02
(PID.TID 0000.0001)  cg2d: iter=    21 ; resid.=  3.46499333685371E-02
(PID.TID 0000.0001)  cg2d: iter=    22 ; resid.=  2.88868552083047E-02
(PID.TID 0000.0001)  cg2d: iter=    23 ; resid.=  2.32240211824282E-02
(PID.TID 0000.0001)  cg2d: iter=    24 ; resid.=  2.16757509102636E-02
(PID.TID 0000.0001)  cg2d: iter=    25 ; resid.=  1.59954320840804E-02
(PID.TID 0000.0001)  cg2d: iter=    26 ; resid.=  1.32600465411859E-02
(PID.TID 0000.0001)  cg2d: iter=    27 ; resid.=  1.07499892771011E-02
(PID.TID 0000.0001)  cg2d: iter=    28 ; resid.=  8.94618469504842E-03
(PID.TID 0000.0001)  cg2d: iter=    29 ; resid.=  7.61442213070814E-03
(PID.TID 0000.0001)  cg2d: iter=    30 ; resid.=  7.39503014281695E-03
(PID.TID 0000.0001)  cg2d: iter=    31 ; resid.=  5.87183193574773E-03
(PID.TID 0000.0001)  cg2d: iter=    32 ; resid.=  4.56070079135745E-03
(PID.TID 0000.0001)  cg2d: iter=    33 ; resid.=  3.94451703496819E-03
(PID.TID 0000.0001)  cg2d: iter=    34 ; resid.=  3.35868321474370E-03
(PID.TID 0000.0001)  cg2d: iter=    35 ; resid.=  2.67127586352923E-03
(PID.TID 0000.0001)  cg2d: iter=    36 ; resid.=  2.53736199385202E-03
(PID.TID 0000.0001)  cg2d: iter=    37 ; resid.=  2.33005504708152E-03
(PID.TID 0000.0001)  cg2d: iter=    38 ; resid.=  1.94034626957736E-03
(PID.TID 0000.0001)  cg2d: iter=    39 ; resid.=  1.72388213187837E-03
(PID.TID 0000.0001)  cg2d: iter=    40 ; resid.=  1.45293906422133E-03
(PID.TID 0000.0001)  cg2d: iter=    41 ; resid.=  1.11794567680281E-03
(PID.TID 0000.0001)  cg2d: iter=    42 ; resid.=  8.85927192224081E-04
(PID.TID 0000.0001)  cg2d: iter=    43 ; resid.=  6.77601041731696E-04
(PID.TID 0000.0001)  cg2d: iter=    44 ; resid.=  5.17649108972716E-04
(PID.TID 0000.0001)  cg2d: iter=    45 ; resid.=  4.26824421015074E-04
(PID.TID 0000.0001)  cg2d: iter=    46 ; resid.=  3.33503109706513E-04
(PID.TID 0000.0001)  cg2d: iter=    47 ; resid.=  2.83607701531887E-04
(PID.TID 0000.0001)  cg2d: iter=    48 ; resid.=  2.31568694626484E-04
(PID.TID 0000.0001)  cg2d: iter=    49 ; resid.=  1.96601050897469E-04
(PID.TID 0000.0001)  cg2d: iter=    50 ; resid.=  1.80653856537359E-04
(PID.TID 0000.0001)  cg2d: iter=    51 ; resid.=  1.53768627324921E-04
(PID.TID 0000.0001)  cg2d: iter=    52 ; resid.=  1.32779238358492E-04
(PID.TID 0000.0001)  cg2d: iter=    53 ; resid.=  1.12814936969023E-04
(PID.TID 0000.0001)  cg2d: iter=    54 ; resid.=  9.06108076154213E-05
(PID.TID 0000.0001)  cg2d: iter=    55 ; resid.=  7.98429817412673E-05
(PID.TID 0000.0001)  cg2d: iter=    56 ; resid.=  6.10267306549961E-05
(PID.TID 0000.0001)  cg2d: iter=    57 ; resid.=  4.78394588545992E-05
(PID.TID 0000.0001)  cg2d: iter=    58 ; resid.=  3.73438529150043E-05
(PID.TID 0000.0001)  cg2d: iter=    59 ; resid.=  2.82526456771176E-05
(PID.TID 0000.0001)  cg2d: iter=    60 ; resid.=  2.29773614934316E-05
(PID.TID 0000.0001)  cg2d: iter=    61 ; resid.=  1.71665863160897E-05
(PID.TID 0000.0001)  cg2d: iter=    62 ; resid.=  1.38971241233797E-05
(PID.TID 0000.0001)  cg2d: iter=    63 ; resid.=  1.24361247432034E-05
(PID.TID 0000.0001)  cg2d: iter=    64 ; resid.=  1.06287554022298E-05
(PID.TID 0000.0001)  cg2d: iter=    65 ; resid.=  8.52157922003432E-06
(PID.TID 0000.0001)  cg2d: iter=    66 ; resid.=  6.96829139427910E-06
(PID.TID 0000.0001)  cg2d: iter=    67 ; resid.=  6.22178663667263E-06
(PID.TID 0000.0001)  cg2d: iter=    68 ; resid.=  5.16417034155292E-06
(PID.TID 0000.0001)  cg2d: iter=    69 ; resid.=  4.37139328115157E-06
(PID.TID 0000.0001)  cg2d: iter=    70 ; resid.=  4.01737809606537E-06
(PID.TID 0000.0001)  cg2d: iter=    71 ; resid.=  3.38237916926377E-06
(PID.TID 0000.0001)  cg2d: iter=    72 ; resid.=  2.94211794725156E-06
(PID.TID 0000.0001)  cg2d: iter=    73 ; resid.=  2.56406174452147E-06
(PID.TID 0000.0001)  cg2d: iter=    74 ; resid.=  1.91072824522872E-06
(PID.TID 0000.0001)  cg2d: iter=    75 ; resid.=  1.51114319234103E-06
(PID.TID 0000.0001)  cg2d: iter=    76 ; resid.=  1.24350540114175E-06
(PID.TID 0000.0001)  cg2d: iter=    77 ; resid.=  9.27426502257015E-07
(PID.TID 0000.0001)  cg2d: iter=    78 ; resid.=  7.03302914727655E-07
(PID.TID 0000.0001)  cg2d: iter=    79 ; resid.=  6.21919811982748E-07
(PID.TID 0000.0001)  cg2d: iter=    80 ; resid.=  5.18279410199550E-07
(PID.TID 0000.0001)  cg2d: iter=    81 ; resid.=  3.72519903572902E-07
(PID.TID 0000.0001)  cg2d: iter=    82 ; resid.=  2.74994663983127E-07
(PID.TID 0000.0001)  cg2d: iter=    83 ; resid.=  1.94503742901233E-07
(PID.TID 0000.0001)  cg2d: iter=    84 ; resid.=  1.48243814333517E-07
(PID.TID 0000.0001)  cg2d: iter=    85 ; resid.=  1.10839832058678E-07
(PID.TID 0000.0001)  cg2d: iter=    86 ; resid.=  7.95658141713635E-08
(PID.TID 0000.0001)  cg2d: iter=    87 ; resid.=  6.24945494212758E-08
(PID.TID 0000.0001)  cg2d: iter=    88 ; resid.=  5.45092317830676E-08
(PID.TID 0000.0001)  cg2d: iter=    89 ; resid.=  4.59322153888439E-08
(PID.TID 0000.0001)  cg2d: iter=    90 ; resid.=  3.84334253619898E-08
(PID.TID 0000.0001)  cg2d: iter=    91 ; resid.=  3.23413208239365E-08
(PID.TID 0000.0001)  cg2d: iter=    92 ; resid.=  2.67212289892837E-08
(PID.TID 0000.0001)  cg2d: iter=    93 ; resid.=  2.17048873038505E-08
(PID.TID 0000.0001)  cg2d: iter=    94 ; resid.=  1.76067008862328E-08
(PID.TID 0000.0001)  cg2d: iter=    95 ; resid.=  1.47700542480543E-08
(PID.TID 0000.0001)  cg2d: iter=    96 ; resid.=  1.07477585575396E-08
(PID.TID 0000.0001)  cg2d: iter=    97 ; resid.=  8.98133795194166E-09
(PID.TID 0000.0001)  cg2d: iter=    98 ; resid.=  7.66854139581415E-09
(PID.TID 0000.0001)  cg2d: iter=    99 ; resid.=  6.32163805245587E-09
(PID.TID 0000.0001)  cg2d: iter=   100 ; resid.=  4.93096183516522E-09
(PID.TID 0000.0001)  cg2d: iter=   101 ; resid.=  3.43995058991152E-09
(PID.TID 0000.0001)  cg2d: iter=   102 ; resid.=  2.68999939992634E-09
(PID.TID 0000.0001)  cg2d: iter=   103 ; resid.=  2.09644075831236E-09
(PID.TID 0000.0001)  cg2d: iter=   104 ; resid.=  1.67264321183040E-09
(PID.TID 0000.0001)  cg2d: iter=   105 ; resid.=  1.31666284916452E-09
(PID.TID 0000.0001)  cg2d: iter=   106 ; resid.=  1.05317915106245E-09
(PID.TID 0000.0001)  cg2d: iter=   107 ; resid.=  8.20735250139326E-10
(PID.TID 0000.0001)  cg2d: iter=   108 ; resid.=  6.22110339007867E-10
(PID.TID 0000.0001)  cg2d: iter=   109 ; resid.=  5.13225253321233E-10
(PID.TID 0000.0001)  cg2d: iter=   110 ; resid.=  4.09936886549037E-10
(PID.TID 0000.0001)  cg2d: iter=   111 ; resid.=  3.28935135321969E-10
(PID.TID 0000.0001)  cg2d: iter=   112 ; resid.=  2.53707267652763E-10
(PID.TID 0000.0001)  cg2d: iter=   113 ; resid.=  2.02269565714400E-10
(PID.TID 0000.0001)  cg2d: iter=   114 ; resid.=  1.65011378444052E-10
(PID.TID 0000.0001)  cg2d: iter=   115 ; resid.=  1.36886100337605E-10
(PID.TID 0000.0001)  cg2d: iter=   116 ; resid.=  1.16839843193988E-10
(PID.TID 0000.0001)  cg2d: iter=   117 ; resid.=  9.88054984828706E-11
(PID.TID 0000.0001)  cg2d: iter=   118 ; resid.=  7.89094644134650E-11
(PID.TID 0000.0001)  cg2d: iter=   119 ; resid.=  5.97139706873484E-11
(PID.TID 0000.0001)  cg2d: iter=   120 ; resid.=  4.63148582026011E-11
(PID.TID 0000.0001)  cg2d: iter=   121 ; resid.=  3.40712426456756E-11
(PID.TID 0000.0001)  cg2d: iter=   122 ; resid.=  2.56237205833443E-11
(PID.TID 0000.0001)  cg2d: iter=   123 ; resid.=  1.84465665092224E-11
(PID.TID 0000.0001)  cg2d: iter=   124 ; resid.=  1.27122080357192E-11
(PID.TID 0000.0001)  cg2d: iter=   125 ; resid.=  9.06953036599867E-12
(PID.TID 0000.0001)  cg2d: iter=   126 ; resid.=  6.14864829516887E-12
(PID.TID 0000.0001)  cg2d: iter=   127 ; resid.=  4.30170993486756E-12
(PID.TID 0000.0001)  cg2d: iter=   128 ; resid.=  3.01166705119087E-12
(PID.TID 0000.0001)  cg2d: iter=   129 ; resid.=  2.09262969238082E-12
(PID.TID 0000.0001)  cg2d: iter=   130 ; resid.=  1.47766921493122E-12
(PID.TID 0000.0001)  cg2d: iter=   131 ; resid.=  1.08007910428189E-12
(PID.TID 0000.0001)  cg2d: iter=   132 ; resid.=  7.55968278815377E-13
(PID.TID 0000.0001)  cg2d: iter=   133 ; resid.=  5.02942462378759E-13
(PID.TID 0000.0001)  cg2d: iter=   134 ; resid.=  3.73779840530212E-13
(PID.TID 0000.0001)  cg2d: iter=   135 ; resid.=  2.70434569036681E-13
(PID.TID 0000.0001)  cg2d: iter=   136 ; resid.=  1.76314939079234E-13
(PID.TID 0000.0001)  cg2d: iter=   137 ; resid.=  1.27117948186529E-13
(PID.TID 0000.0001)  cg2d: iter=   138 ; resid.=  9.04975772165265E-14
DEBUG_STATS_RL:    cg2d_x (SOLVE_FOR_PRESSURE)  min= -3.48711385196368E+01
DEBUG_STATS_RL:    cg2d_x (SOLVE_FOR_PRESSURE)  max=  2.42350134266103E+01
DEBUG_STATS_RL:    cg2d_x (SOLVE_FOR_PRESSURE) mean= -1.90851308038134E+00
DEBUG_STATS_RL:    cg2d_x (SOLVE_FOR_PRESSURE) S.D.=  8.59832320222570E+00
(PID.TID 0000.0001)      cg2d_init_res =   1.18263877191801E+00
(PID.TID 0000.0001)      cg2d_iters(min,last) =      -1     138
(PID.TID 0000.0001)      cg2d_last_res =   9.04975772165265E-14
(PID.TID 0000.0001) // =======================================================
(PID.TID 0000.0001) // Begin MONITOR dynamic field statistics
(PID.TID 0000.0001) // =======================================================
(PID.TID 0000.0001) %MON time_tsnumber                =                    11
(PID.TID 0000.0001) %MON time_secondsf                =   9.5040000000000E+05
(PID.TID 0000.0001) %MON dynstat_eta_max              =   2.4704396969022E+00
(PID.TID 0000.0001) %MON dynstat_eta_min              =  -3.5546522446113E+00
(PID.TID 0000.0001) %MON dynstat_eta_mean             =  -7.5778512677961E-04
(PID.TID 0000.0001) %MON dynstat_eta_sd               =   7.3378594663886E-01
(PID.TID 0000.0001) %MON dynstat_eta_del2             =   2.0519376935821E-03
(PID.TID 0000.0001) %MON dynstat_uvel_max             =   1.7305574696952E-01
(PID.TID 0000.0001) %MON dynstat_uvel_min             =  -1.0177921647214E-01
(PID.TID 0000.0001) %MON dynstat_uvel_mean            =   2.0505022723963E-03
(PID.TID 0000.0001) %MON dynstat_uvel_sd              =   1.5911041089942E-02
(PID.TID 0000.0001) %MON dynstat_uvel_del2            =   1.0190426138622E-04
(PID.TID 0000.0001) %MON dynstat_vvel_max             =   1.0530450530299E-01
(PID.TID 0000.0001) %MON dynstat_vvel_min             =  -1.0921757023468E-01
(PID.TID 0000.0001) %MON dynstat_vvel_mean            =  -6.4989813995365E-05
(PID.TID 0000.0001) %MON dynstat_vvel_sd              =   1.1368564250006E-02
(PID.TID 0000.0001) %MON dynstat_vvel_del2            =   1.0538365606522E-04
(PID.TID 0000.0001) %MON dynstat_wvel_max             =   2.1481505103158E-04
(PID.TID 0000.0001) %MON dynstat_wvel_min             =  -2.2704644962597E-04
(PID.TID 0000.0001) %MON dynstat_wvel_mean            =  -2.9015207447342E-22
(PID.TID 0000.0001) %MON dynstat_wvel_sd              =   2.4022063059834E-05
(PID.TID 0000.0001) %MON dynstat_wvel_del2            =   2.7438639070460E-07
(PID.TID 0000.0001) %MON dynstat_theta_max            =   2.9881024129573E+01
(PID.TID 0000.0001) %MON dynstat_theta_min            =  -1.9215478130545E+00
(PID.TID 0000.0001) %MON dynstat_theta_mean           =   3.6393263711710E+00
(PID.TID 0000.0001) %MON dynstat_theta_sd             =   4.4148753683833E+00
(PID.TID 0000.0001) %MON dynstat_theta_del2           =   5.0456778825056E-03
(PID.TID 0000.0001) %MON dynstat_salt_max             =   3.7456862343384E+01
(PID.TID 0000.0001) %MON dynstat_salt_min             =   2.9788359582742E+01
(PID.TID 0000.0001) %MON dynstat_salt_mean            =   3.4737978952443E+01
(PID.TID 0000.0001) %MON dynstat_salt_sd              =   2.9614956331485E-01
(PID.TID 0000.0001) %MON dynstat_salt_del2            =   1.0105748095462E-03
(PID.TID 0000.0001) %MON dynstat_sst_max              =   2.9881024129573E+01
(PID.TID 0000.0001) %MON dynstat_sst_min              =  -1.9215478130545E+00
(PID.TID 0000.0001) %MON dynstat_sst_mean             =   1.8632026846686E+01
(PID.TID 0000.0001) %MON dynstat_sst_sd               =   9.0787078793427E+00
(PID.TID 0000.0001) %MON dynstat_sst_del2             =   2.6204514095420E-02
(PID.TID 0000.0001) %MON dynstat_sss_max              =   3.7450649393367E+01
(PID.TID 0000.0001) %MON dynstat_sss_min              =   2.9788359582742E+01
(PID.TID 0000.0001) %MON dynstat_sss_mean             =   3.4874351414591E+01
(PID.TID 0000.0001) %MON dynstat_sss_sd               =   9.6772241954036E-01
(PID.TID 0000.0001) %MON dynstat_sss_del2             =   7.9932465849823E-03
(PID.TID 0000.0001) %MON forcing_qnet_max             =   4.3637268066406E+02
(PID.TID 0000.0001) %MON forcing_qnet_min             =  -1.8235535939535E+02
(PID.TID 0000.0001) %MON forcing_qnet_mean            =  -1.6575085780159E+01
(PID.TID 0000.0001) %MON forcing_qnet_sd              =   1.1080111313050E+02
(PID.TID 0000.0001) %MON forcing_qnet_del2            =   1.0090595771019E+00
(PID.TID 0000.0001) %MON forcing_qsw_max              =   0.0000000000000E+00
(PID.TID 0000.0001) %MON forcing_qsw_min              =   0.0000000000000E+00
(PID.TID 0000.0001) %MON forcing_qsw_mean             =   0.0000000000000E+00
(PID.TID 0000.0001) %MON forcing_qsw_sd               =   0.0000000000000E+00
(PID.TID 0000.0001) %MON forcing_qsw_del2             =   0.0000000000000E+00
(PID.TID 0000.0001) %MON forcing_empmr_max            =   8.1894273288678E-05
(PID.TID 0000.0001) %MON forcing_empmr_min            =  -7.3480514117819E-05
(PID.TID 0000.0001) %MON forcing_empmr_mean           =   8.7408827338311E-07
(PID.TID 0000.0001) %MON forcing_empmr_sd             =   2.8361319601892E-05
(PID.TID 0000.0001) %MON forcing_empmr_del2           =   3.6367323918582E-07
(PID.TID 0000.0001) %MON forcing_fu_max               =   2.7009907364845E-01
(PID.TID 0000.0001) %MON forcing_fu_min               =  -1.6681347042322E-01
(PID.TID 0000.0001) %MON forcing_fu_mean              =   1.6040199257752E-02
(PID.TID 0000.0001) %MON forcing_fu_sd                =   9.0490139077950E-02
(PID.TID 0000.0001) %MON forcing_fu_del2              =   6.8923424175348E-04
(PID.TID 0000.0001) %MON forcing_fv_max               =   2.2372179478407E-01
(PID.TID 0000.0001) %MON forcing_fv_min               =  -1.8106018751860E-01
(PID.TID 0000.0001) %MON forcing_fv_mean              =  -5.6277103738091E-03
(PID.TID 0000.0001) %MON forcing_fv_sd                =   4.6864764071854E-02
(PID.TID 0000.0001) %MON forcing_fv_del2              =   4.6941931464937E-04
(PID.TID 0000.0001) %MON trAdv_CFL_u_max              =   8.1198496720818E-02
(PID.TID 0000.0001) %MON trAdv_CFL_v_max              =   2.0482308280290E-02
(PID.TID 0000.0001) %MON trAdv_CFL_w_max              =   1.2885124752493E-01
(PID.TID 0000.0001) %MON advcfl_uvel_max              =   7.6244789868502E-02
(PID.TID 0000.0001) %MON advcfl_vvel_max              =   2.1219222257363E-02
(PID.TID 0000.0001) %MON advcfl_wvel_max              =   9.5120910111617E-02
(PID.TID 0000.0001) %MON advcfl_W_hf_max              =   1.1210678691726E-01
(PID.TID 0000.0001) %MON pe_b_mean                    =   6.8900193763602E-04
(PID.TID 0000.0001) %MON ke_max                       =   1.4689760029400E-02
(PID.TID 0000.0001) %MON ke_mean                      =   1.7495047955664E-04
(PID.TID 0000.0001) %MON ke_vol                       =   1.3226782436723E+18
(PID.TID 0000.0001) %MON vort_r_min                   =  -7.3203354361251E-07
(PID.TID 0000.0001) %MON vort_r_max                   =   7.2547763923387E-07
(PID.TID 0000.0001) %MON vort_a_mean                  =  -2.5274805641491E-05
(PID.TID 0000.0001) %MON vort_a_sd                    =   7.3605021298505E-05
(PID.TID 0000.0001) %MON vort_p_mean                  =  -3.1845653587005E-05
(PID.TID 0000.0001) %MON vort_p_sd                    =   1.3162198026044E-04
(PID.TID 0000.0001) %MON surfExpan_theta_mean         =   6.1852025800569E-06
(PID.TID 0000.0001) %MON surfExpan_salt_mean          =   3.7613193193102E-07
(PID.TID 0000.0001) // =======================================================
(PID.TID 0000.0001) // End MONITOR dynamic field statistics
(PID.TID 0000.0001) // =======================================================
 EXTERNAL_FIELDS_LOAD,        11 : iP,iLd,i0,i1=   12    1   12    1 ; Wght=  0.1333333333  0.8666666667
 EXTERNAL_FIELDS_LOAD: (fu0,1),fu,fv= -4.5368E-02 -3.5633E-02 -3.6931E-02 -5.8989E-02
 EXTERNAL_FIELDS_LOAD: SST,SSS,Q,E-P=  7.1702E-01  3.4621E+01  2.6559E+02  1.1425E-05
DEBUG_STATS_RL:          Uvel (THERMODYNAMICS)  min= -1.01779216472135E-01
DEBUG_STATS_RL:          Uvel (THERMODYNAMICS)  max=  1.73055746969519E-01
DEBUG_STATS_RL:          Uvel (THERMODYNAMICS) mean=  5.60838838152671E-03
DEBUG_STATS_RL:          Uvel (THERMODYNAMICS) S.D.=  2.33894551380881E-02
DEBUG_STATS_RL:          Vvel (THERMODYNAMICS)  min= -1.09217570234677E-01
DEBUG_STATS_RL:          Vvel (THERMODYNAMICS)  max=  1.05304505302995E-01
DEBUG_STATS_RL:          Vvel (THERMODYNAMICS) mean= -9.83279965554821E-04
DEBUG_STATS_RL:          Vvel (THERMODYNAMICS) S.D.=  1.60750925016776E-02
DEBUG_STATS_RL:          Wvel (THERMODYNAMICS)  min= -2.27046449625969E-04
DEBUG_STATS_RL:          Wvel (THERMODYNAMICS)  max=  2.14815051031581E-04
DEBUG_STATS_RL:          Wvel (THERMODYNAMICS) mean= -6.22722858774123E-07
DEBUG_STATS_RL:          Wvel (THERMODYNAMICS) S.D.=  2.18239961380298E-05
DEBUG_STATS_RL:         Theta (THERMODYNAMICS)  min= -1.91645767524989E+00
DEBUG_STATS_RL:         Theta (THERMODYNAMICS)  max=  2.98740185130699E+01
DEBUG_STATS_RL:         Theta (THERMODYNAMICS) mean=  3.22517059229479E+00
DEBUG_STATS_RL:         Theta (THERMODYNAMICS) S.D.=  5.85215609490783E+00
DEBUG_STATS_RL:          Salt (THERMODYNAMICS)  min=  2.00000000000000E-02
DEBUG_STATS_RL:          Salt (THERMODYNAMICS)  max=  3.74569265558879E+01
DEBUG_STATS_RL:          Salt (THERMODYNAMICS) mean=  1.88651580286366E+01
DEBUG_STATS_RL:          Salt (THERMODYNAMICS) S.D.=  1.73006350694570E+01
DEBUG_STATS_RL:         GtNm1 (THERMODYNAMICS)  min= -4.78736134880851E-06
DEBUG_STATS_RL:         GtNm1 (THERMODYNAMICS)  max=  4.21393057575916E-06
DEBUG_STATS_RL:         GtNm1 (THERMODYNAMICS) mean=  1.73777356953593E-08
DEBUG_STATS_RL:         GtNm1 (THERMODYNAMICS) S.D.=  2.73820324200651E-07
DEBUG_STATS_RL:         GsNm1 (THERMODYNAMICS)  min= -1.07575742545849E-06
DEBUG_STATS_RL:         GsNm1 (THERMODYNAMICS)  max=  1.18838387223468E-06
DEBUG_STATS_RL:         GsNm1 (THERMODYNAMICS) mean= -1.48653566667897E-10
DEBUG_STATS_RL:         GsNm1 (THERMODYNAMICS) S.D.=  2.46786557579225E-08
DEBUG_STATS_RL:                EtaN (DYNAMICS)  min= -3.55465224461130E+00
DEBUG_STATS_RL:                EtaN (DYNAMICS)  max=  2.47043969690220E+00
DEBUG_STATS_RL:                EtaN (DYNAMICS) mean= -1.94547714615836E-01
DEBUG_STATS_RL:                EtaN (DYNAMICS) S.D.=  8.76485545588759E-01
DEBUG_STATS_RL:                Uvel (DYNAMICS)  min= -1.01779216472135E-01
DEBUG_STATS_RL:                Uvel (DYNAMICS)  max=  1.73055746969519E-01
DEBUG_STATS_RL:                Uvel (DYNAMICS) mean=  5.60838838152671E-03
DEBUG_STATS_RL:                Uvel (DYNAMICS) S.D.=  2.33894551380881E-02
DEBUG_STATS_RL:                Vvel (DYNAMICS)  min= -1.09217570234677E-01
DEBUG_STATS_RL:                Vvel (DYNAMICS)  max=  1.05304505302995E-01
DEBUG_STATS_RL:                Vvel (DYNAMICS) mean= -9.83279965554821E-04
DEBUG_STATS_RL:                Vvel (DYNAMICS) S.D.=  1.60750925016776E-02
DEBUG_STATS_RL:                Wvel (DYNAMICS)  min= -2.27046449625969E-04
DEBUG_STATS_RL:                Wvel (DYNAMICS)  max=  2.14815051031581E-04
DEBUG_STATS_RL:                Wvel (DYNAMICS) mean= -6.22722858774123E-07
DEBUG_STATS_RL:                Wvel (DYNAMICS) S.D.=  2.18239961380298E-05
DEBUG_STATS_RL:               Theta (DYNAMICS)  min= -1.91645767524989E+00
DEBUG_STATS_RL:               Theta (DYNAMICS)  max=  2.98740185130699E+01
DEBUG_STATS_RL:               Theta (DYNAMICS) mean=  3.22517059229479E+00
DEBUG_STATS_RL:               Theta (DYNAMICS) S.D.=  5.85215609490783E+00
DEBUG_STATS_RL:                Salt (DYNAMICS)  min=  2.00000000000000E-02
DEBUG_STATS_RL:                Salt (DYNAMICS)  max=  3.74569265558879E+01
DEBUG_STATS_RL:                Salt (DYNAMICS) mean=  1.88651580286366E+01
DEBUG_STATS_RL:                Salt (DYNAMICS) S.D.=  1.73006350694570E+01
DEBUG_STATS_RL:                  Gu (DYNAMICS)  min= -8.95444812692594E-02
DEBUG_STATS_RL:                  Gu (DYNAMICS)  max=  1.73842633111368E-01
DEBUG_STATS_RL:                  Gu (DYNAMICS) mean=  3.54568348304487E-03
DEBUG_STATS_RL:                  Gu (DYNAMICS) S.D.=  2.43529596733828E-02
DEBUG_STATS_RL:                  Gv (DYNAMICS)  min= -1.07810644671372E-01
DEBUG_STATS_RL:                  Gv (DYNAMICS)  max=  1.03596697772415E-01
DEBUG_STATS_RL:                  Gv (DYNAMICS) mean=  2.44169605604504E-04
DEBUG_STATS_RL:                  Gv (DYNAMICS) S.D.=  1.57275100979867E-02
DEBUG_STATS_RL:               GuNm1 (DYNAMICS)  min= -6.31425999069375E-06
DEBUG_STATS_RL:               GuNm1 (DYNAMICS)  max=  7.64445092751165E-06
DEBUG_STATS_RL:               GuNm1 (DYNAMICS) mean= -3.34479357039912E-08
DEBUG_STATS_RL:               GuNm1 (DYNAMICS) S.D.=  1.12902513687396E-06
DEBUG_STATS_RL:               GvNm1 (DYNAMICS)  min= -8.91612851322458E-06
DEBUG_STATS_RL:               GvNm1 (DYNAMICS)  max=  1.65819082396230E-05
DEBUG_STATS_RL:               GvNm1 (DYNAMICS) mean=  7.73028952655165E-07
DEBUG_STATS_RL:               GvNm1 (DYNAMICS) S.D.=  2.61187709720099E-06
DEBUG_STATS_RL:               GtNm1 (DYNAMICS)  min= -4.78736134880851E-06
DEBUG_STATS_RL:               GtNm1 (DYNAMICS)  max=  4.21393057575916E-06
DEBUG_STATS_RL:               GtNm1 (DYNAMICS) mean=  1.73777356953593E-08
DEBUG_STATS_RL:               GtNm1 (DYNAMICS) S.D.=  2.73820324200651E-07
DEBUG_STATS_RL:               GsNm1 (DYNAMICS)  min= -1.07575742545849E-06
DEBUG_STATS_RL:               GsNm1 (DYNAMICS)  max=  1.18838387223468E-06
DEBUG_STATS_RL:               GsNm1 (DYNAMICS) mean= -1.48653566667897E-10
DEBUG_STATS_RL:               GsNm1 (DYNAMICS) S.D.=  2.46786557579225E-08
DEBUG_STATS_RL:    cg2d_b (SOLVE_FOR_PRESSURE)  min= -1.66921282308283E+04
DEBUG_STATS_RL:    cg2d_b (SOLVE_FOR_PRESSURE)  max=  1.50272111957280E+04
DEBUG_STATS_RL:    cg2d_b (SOLVE_FOR_PRESSURE) mean=  7.96997491614639E-01
DEBUG_STATS_RL:    cg2d_b (SOLVE_FOR_PRESSURE) S.D.=  3.45154435982882E+03
 cg2d: Sum(rhs),rhsMax =   1.10534089336833E-01  1.09638367413411E+00
(PID.TID 0000.0001)  cg2d: iter=     1 ; resid.=  8.52316095690945E-01
(PID.TID 0000.0001)  cg2d: iter=     2 ; resid.=  7.52955387789804E-01
(PID.TID 0000.0001)  cg2d: iter=     3 ; resid.=  6.23727893112736E-01
(PID.TID 0000.0001)  cg2d: iter=     4 ; resid.=  5.50564673916523E-01
(PID.TID 0000.0001)  cg2d: iter=     5 ; resid.=  4.85819787011026E-01
(PID.TID 0000.0001)  cg2d: iter=     6 ; resid.=  3.85847304937593E-01
(PID.TID 0000.0001)  cg2d: iter=     7 ; resid.=  3.62329400107178E-01
(PID.TID 0000.0001)  cg2d: iter=     8 ; resid.=  2.23383646594161E-01
(PID.TID 0000.0001)  cg2d: iter=     9 ; resid.=  1.60051128797545E-01
(PID.TID 0000.0001)  cg2d: iter=    10 ; resid.=  1.42839915423589E-01
(PID.TID 0000.0001)  cg2d: iter=    11 ; resid.=  1.24519933204003E-01
(PID.TID 0000.0001)  cg2d: iter=    12 ; resid.=  8.79555740684725E-02
(PID.TID 0000.0001)  cg2d: iter=    13 ; resid.=  6.72516841863326E-02
(PID.TID 0000.0001)  cg2d: iter=    14 ; resid.=  5.58191904621991E-02
(PID.TID 0000.0001)  cg2d: iter=    15 ; resid.=  4.35933879761217E-02
(PID.TID 0000.0001)  cg2d: iter=    16 ; resid.=  3.71740206242882E-02
(PID.TID 0000.0001)  cg2d: iter=    17 ; resid.=  3.62393483779647E-02
(PID.TID 0000.0001)  cg2d: iter=    18 ; resid.=  3.03002368303493E-02
(PID.TID 0000.0001)  cg2d: iter=    19 ; resid.=  2.53953091399685E-02
(PID.TID 0000.0001)  cg2d: iter=    20 ; resid.=  2.10901655493842E-02
(PID.TID 0000.0001)  cg2d: iter=    21 ; resid.=  1.68985072119495E-02
(PID.TID 0000.0001)  cg2d: iter=    22 ; resid.=  1.40232067330345E-02
(PID.TID 0000.0001)  cg2d: iter=    23 ; resid.=  1.10461418840633E-02
(PID.TID 0000.0001)  cg2d: iter=    24 ; resid.=  1.04874468565845E-02
(PID.TID 0000.0001)  cg2d: iter=    25 ; resid.=  8.03322530442163E-03
(PID.TID 0000.0001)  cg2d: iter=    26 ; resid.=  6.57925646259259E-03
(PID.TID 0000.0001)  cg2d: iter=    27 ; resid.=  5.45370338400249E-03
(PID.TID 0000.0001)  cg2d: iter=    28 ; resid.=  4.40872381936315E-03
(PID.TID 0000.0001)  cg2d: iter=    29 ; resid.=  3.37520077160060E-03
(PID.TID 0000.0001)  cg2d: iter=    30 ; resid.=  3.17920896225932E-03
(PID.TID 0000.0001)  cg2d: iter=    31 ; resid.=  2.53994341999446E-03
(PID.TID 0000.0001)  cg2d: iter=    32 ; resid.=  1.89987521913375E-03
(PID.TID 0000.0001)  cg2d: iter=    33 ; resid.=  1.57841230356411E-03
(PID.TID 0000.0001)  cg2d: iter=    34 ; resid.=  1.30767822960606E-03
(PID.TID 0000.0001)  cg2d: iter=    35 ; resid.=  9.43725195585233E-04
(PID.TID 0000.0001)  cg2d: iter=    36 ; resid.=  7.57332767111429E-04
(PID.TID 0000.0001)  cg2d: iter=    37 ; resid.=  6.44395368242327E-04
(PID.TID 0000.0001)  cg2d: iter=    38 ; resid.=  4.99665864095185E-04
(PID.TID 0000.0001)  cg2d: iter=    39 ; resid.=  4.12426442882778E-04
(PID.TID 0000.0001)  cg2d: iter=    40 ; resid.=  3.86072573727136E-04
(PID.TID 0000.0001)  cg2d: iter=    41 ; resid.=  3.32341452262844E-04
(PID.TID 0000.0001)  cg2d: iter=    42 ; resid.=  2.94684449586793E-04
(PID.TID 0000.0001)  cg2d: iter=    43 ; resid.=  2.40457813751532E-04
(PID.TID 0000.0001)  cg2d: iter=    44 ; resid.=  1.85803177594540E-04
(PID.TID 0000.0001)  cg2d: iter=    45 ; resid.=  1.63733651317342E-04
(PID.TID 0000.0001)  cg2d: iter=    46 ; resid.=  1.23598906870050E-04
(PID.TID 0000.0001)  cg2d: iter=    47 ; resid.=  9.31249344567459E-05
(PID.TID 0000.0001)  cg2d: iter=    48 ; resid.=  6.99432684077721E-05
(PID.TID 0000.0001)  cg2d: iter=    49 ; resid.=  5.05108984497424E-05
(PID.TID 0000.0001)  cg2d: iter=    50 ; resid.=  3.97544688750484E-05
(PID.TID 0000.0001)  cg2d: iter=    51 ; resid.=  3.09497140952342E-05
(PID.TID 0000.0001)  cg2d: iter=    52 ; resid.=  2.49186150348946E-05
(PID.TID 0000.0001)  cg2d: iter=    53 ; resid.=  2.07286796050835E-05
(PID.TID 0000.0001)  cg2d: iter=    54 ; resid.=  1.70788191778897E-05
(PID.TID 0000.0001)  cg2d: iter=    55 ; resid.=  1.60505818737121E-05
(PID.TID 0000.0001)  cg2d: iter=    56 ; resid.=  1.46409714700375E-05
(PID.TID 0000.0001)  cg2d: iter=    57 ; resid.=  1.35554188799332E-05
(PID.TID 0000.0001)  cg2d: iter=    58 ; resid.=  1.25215182238117E-05
(PID.TID 0000.0001)  cg2d: iter=    59 ; resid.=  1.06653045599889E-05
(PID.TID 0000.0001)  cg2d: iter=    60 ; resid.=  9.22684410367729E-06
(PID.TID 0000.0001)  cg2d: iter=    61 ; resid.=  7.25414584902021E-06
(PID.TID 0000.0001)  cg2d: iter=    62 ; resid.=  5.26853795237493E-06
(PID.TID 0000.0001)  cg2d: iter=    63 ; resid.=  4.34409207683538E-06
(PID.TID 0000.0001)  cg2d: iter=    64 ; resid.=  3.87879742447998E-06
(PID.TID 0000.0001)  cg2d: iter=    65 ; resid.=  3.01835996641113E-06
(PID.TID 0000.0001)  cg2d: iter=    66 ; resid.=  2.55207788573664E-06
(PID.TID 0000.0001)  cg2d: iter=    67 ; resid.=  2.15864720177916E-06
(PID.TID 0000.0001)  cg2d: iter=    68 ; resid.=  1.75387457305924E-06
(PID.TID 0000.0001)  cg2d: iter=    69 ; resid.=  1.29198973208942E-06
(PID.TID 0000.0001)  cg2d: iter=    70 ; resid.=  1.02487072692238E-06
(PID.TID 0000.0001)  cg2d: iter=    71 ; resid.=  7.96324230902182E-07
(PID.TID 0000.0001)  cg2d: iter=    72 ; resid.=  6.29621583334286E-07
(PID.TID 0000.0001)  cg2d: iter=    73 ; resid.=  5.59539292539366E-07
(PID.TID 0000.0001)  cg2d: iter=    74 ; resid.=  4.83620897629667E-07
(PID.TID 0000.0001)  cg2d: iter=    75 ; resid.=  4.14406220236408E-07
(PID.TID 0000.0001)  cg2d: iter=    76 ; resid.=  3.98249405491619E-07
(PID.TID 0000.0001)  cg2d: iter=    77 ; resid.=  3.28812362505551E-07
(PID.TID 0000.0001)  cg2d: iter=    78 ; resid.=  2.65452902159091E-07
(PID.TID 0000.0001)  cg2d: iter=    79 ; resid.=  2.54269431871261E-07
(PID.TID 0000.0001)  cg2d: iter=    80 ; resid.=  2.31386326753008E-07
(PID.TID 0000.0001)  cg2d: iter=    81 ; resid.=  1.94144188507096E-07
(PID.TID 0000.0001)  cg2d: iter=    82 ; resid.=  1.51621116313825E-07
(PID.TID 0000.0001)  cg2d: iter=    83 ; resid.=  1.20901003119159E-07
(PID.TID 0000.0001)  cg2d: iter=    84 ; resid.=  9.33151705835272E-08
(PID.TID 0000.0001)  cg2d: iter=    85 ; resid.=  7.65048599061714E-08
(PID.TID 0000.0001)  cg2d: iter=    86 ; resid.=  5.73706023908689E-08
(PID.TID 0000.0001)  cg2d: iter=    87 ; resid.=  4.41344360328250E-08
(PID.TID 0000.0001)  cg2d: iter=    88 ; resid.=  3.98861236908411E-08
(PID.TID 0000.0001)  cg2d: iter=    89 ; resid.=  3.52643788983005E-08
(PID.TID 0000.0001)  cg2d: iter=    90 ; resid.=  2.90964343988480E-08
(PID.TID 0000.0001)  cg2d: iter=    91 ; resid.=  2.55579120520284E-08
(PID.TID 0000.0001)  cg2d: iter=    92 ; resid.=  2.07942759889900E-08
(PID.TID 0000.0001)  cg2d: iter=    93 ; resid.=  1.68730083648505E-08
(PID.TID 0000.0001)  cg2d: iter=    94 ; resid.=  1.28117749482551E-08
(PID.TID 0000.0001)  cg2d: iter=    95 ; resid.=  9.78445905398923E-09
(PID.TID 0000.0001)  cg2d: iter=    96 ; resid.=  7.04578228421192E-09
(PID.TID 0000.0001)  cg2d: iter=    97 ; resid.=  5.25525958747308E-09
(PID.TID 0000.0001)  cg2d: iter=    98 ; resid.=  4.56969714423542E-09
(PID.TID 0000.0001)  cg2d: iter=    99 ; resid.=  3.96029065194028E-09
(PID.TID 0000.0001)  cg2d: iter=   100 ; resid.=  3.31453469312103E-09
(PID.TID 0000.0001)  cg2d: iter=   101 ; resid.=  2.52314479945571E-09
(PID.TID 0000.0001)  cg2d: iter=   102 ; resid.=  2.03672056466226E-09
(PID.TID 0000.0001)  cg2d: iter=   103 ; resid.=  1.57631626369896E-09
(PID.TID 0000.0001)  cg2d: iter=   104 ; resid.=  1.29005247814882E-09
(PID.TID 0000.0001)  cg2d: iter=   105 ; resid.=  9.78070890428496E-10
(PID.TID 0000.0001)  cg2d: iter=   106 ; resid.=  7.87328105285979E-10
(PID.TID 0000.0001)  cg2d: iter=   107 ; resid.=  6.18615861039964E-10
(PID.TID 0000.0001)  cg2d: iter=   108 ; resid.=  4.79877175436833E-10
(PID.TID 0000.0001)  cg2d: iter=   109 ; resid.=  4.15064258414913E-10
(PID.TID 0000.0001)  cg2d: iter=   110 ; resid.=  3.50685480998721E-10
(PID.TID 0000.0001)  cg2d: iter=   111 ; resid.=  3.18977457978388E-10
(PID.TID 0000.0001)  cg2d: iter=   112 ; resid.=  2.60337751738927E-10
(PID.TID 0000.0001)  cg2d: iter=   113 ; resid.=  2.17009308896768E-10
(PID.TID 0000.0001)  cg2d: iter=   114 ; resid.=  1.67508171776382E-10
(PID.TID 0000.0001)  cg2d: iter=   115 ; resid.=  1.23517229135123E-10
(PID.TID 0000.0001)  cg2d: iter=   116 ; resid.=  9.51059744686017E-11
(PID.TID 0000.0001)  cg2d: iter=   117 ; resid.=  7.24663369277920E-11
(PID.TID 0000.0001)  cg2d: iter=   118 ; resid.=  5.39323173338501E-11
(PID.TID 0000.0001)  cg2d: iter=   119 ; resid.=  3.92503082103178E-11
(PID.TID 0000.0001)  cg2d: iter=   120 ; resid.=  2.92320981418696E-11
(PID.TID 0000.0001)  cg2d: iter=   121 ; resid.=  2.27046786906647E-11
(PID.TID 0000.0001)  cg2d: iter=   122 ; resid.=  1.73438702491537E-11
(PID.TID 0000.0001)  cg2d: iter=   123 ; resid.=  1.31956630373194E-11
(PID.TID 0000.0001)  cg2d: iter=   124 ; resid.=  9.55262917821580E-12
(PID.TID 0000.0001)  cg2d: iter=   125 ; resid.=  6.81492006325247E-12
(PID.TID 0000.0001)  cg2d: iter=   126 ; resid.=  4.98960476078126E-12
(PID.TID 0000.0001)  cg2d: iter=   127 ; resid.=  3.62053559072101E-12
(PID.TID 0000.0001)  cg2d: iter=   128 ; resid.=  2.75433056503102E-12
(PID.TID 0000.0001)  cg2d: iter=   129 ; resid.=  2.01456999137897E-12
(PID.TID 0000.0001)  cg2d: iter=   130 ; resid.=  1.54140154117569E-12
(PID.TID 0000.0001)  cg2d: iter=   131 ; resid.=  1.28195175197069E-12
(PID.TID 0000.0001)  cg2d: iter=   132 ; resid.=  9.81986828889297E-13
(PID.TID 0000.0001)  cg2d: iter=   133 ; resid.=  7.03730391664203E-13
(PID.TID 0000.0001)  cg2d: iter=   134 ; resid.=  5.85493745383182E-13
(PID.TID 0000.0001)  cg2d: iter=   135 ; resid.=  4.61625482209899E-13
(PID.TID 0000.0001)  cg2d: iter=   136 ; resid.=  3.28907670368351E-13
(PID.TID 0000.0001)  cg2d: iter=   137 ; resid.=  2.58862668026198E-13
(PID.TID 0000.0001)  cg2d: iter=   138 ; resid.=  1.97465783785204E-13
(PID.TID 0000.0001)  cg2d: iter=   139 ; resid.=  1.51740159490086E-13
(PID.TID 0000.0001)  cg2d: iter=   140 ; resid.=  1.07070456809655E-13
(PID.TID 0000.0001)  cg2d: iter=   141 ; resid.=  7.39663837171383E-14
DEBUG_STATS_RL:    cg2d_x (SOLVE_FOR_PRESSURE)  min= -3.97320587026130E+01
DEBUG_STATS_RL:    cg2d_x (SOLVE_FOR_PRESSURE)  max=  1.35274248475765E+01
DEBUG_STATS_RL:    cg2d_x (SOLVE_FOR_PRESSURE) mean= -2.02948639798277E+00
DEBUG_STATS_RL:    cg2d_x (SOLVE_FOR_PRESSURE) S.D.=  8.78521630556471E+00
(PID.TID 0000.0001)      cg2d_init_res =   1.08447857804122E+00
(PID.TID 0000.0001)      cg2d_iters(min,last) =      -1     141
(PID.TID 0000.0001)      cg2d_last_res =   7.39663837171383E-14
(PID.TID 0000.0001) // =======================================================
(PID.TID 0000.0001) // Begin MONITOR dynamic field statistics
(PID.TID 0000.0001) // =======================================================
(PID.TID 0000.0001) %MON time_tsnumber                =                    12
(PID.TID 0000.0001) %MON time_secondsf                =   1.0368000000000E+06
(PID.TID 0000.0001) %MON dynstat_eta_max              =   1.3789423901709E+00
(PID.TID 0000.0001) %MON dynstat_eta_min              =  -4.0501588891553E+00
(PID.TID 0000.0001) %MON dynstat_eta_mean             =  -8.3156805807392E-04
(PID.TID 0000.0001) %MON dynstat_eta_sd               =   7.1649756169877E-01
(PID.TID 0000.0001) %MON dynstat_eta_del2             =   1.9263121645929E-03
(PID.TID 0000.0001) %MON dynstat_uvel_max             =   1.7690370795199E-01
(PID.TID 0000.0001) %MON dynstat_uvel_min             =  -8.1941044940264E-02
(PID.TID 0000.0001) %MON dynstat_uvel_mean            =   9.4619202203187E-04
(PID.TID 0000.0001) %MON dynstat_uvel_sd              =   1.6913685540342E-02
(PID.TID 0000.0001) %MON dynstat_uvel_del2            =   1.0464314783298E-04
(PID.TID 0000.0001) %MON dynstat_vvel_max             =   1.1107009551000E-01
(PID.TID 0000.0001) %MON dynstat_vvel_min             =  -1.1524693042725E-01
(PID.TID 0000.0001) %MON dynstat_vvel_mean            =  -2.8285256690188E-04
(PID.TID 0000.0001) %MON dynstat_vvel_sd              =   1.1064399707062E-02
(PID.TID 0000.0001) %MON dynstat_vvel_del2            =   1.0175806976060E-04
(PID.TID 0000.0001) %MON dynstat_wvel_max             =   2.5794041687227E-04
(PID.TID 0000.0001) %MON dynstat_wvel_min             =  -2.2103260393797E-04
(PID.TID 0000.0001) %MON dynstat_wvel_mean            =  -4.2559460409915E-22
(PID.TID 0000.0001) %MON dynstat_wvel_sd              =   2.3530752707970E-05
(PID.TID 0000.0001) %MON dynstat_wvel_del2            =   2.6362059409473E-07
(PID.TID 0000.0001) %MON dynstat_theta_max            =   2.9874018513070E+01
(PID.TID 0000.0001) %MON dynstat_theta_min            =  -1.9164576752499E+00
(PID.TID 0000.0001) %MON dynstat_theta_mean           =   3.6393240378650E+00
(PID.TID 0000.0001) %MON dynstat_theta_sd             =   4.4147462604120E+00
(PID.TID 0000.0001) %MON dynstat_theta_del2           =   5.0054604485206E-03
(PID.TID 0000.0001) %MON dynstat_salt_max             =   3.7456926555888E+01
(PID.TID 0000.0001) %MON dynstat_salt_min             =   2.9777091740725E+01
(PID.TID 0000.0001) %MON dynstat_salt_mean            =   3.4737972480505E+01
(PID.TID 0000.0001) %MON dynstat_salt_sd              =   2.9615863983954E-01
(PID.TID 0000.0001) %MON dynstat_salt_del2            =   1.0109198188198E-03
(PID.TID 0000.0001) %MON dynstat_sst_max              =   2.9874018513070E+01
(PID.TID 0000.0001) %MON dynstat_sst_min              =  -1.9164576752499E+00
(PID.TID 0000.0001) %MON dynstat_sst_mean             =   1.8643367004342E+01
(PID.TID 0000.0001) %MON dynstat_sst_sd               =   9.0716769289668E+00
(PID.TID 0000.0001) %MON dynstat_sst_del2             =   2.6195787664805E-02
(PID.TID 0000.0001) %MON dynstat_sss_max              =   3.7450224056174E+01
(PID.TID 0000.0001) %MON dynstat_sss_min              =   2.9777091740725E+01
(PID.TID 0000.0001) %MON dynstat_sss_mean             =   3.4874656564943E+01
(PID.TID 0000.0001) %MON dynstat_sss_sd               =   9.6827091645840E-01
(PID.TID 0000.0001) %MON dynstat_sss_del2             =   7.9892772608547E-03
(PID.TID 0000.0001) %MON forcing_qnet_max             =   4.3742086791992E+02
(PID.TID 0000.0001) %MON forcing_qnet_min             =  -1.8188829345703E+02
(PID.TID 0000.0001) %MON forcing_qnet_mean            =  -1.6562573824336E+01
(PID.TID 0000.0001) %MON forcing_qnet_sd              =   1.1061005498176E+02
(PID.TID 0000.0001) %MON forcing_qnet_del2            =   1.0118306891868E+00
(PID.TID 0000.0001) %MON forcing_qsw_max              =   0.0000000000000E+00
(PID.TID 0000.0001) %MON forcing_qsw_min              =   0.0000000000000E+00
(PID.TID 0000.0001) %MON forcing_qsw_mean             =   0.0000000000000E+00
(PID.TID 0000.0001) %MON forcing_qsw_sd               =   0.0000000000000E+00
(PID.TID 0000.0001) %MON forcing_qsw_del2             =   0.0000000000000E+00
(PID.TID 0000.0001) %MON forcing_empmr_max            =   8.1895939748241E-05
(PID.TID 0000.0001) %MON forcing_empmr_min            =  -7.3862861427187E-05
(PID.TID 0000.0001) %MON forcing_empmr_mean           =   8.8385803112860E-07
(PID.TID 0000.0001) %MON forcing_empmr_sd             =   2.8441005317708E-05
(PID.TID 0000.0001) %MON forcing_empmr_del2           =   3.6422974995246E-07
(PID.TID 0000.0001) %MON forcing_fu_max               =   2.7018036246300E-01
(PID.TID 0000.0001) %MON forcing_fu_min               =  -1.6762689054012E-01
(PID.TID 0000.0001) %MON forcing_fu_mean              =   1.6032506436715E-02
(PID.TID 0000.0001) %MON forcing_fu_sd                =   9.0583250401530E-02
(PID.TID 0000.0001) %MON forcing_fu_del2              =   6.9548641877095E-04
(PID.TID 0000.0001) %MON forcing_fv_max               =   2.2560169994831E-01
(PID.TID 0000.0001) %MON forcing_fv_min               =  -1.8047553002834E-01
(PID.TID 0000.0001) %MON forcing_fv_mean              =  -5.5539478469483E-03
(PID.TID 0000.0001) %MON forcing_fv_sd                =   4.7114745146942E-02
(PID.TID 0000.0001) %MON forcing_fv_del2              =   4.7455200431690E-04
(PID.TID 0000.0001) %MON trAdv_CFL_u_max              =   7.6260275730636E-02
(PID.TID 0000.0001) %MON trAdv_CFL_v_max              =   2.1395278135476E-02
(PID.TID 0000.0001) %MON trAdv_CFL_w_max              =   1.1210678691726E-01
(PID.TID 0000.0001) %MON advcfl_uvel_max              =   6.2882983002185E-02
(PID.TID 0000.0001) %MON advcfl_vvel_max              =   2.2390630243469E-02
(PID.TID 0000.0001) %MON advcfl_wvel_max              =   7.1204263821740E-02
(PID.TID 0000.0001) %MON advcfl_W_hf_max              =   8.3919310932765E-02
(PID.TID 0000.0001) %MON pe_b_mean                    =   6.5691808585395E-04
(PID.TID 0000.0001) %MON ke_max                       =   1.5198655967424E-02
(PID.TID 0000.0001) %MON ke_mean                      =   1.8536996735192E-04
(PID.TID 0000.0001) %MON ke_vol                       =   1.3226782436723E+18
(PID.TID 0000.0001) %MON vort_r_min                   =  -6.8851343780346E-07
(PID.TID 0000.0001) %MON vort_r_max                   =   6.3794706042538E-07
(PID.TID 0000.0001) %MON vort_a_mean                  =  -2.5274805845317E-05
(PID.TID 0000.0001) %MON vort_a_sd                    =   7.3604817252821E-05
(PID.TID 0000.0001) %MON vort_p_mean                  =  -3.1845653843821E-05
(PID.TID 0000.0001) %MON vort_p_sd                    =   1.3162148246059E-04
(PID.TID 0000.0001) %MON surfExpan_theta_mean         =   2.8171675213074E-06
(PID.TID 0000.0001) %MON surfExpan_salt_mean          =   2.8152301337762E-07
(PID.TID 0000.0001) // =======================================================
(PID.TID 0000.0001) // End MONITOR dynamic field statistics
(PID.TID 0000.0001) // =======================================================
 EXTERNAL_FIELDS_LOAD,        12 : iP,iLd,i0,i1=   12    1   12    1 ; Wght=  0.1000000000  0.9000000000
 EXTERNAL_FIELDS_LOAD: (fu0,1),fu,fv= -4.5368E-02 -3.5633E-02 -3.6606E-02 -5.8556E-02
 EXTERNAL_FIELDS_LOAD: SST,SSS,Q,E-P=  7.7737E-01  3.4644E+01  2.6564E+02  1.1478E-05
DEBUG_STATS_RL:          Uvel (THERMODYNAMICS)  min= -8.19410449402639E-02
DEBUG_STATS_RL:          Uvel (THERMODYNAMICS)  max=  1.76903707951988E-01
DEBUG_STATS_RL:          Uvel (THERMODYNAMICS) mean=  4.62153824453601E-03
DEBUG_STATS_RL:          Uvel (THERMODYNAMICS) S.D.=  2.42663188068306E-02
DEBUG_STATS_RL:          Vvel (THERMODYNAMICS)  min= -1.15246930427253E-01
DEBUG_STATS_RL:          Vvel (THERMODYNAMICS)  max=  1.11070095509996E-01
DEBUG_STATS_RL:          Vvel (THERMODYNAMICS) mean= -8.00188515647963E-04
DEBUG_STATS_RL:          Vvel (THERMODYNAMICS) S.D.=  1.56739948260031E-02
DEBUG_STATS_RL:          Wvel (THERMODYNAMICS)  min= -2.21032603937968E-04
DEBUG_STATS_RL:          Wvel (THERMODYNAMICS)  max=  2.57940416872267E-04
DEBUG_STATS_RL:          Wvel (THERMODYNAMICS) mean= -4.12477893081115E-07
DEBUG_STATS_RL:          Wvel (THERMODYNAMICS) S.D.=  2.11628237375257E-05
DEBUG_STATS_RL:         Theta (THERMODYNAMICS)  min= -1.93091027283531E+00
DEBUG_STATS_RL:         Theta (THERMODYNAMICS)  max=  2.98662125198467E+01
DEBUG_STATS_RL:         Theta (THERMODYNAMICS) mean=  3.22593293543247E+00
DEBUG_STATS_RL:         Theta (THERMODYNAMICS) S.D.=  5.85288824174975E+00
DEBUG_STATS_RL:          Salt (THERMODYNAMICS)  min=  2.00000000000000E-02
DEBUG_STATS_RL:          Salt (THERMODYNAMICS)  max=  3.74570827000702E+01
DEBUG_STATS_RL:          Salt (THERMODYNAMICS) mean=  1.88651626390459E+01
DEBUG_STATS_RL:          Salt (THERMODYNAMICS) S.D.=  1.73006412271533E+01
DEBUG_STATS_RL:         GtNm1 (THERMODYNAMICS)  min= -5.58310572138790E-06
DEBUG_STATS_RL:         GtNm1 (THERMODYNAMICS)  max=  4.87555668462387E-06
DEBUG_STATS_RL:         GtNm1 (THERMODYNAMICS) mean=  1.73599095508772E-08
DEBUG_STATS_RL:         GtNm1 (THERMODYNAMICS) S.D.=  2.68528718629797E-07
DEBUG_STATS_RL:         GsNm1 (THERMODYNAMICS)  min= -1.30913571055408E-06
DEBUG_STATS_RL:         GsNm1 (THERMODYNAMICS)  max=  1.38457582032811E-06
DEBUG_STATS_RL:         GsNm1 (THERMODYNAMICS) mean= -1.79052183652739E-11
DEBUG_STATS_RL:         GsNm1 (THERMODYNAMICS) S.D.=  2.50813087382446E-08
DEBUG_STATS_RL:                EtaN (DYNAMICS)  min= -4.05015888915527E+00
DEBUG_STATS_RL:                EtaN (DYNAMICS)  max=  1.37894239017091E+00
DEBUG_STATS_RL:                EtaN (DYNAMICS) mean= -2.06879347398857E-01
DEBUG_STATS_RL:                EtaN (DYNAMICS) S.D.=  8.95536830332795E-01
DEBUG_STATS_RL:                Uvel (DYNAMICS)  min= -8.19410449402639E-02
DEBUG_STATS_RL:                Uvel (DYNAMICS)  max=  1.76903707951988E-01
DEBUG_STATS_RL:                Uvel (DYNAMICS) mean=  4.62153824453601E-03
DEBUG_STATS_RL:                Uvel (DYNAMICS) S.D.=  2.42663188068306E-02
DEBUG_STATS_RL:                Vvel (DYNAMICS)  min= -1.15246930427253E-01
DEBUG_STATS_RL:                Vvel (DYNAMICS)  max=  1.11070095509996E-01
DEBUG_STATS_RL:                Vvel (DYNAMICS) mean= -8.00188515647963E-04
DEBUG_STATS_RL:                Vvel (DYNAMICS) S.D.=  1.56739948260031E-02
DEBUG_STATS_RL:                Wvel (DYNAMICS)  min= -2.21032603937968E-04
DEBUG_STATS_RL:                Wvel (DYNAMICS)  max=  2.57940416872267E-04
DEBUG_STATS_RL:                Wvel (DYNAMICS) mean= -4.12477893081115E-07
DEBUG_STATS_RL:                Wvel (DYNAMICS) S.D.=  2.11628237375257E-05
DEBUG_STATS_RL:               Theta (DYNAMICS)  min= -1.93091027283531E+00
DEBUG_STATS_RL:               Theta (DYNAMICS)  max=  2.98662125198467E+01
DEBUG_STATS_RL:               Theta (DYNAMICS) mean=  3.22593293543247E+00
DEBUG_STATS_RL:               Theta (DYNAMICS) S.D.=  5.85288824174975E+00
DEBUG_STATS_RL:                Salt (DYNAMICS)  min=  2.00000000000000E-02
DEBUG_STATS_RL:                Salt (DYNAMICS)  max=  3.74570827000702E+01
DEBUG_STATS_RL:                Salt (DYNAMICS) mean=  1.88651626390459E+01
DEBUG_STATS_RL:                Salt (DYNAMICS) S.D.=  1.73006412271533E+01
DEBUG_STATS_RL:                  Gu (DYNAMICS)  min= -8.73945959758544E-02
DEBUG_STATS_RL:                  Gu (DYNAMICS)  max=  1.77300925405860E-01
DEBUG_STATS_RL:                  Gu (DYNAMICS) mean=  2.70607645775256E-03
DEBUG_STATS_RL:                  Gu (DYNAMICS) S.D.=  2.50164130584370E-02
DEBUG_STATS_RL:                  Gv (DYNAMICS)  min= -1.13468783529435E-01
DEBUG_STATS_RL:                  Gv (DYNAMICS)  max=  1.07308031484683E-01
DEBUG_STATS_RL:                  Gv (DYNAMICS) mean=  4.91854345076303E-04
DEBUG_STATS_RL:                  Gv (DYNAMICS) S.D.=  1.56473604016858E-02
DEBUG_STATS_RL:               GuNm1 (DYNAMICS)  min= -6.27732750721775E-06
DEBUG_STATS_RL:               GuNm1 (DYNAMICS)  max=  7.70414496487398E-06
DEBUG_STATS_RL:               GuNm1 (DYNAMICS) mean= -3.12100091416017E-08
DEBUG_STATS_RL:               GuNm1 (DYNAMICS) S.D.=  1.11693211931472E-06
DEBUG_STATS_RL:               GvNm1 (DYNAMICS)  min= -8.67685563257966E-06
DEBUG_STATS_RL:               GvNm1 (DYNAMICS)  max=  1.66514372008122E-05
DEBUG_STATS_RL:               GvNm1 (DYNAMICS) mean=  7.71455181328467E-07
DEBUG_STATS_RL:               GvNm1 (DYNAMICS) S.D.=  2.59642451083745E-06
DEBUG_STATS_RL:               GtNm1 (DYNAMICS)  min= -5.58310572138790E-06
DEBUG_STATS_RL:               GtNm1 (DYNAMICS)  max=  4.87555668462387E-06
DEBUG_STATS_RL:               GtNm1 (DYNAMICS) mean=  1.73599095508772E-08
DEBUG_STATS_RL:               GtNm1 (DYNAMICS) S.D.=  2.68528718629797E-07
DEBUG_STATS_RL:               GsNm1 (DYNAMICS)  min= -1.30913571055408E-06
DEBUG_STATS_RL:               GsNm1 (DYNAMICS)  max=  1.38457582032811E-06
DEBUG_STATS_RL:               GsNm1 (DYNAMICS) mean= -1.79052183652739E-11
DEBUG_STATS_RL:               GsNm1 (DYNAMICS) S.D.=  2.50813087382446E-08
DEBUG_STATS_RL:    cg2d_b (SOLVE_FOR_PRESSURE)  min= -1.63992305316187E+04
DEBUG_STATS_RL:    cg2d_b (SOLVE_FOR_PRESSURE)  max=  1.45056092681576E+04
DEBUG_STATS_RL:    cg2d_b (SOLVE_FOR_PRESSURE) mean=  8.68494721171982E-01
DEBUG_STATS_RL:    cg2d_b (SOLVE_FOR_PRESSURE) S.D.=  3.38020441200237E+03
 cg2d: Sum(rhs),rhsMax =   1.22601196174295E-01  1.07714536903819E+00
(PID.TID 0000.0001)  cg2d: iter=     1 ; resid.=  6.91494856089633E-01
(PID.TID 0000.0001)  cg2d: iter=     2 ; resid.=  5.81139610349388E-01
(PID.TID 0000.0001)  cg2d: iter=     3 ; resid.=  4.92219086601855E-01
(PID.TID 0000.0001)  cg2d: iter=     4 ; resid.=  4.61181551081087E-01
(PID.TID 0000.0001)  cg2d: iter=     5 ; resid.=  4.11669642769753E-01
(PID.TID 0000.0001)  cg2d: iter=     6 ; resid.=  3.37995072617810E-01
(PID.TID 0000.0001)  cg2d: iter=     7 ; resid.=  3.41635353632537E-01
(PID.TID 0000.0001)  cg2d: iter=     8 ; resid.=  2.26599576180366E-01
(PID.TID 0000.0001)  cg2d: iter=     9 ; resid.=  1.60116541229728E-01
(PID.TID 0000.0001)  cg2d: iter=    10 ; resid.=  1.45538399359419E-01
(PID.TID 0000.0001)  cg2d: iter=    11 ; resid.=  1.36968630916194E-01
(PID.TID 0000.0001)  cg2d: iter=    12 ; resid.=  1.04715948846511E-01
(PID.TID 0000.0001)  cg2d: iter=    13 ; resid.=  8.76681810261264E-02
(PID.TID 0000.0001)  cg2d: iter=    14 ; resid.=  7.75650469287052E-02
(PID.TID 0000.0001)  cg2d: iter=    15 ; resid.=  6.35013887632458E-02
(PID.TID 0000.0001)  cg2d: iter=    16 ; resid.=  5.56603305060834E-02
(PID.TID 0000.0001)  cg2d: iter=    17 ; resid.=  5.15898137504457E-02
(PID.TID 0000.0001)  cg2d: iter=    18 ; resid.=  4.03183677516248E-02
(PID.TID 0000.0001)  cg2d: iter=    19 ; resid.=  3.06396823015583E-02
(PID.TID 0000.0001)  cg2d: iter=    20 ; resid.=  2.45950644316063E-02
(PID.TID 0000.0001)  cg2d: iter=    21 ; resid.=  1.95651249825365E-02
(PID.TID 0000.0001)  cg2d: iter=    22 ; resid.=  1.63262216090036E-02
(PID.TID 0000.0001)  cg2d: iter=    23 ; resid.=  1.33858643059172E-02
(PID.TID 0000.0001)  cg2d: iter=    24 ; resid.=  1.25786836263852E-02
(PID.TID 0000.0001)  cg2d: iter=    25 ; resid.=  1.03756809968283E-02
(PID.TID 0000.0001)  cg2d: iter=    26 ; resid.=  9.11598188531836E-03
(PID.TID 0000.0001)  cg2d: iter=    27 ; resid.=  8.14629600109609E-03
(PID.TID 0000.0001)  cg2d: iter=    28 ; resid.=  7.28642318004996E-03
(PID.TID 0000.0001)  cg2d: iter=    29 ; resid.=  5.89387666373917E-03
(PID.TID 0000.0001)  cg2d: iter=    30 ; resid.=  5.57067146129009E-03
(PID.TID 0000.0001)  cg2d: iter=    31 ; resid.=  4.44327233213019E-03
(PID.TID 0000.0001)  cg2d: iter=    32 ; resid.=  3.40208444391679E-03
(PID.TID 0000.0001)  cg2d: iter=    33 ; resid.=  2.98468563192115E-03
(PID.TID 0000.0001)  cg2d: iter=    34 ; resid.=  2.50269685128047E-03
(PID.TID 0000.0001)  cg2d: iter=    35 ; resid.=  1.91001758504235E-03
(PID.TID 0000.0001)  cg2d: iter=    36 ; resid.=  1.54302168485051E-03
(PID.TID 0000.0001)  cg2d: iter=    37 ; resid.=  1.29635193256668E-03
(PID.TID 0000.0001)  cg2d: iter=    38 ; resid.=  1.03495034873126E-03
(PID.TID 0000.0001)  cg2d: iter=    39 ; resid.=  8.08958856812798E-04
(PID.TID 0000.0001)  cg2d: iter=    40 ; resid.=  7.09793657733802E-04
(PID.TID 0000.0001)  cg2d: iter=    41 ; resid.=  5.74051290531976E-04
(PID.TID 0000.0001)  cg2d: iter=    42 ; resid.=  4.99211956826486E-04
(PID.TID 0000.0001)  cg2d: iter=    43 ; resid.=  3.93014533711062E-04
(PID.TID 0000.0001)  cg2d: iter=    44 ; resid.=  3.12676380286243E-04
(PID.TID 0000.0001)  cg2d: iter=    45 ; resid.=  2.83292667222461E-04
(PID.TID 0000.0001)  cg2d: iter=    46 ; resid.=  2.35545705900737E-04
(PID.TID 0000.0001)  cg2d: iter=    47 ; resid.=  1.90414599358732E-04
(PID.TID 0000.0001)  cg2d: iter=    48 ; resid.=  1.61641010645184E-04
(PID.TID 0000.0001)  cg2d: iter=    49 ; resid.=  1.42560064598474E-04
(PID.TID 0000.0001)  cg2d: iter=    50 ; resid.=  1.32570507405351E-04
(PID.TID 0000.0001)  cg2d: iter=    51 ; resid.=  1.25715464793776E-04
(PID.TID 0000.0001)  cg2d: iter=    52 ; resid.=  1.06717260171810E-04
(PID.TID 0000.0001)  cg2d: iter=    53 ; resid.=  8.80093331385681E-05
(PID.TID 0000.0001)  cg2d: iter=    54 ; resid.=  7.09225856546258E-05
(PID.TID 0000.0001)  cg2d: iter=    55 ; resid.=  5.86015362971743E-05
(PID.TID 0000.0001)  cg2d: iter=    56 ; resid.=  4.54666089050509E-05
(PID.TID 0000.0001)  cg2d: iter=    57 ; resid.=  3.39734070676254E-05
(PID.TID 0000.0001)  cg2d: iter=    58 ; resid.=  2.46213433971235E-05
(PID.TID 0000.0001)  cg2d: iter=    59 ; resid.=  1.82234718103390E-05
(PID.TID 0000.0001)  cg2d: iter=    60 ; resid.=  1.40153270330478E-05
(PID.TID 0000.0001)  cg2d: iter=    61 ; resid.=  1.08699733339597E-05
(PID.TID 0000.0001)  cg2d: iter=    62 ; resid.=  7.64878294942646E-06
(PID.TID 0000.0001)  cg2d: iter=    63 ; resid.=  6.29357788106510E-06
(PID.TID 0000.0001)  cg2d: iter=    64 ; resid.=  6.07082196750365E-06
(PID.TID 0000.0001)  cg2d: iter=    65 ; resid.=  4.74754694601701E-06
(PID.TID 0000.0001)  cg2d: iter=    66 ; resid.=  4.14642768173331E-06
(PID.TID 0000.0001)  cg2d: iter=    67 ; resid.=  3.58857806497977E-06
(PID.TID 0000.0001)  cg2d: iter=    68 ; resid.=  2.98996636135750E-06
(PID.TID 0000.0001)  cg2d: iter=    69 ; resid.=  2.30197924420466E-06
(PID.TID 0000.0001)  cg2d: iter=    70 ; resid.=  1.90718266649884E-06
(PID.TID 0000.0001)  cg2d: iter=    71 ; resid.=  1.52308575342948E-06
(PID.TID 0000.0001)  cg2d: iter=    72 ; resid.=  1.25034281095646E-06
(PID.TID 0000.0001)  cg2d: iter=    73 ; resid.=  1.10669998868529E-06
(PID.TID 0000.0001)  cg2d: iter=    74 ; resid.=  8.94414601722282E-07
(PID.TID 0000.0001)  cg2d: iter=    75 ; resid.=  6.92384185312038E-07
(PID.TID 0000.0001)  cg2d: iter=    76 ; resid.=  5.96167940477899E-07
(PID.TID 0000.0001)  cg2d: iter=    77 ; resid.=  4.42437591158689E-07
(PID.TID 0000.0001)  cg2d: iter=    78 ; resid.=  3.32101863302721E-07
(PID.TID 0000.0001)  cg2d: iter=    79 ; resid.=  2.99369766951230E-07
(PID.TID 0000.0001)  cg2d: iter=    80 ; resid.=  2.52902348244322E-07
(PID.TID 0000.0001)  cg2d: iter=    81 ; resid.=  2.01864693669158E-07
(PID.TID 0000.0001)  cg2d: iter=    82 ; resid.=  1.55949490099710E-07
(PID.TID 0000.0001)  cg2d: iter=    83 ; resid.=  1.33021745040582E-07
(PID.TID 0000.0001)  cg2d: iter=    84 ; resid.=  1.07887302787078E-07
(PID.TID 0000.0001)  cg2d: iter=    85 ; resid.=  9.70886789260750E-08
(PID.TID 0000.0001)  cg2d: iter=    86 ; resid.=  7.72091270852372E-08
(PID.TID 0000.0001)  cg2d: iter=    87 ; resid.=  5.86599349121597E-08
(PID.TID 0000.0001)  cg2d: iter=    88 ; resid.=  5.08853619593508E-08
(PID.TID 0000.0001)  cg2d: iter=    89 ; resid.=  4.34181025724833E-08
(PID.TID 0000.0001)  cg2d: iter=    90 ; resid.=  3.55701374873029E-08
(PID.TID 0000.0001)  cg2d: iter=    91 ; resid.=  3.22039724424825E-08
(PID.TID 0000.0001)  cg2d: iter=    92 ; resid.=  2.68024105532987E-08
(PID.TID 0000.0001)  cg2d: iter=    93 ; resid.=  2.23284547619324E-08
(PID.TID 0000.0001)  cg2d: iter=    94 ; resid.=  1.79569644405835E-08
(PID.TID 0000.0001)  cg2d: iter=    95 ; resid.=  1.33796708751643E-08
(PID.TID 0000.0001)  cg2d: iter=    96 ; resid.=  9.49639742041251E-09
(PID.TID 0000.0001)  cg2d: iter=    97 ; resid.=  6.79144835444965E-09
(PID.TID 0000.0001)  cg2d: iter=    98 ; resid.=  5.60205209976927E-09
(PID.TID 0000.0001)  cg2d: iter=    99 ; resid.=  4.64715724019094E-09
(PID.TID 0000.0001)  cg2d: iter=   100 ; resid.=  3.59838663560569E-09
(PID.TID 0000.0001)  cg2d: iter=   101 ; resid.=  2.60008318650653E-09
(PID.TID 0000.0001)  cg2d: iter=   102 ; resid.=  2.19775868846553E-09
(PID.TID 0000.0001)  cg2d: iter=   103 ; resid.=  1.85292077497071E-09
(PID.TID 0000.0001)  cg2d: iter=   104 ; resid.=  1.67830926285279E-09
(PID.TID 0000.0001)  cg2d: iter=   105 ; resid.=  1.34684324369109E-09
(PID.TID 0000.0001)  cg2d: iter=   106 ; resid.=  1.10053765231576E-09
(PID.TID 0000.0001)  cg2d: iter=   107 ; resid.=  8.76195796029441E-10
(PID.TID 0000.0001)  cg2d: iter=   108 ; resid.=  6.63714711763112E-10
(PID.TID 0000.0001)  cg2d: iter=   109 ; resid.=  5.36208008286920E-10
(PID.TID 0000.0001)  cg2d: iter=   110 ; resid.=  4.06860611531541E-10
(PID.TID 0000.0001)  cg2d: iter=   111 ; resid.=  3.30673098926915E-10
(PID.TID 0000.0001)  cg2d: iter=   112 ; resid.=  2.44597546989794E-10
(PID.TID 0000.0001)  cg2d: iter=   113 ; resid.=  1.90236090439136E-10
(PID.TID 0000.0001)  cg2d: iter=   114 ; resid.=  1.39906223438618E-10
(PID.TID 0000.0001)  cg2d: iter=   115 ; resid.=  1.01808839347657E-10
(PID.TID 0000.0001)  cg2d: iter=   116 ; resid.=  7.82066569115064E-11
(PID.TID 0000.0001)  cg2d: iter=   117 ; resid.=  6.30482453357710E-11
(PID.TID 0000.0001)  cg2d: iter=   118 ; resid.=  4.91295730453051E-11
(PID.TID 0000.0001)  cg2d: iter=   119 ; resid.=  3.77168863036537E-11
(PID.TID 0000.0001)  cg2d: iter=   120 ; resid.=  2.98433906526380E-11
(PID.TID 0000.0001)  cg2d: iter=   121 ; resid.=  2.47108572771087E-11
(PID.TID 0000.0001)  cg2d: iter=   122 ; resid.=  1.91734752878134E-11
(PID.TID 0000.0001)  cg2d: iter=   123 ; resid.=  1.42466120688710E-11
(PID.TID 0000.0001)  cg2d: iter=   124 ; resid.=  1.01078694152722E-11
(PID.TID 0000.0001)  cg2d: iter=   125 ; resid.=  6.87319691162794E-12
(PID.TID 0000.0001)  cg2d: iter=   126 ; resid.=  4.96952632224927E-12
(PID.TID 0000.0001)  cg2d: iter=   127 ; resid.=  3.43919081520275E-12
(PID.TID 0000.0001)  cg2d: iter=   128 ; resid.=  2.58428024694882E-12
(PID.TID 0000.0001)  cg2d: iter=   129 ; resid.=  1.79626869414954E-12
(PID.TID 0000.0001)  cg2d: iter=   130 ; resid.=  1.35853609752042E-12
(PID.TID 0000.0001)  cg2d: iter=   131 ; resid.=  1.15562420564987E-12
(PID.TID 0000.0001)  cg2d: iter=   132 ; resid.=  8.95964518730376E-13
(PID.TID 0000.0001)  cg2d: iter=   133 ; resid.=  6.43046527410908E-13
(PID.TID 0000.0001)  cg2d: iter=   134 ; resid.=  5.13379742978402E-13
(PID.TID 0000.0001)  cg2d: iter=   135 ; resid.=  4.11049601765431E-13
(PID.TID 0000.0001)  cg2d: iter=   136 ; resid.=  2.86379444574364E-13
(PID.TID 0000.0001)  cg2d: iter=   137 ; resid.=  2.20669955957122E-13
(PID.TID 0000.0001)  cg2d: iter=   138 ; resid.=  1.70463919021142E-13
(PID.TID 0000.0001)  cg2d: iter=   139 ; resid.=  1.26008079483611E-13
(PID.TID 0000.0001)  cg2d: iter=   140 ; resid.=  8.50821286281524E-14
DEBUG_STATS_RL:    cg2d_x (SOLVE_FOR_PRESSURE)  min= -4.24376363779940E+01
DEBUG_STATS_RL:    cg2d_x (SOLVE_FOR_PRESSURE)  max=  1.14736899255419E+01
DEBUG_STATS_RL:    cg2d_x (SOLVE_FOR_PRESSURE) mean= -2.03023198200797E+00
DEBUG_STATS_RL:    cg2d_x (SOLVE_FOR_PRESSURE) S.D.=  8.71364974960806E+00
(PID.TID 0000.0001)      cg2d_init_res =   9.75219791601568E-01
(PID.TID 0000.0001)      cg2d_iters(min,last) =      -1     140
(PID.TID 0000.0001)      cg2d_last_res =   8.50821286281524E-14
(PID.TID 0000.0001) // =======================================================
(PID.TID 0000.0001) // Begin MONITOR dynamic field statistics
(PID.TID 0000.0001) // =======================================================
(PID.TID 0000.0001) %MON time_tsnumber                =                    13
(PID.TID 0000.0001) %MON time_secondsf                =   1.1232000000000E+06
(PID.TID 0000.0001) %MON dynstat_eta_max              =   1.1695912258454E+00
(PID.TID 0000.0001) %MON dynstat_eta_min              =  -4.3259568173286E+00
(PID.TID 0000.0001) %MON dynstat_eta_mean             =  -9.0616655175359E-04
(PID.TID 0000.0001) %MON dynstat_eta_sd               =   6.9710024014144E-01
(PID.TID 0000.0001) %MON dynstat_eta_del2             =   1.8629688439489E-03
(PID.TID 0000.0001) %MON dynstat_uvel_max             =   1.7940317806584E-01
(PID.TID 0000.0001) %MON dynstat_uvel_min             =  -8.8061682527955E-02
(PID.TID 0000.0001) %MON dynstat_uvel_mean            =  -9.8896092584199E-05
(PID.TID 0000.0001) %MON dynstat_uvel_sd              =   1.7757293478575E-02
(PID.TID 0000.0001) %MON dynstat_uvel_del2            =   1.0687873680435E-04
(PID.TID 0000.0001) %MON dynstat_vvel_max             =   1.1590631699063E-01
(PID.TID 0000.0001) %MON dynstat_vvel_min             =  -1.1986307181102E-01
(PID.TID 0000.0001) %MON dynstat_vvel_mean            =  -4.2710783024547E-04
(PID.TID 0000.0001) %MON dynstat_vvel_sd              =   1.0790994068449E-02
(PID.TID 0000.0001) %MON dynstat_vvel_del2            =   9.8777507025747E-05
(PID.TID 0000.0001) %MON dynstat_wvel_max             =   2.8007505701604E-04
(PID.TID 0000.0001) %MON dynstat_wvel_min             =  -2.5179301187607E-04
(PID.TID 0000.0001) %MON dynstat_wvel_mean            =   4.7181250370895E-23
(PID.TID 0000.0001) %MON dynstat_wvel_sd              =   2.3282994419669E-05
(PID.TID 0000.0001) %MON dynstat_wvel_del2            =   2.5857202871797E-07
(PID.TID 0000.0001) %MON dynstat_theta_max            =   2.9866212519847E+01
(PID.TID 0000.0001) %MON dynstat_theta_min            =  -1.9309102728353E+00
(PID.TID 0000.0001) %MON dynstat_theta_mean           =   3.6393964208874E+00
(PID.TID 0000.0001) %MON dynstat_theta_sd             =   4.4148044613566E+00
(PID.TID 0000.0001) %MON dynstat_theta_del2           =   4.9721734589252E-03
(PID.TID 0000.0001) %MON dynstat_salt_max             =   3.7457082700070E+01
(PID.TID 0000.0001) %MON dynstat_salt_min             =   2.9765984748080E+01
(PID.TID 0000.0001) %MON dynstat_salt_mean            =   3.4737968365344E+01
(PID.TID 0000.0001) %MON dynstat_salt_sd              =   2.9617647169935E-01
(PID.TID 0000.0001) %MON dynstat_salt_del2            =   1.0114176645894E-03
(PID.TID 0000.0001) %MON dynstat_sst_max              =   2.9866212519847E+01
(PID.TID 0000.0001) %MON dynstat_sst_min              =  -1.9309102728353E+00
(PID.TID 0000.0001) %MON dynstat_sst_mean             =   1.8654061711482E+01
(PID.TID 0000.0001) %MON dynstat_sst_sd               =   9.0665803039910E+00
(PID.TID 0000.0001) %MON dynstat_sst_del2             =   2.6212268180737E-02
(PID.TID 0000.0001) %MON dynstat_sss_max              =   3.7449871075197E+01
(PID.TID 0000.0001) %MON dynstat_sss_min              =   2.9765984748080E+01
(PID.TID 0000.0001) %MON dynstat_sss_mean             =   3.4874813434322E+01
(PID.TID 0000.0001) %MON dynstat_sss_sd               =   9.6884956788187E-01
(PID.TID 0000.0001) %MON dynstat_sss_del2             =   7.9894948843347E-03
(PID.TID 0000.0001) %MON forcing_qnet_max             =   4.3846905517578E+02
(PID.TID 0000.0001) %MON forcing_qnet_min             =  -1.8174754943848E+02
(PID.TID 0000.0001) %MON forcing_qnet_mean            =  -1.6550061868513E+01
(PID.TID 0000.0001) %MON forcing_qnet_sd              =   1.1042168913970E+02
(PID.TID 0000.0001) %MON forcing_qnet_del2            =   1.0147687802669E+00
(PID.TID 0000.0001) %MON forcing_qsw_max              =   0.0000000000000E+00
(PID.TID 0000.0001) %MON forcing_qsw_min              =   0.0000000000000E+00
(PID.TID 0000.0001) %MON forcing_qsw_mean             =   0.0000000000000E+00
(PID.TID 0000.0001) %MON forcing_qsw_sd               =   0.0000000000000E+00
(PID.TID 0000.0001) %MON forcing_qsw_del2             =   0.0000000000000E+00
(PID.TID 0000.0001) %MON forcing_empmr_max            =   8.1897606207804E-05
(PID.TID 0000.0001) %MON forcing_empmr_min            =  -7.4245208736556E-05
(PID.TID 0000.0001) %MON forcing_empmr_mean           =   8.9362778887410E-07
(PID.TID 0000.0001) %MON forcing_empmr_sd             =   2.8524757575518E-05
(PID.TID 0000.0001) %MON forcing_empmr_del2           =   3.6489898148972E-07
(PID.TID 0000.0001) %MON forcing_fu_max               =   2.7026165127754E-01
(PID.TID 0000.0001) %MON forcing_fu_min               =  -1.6844031065702E-01
(PID.TID 0000.0001) %MON forcing_fu_mean              =   1.6024813615678E-02
(PID.TID 0000.0001) %MON forcing_fu_sd                =   9.0687065718989E-02
(PID.TID 0000.0001) %MON forcing_fu_del2              =   7.0218537639472E-04
(PID.TID 0000.0001) %MON forcing_fv_max               =   2.2748160511255E-01
(PID.TID 0000.0001) %MON forcing_fv_min               =  -1.7989087253809E-01
(PID.TID 0000.0001) %MON forcing_fv_mean              =  -5.4801853200875E-03
(PID.TID 0000.0001) %MON forcing_fv_sd                =   4.7378348929193E-02
(PID.TID 0000.0001) %MON forcing_fv_del2              =   4.8014067006239E-04
(PID.TID 0000.0001) %MON trAdv_CFL_u_max              =   6.2895754985780E-02
(PID.TID 0000.0001) %MON trAdv_CFL_v_max              =   2.2576405293148E-02
(PID.TID 0000.0001) %MON trAdv_CFL_w_max              =   8.3919310932765E-02
(PID.TID 0000.0001) %MON advcfl_uvel_max              =   5.0175973830288E-02
(PID.TID 0000.0001) %MON advcfl_vvel_max              =   2.3287472480327E-02
(PID.TID 0000.0001) %MON advcfl_wvel_max              =   6.2902659511088E-02
(PID.TID 0000.0001) %MON advcfl_W_hf_max              =   7.1179325236231E-02
(PID.TID 0000.0001) %MON pe_b_mean                    =   6.2183104250097E-04
(PID.TID 0000.0001) %MON ke_max                       =   1.5370161688772E-02
(PID.TID 0000.0001) %MON ke_mean                      =   1.9561916996303E-04
(PID.TID 0000.0001) %MON ke_vol                       =   1.3226782436723E+18
(PID.TID 0000.0001) %MON vort_r_min                   =  -5.9906477571610E-07
(PID.TID 0000.0001) %MON vort_r_max                   =   4.4508815490220E-07
(PID.TID 0000.0001) %MON vort_a_mean                  =  -2.5274806240161E-05
(PID.TID 0000.0001) %MON vort_a_sd                    =   7.3604615296502E-05
(PID.TID 0000.0001) %MON vort_p_mean                  =  -3.1845654341314E-05
(PID.TID 0000.0001) %MON vort_p_sd                    =   1.3162108579045E-04
(PID.TID 0000.0001) %MON surfExpan_theta_mean         =   4.2342627713223E-07
(PID.TID 0000.0001) %MON surfExpan_salt_mean          =   2.0338564323438E-07
(PID.TID 0000.0001) // =======================================================
(PID.TID 0000.0001) // End MONITOR dynamic field statistics
(PID.TID 0000.0001) // =======================================================
 EXTERNAL_FIELDS_LOAD,        13 : iP,iLd,i0,i1=   12    1   12    1 ; Wght=  0.0666666667  0.9333333333
 EXTERNAL_FIELDS_LOAD: (fu0,1),fu,fv= -4.5368E-02 -3.5633E-02 -3.6282E-02 -5.8123E-02
 EXTERNAL_FIELDS_LOAD: SST,SSS,Q,E-P=  8.3772E-01  3.4668E+01  2.6568E+02  1.1531E-05
DEBUG_STATS_RL:          Uvel (THERMODYNAMICS)  min= -8.80616825279549E-02
DEBUG_STATS_RL:          Uvel (THERMODYNAMICS)  max=  1.79403178065844E-01
DEBUG_STATS_RL:          Uvel (THERMODYNAMICS) mean=  3.66231320189808E-03
DEBUG_STATS_RL:          Uvel (THERMODYNAMICS) S.D.=  2.49358762250419E-02
DEBUG_STATS_RL:          Vvel (THERMODYNAMICS)  min= -1.19863071811016E-01
DEBUG_STATS_RL:          Vvel (THERMODYNAMICS)  max=  1.15906316990628E-01
DEBUG_STATS_RL:          Vvel (THERMODYNAMICS) mean= -5.21992424760737E-04
DEBUG_STATS_RL:          Vvel (THERMODYNAMICS) S.D.=  1.53948291760488E-02
DEBUG_STATS_RL:          Wvel (THERMODYNAMICS)  min= -2.51793011876073E-04
DEBUG_STATS_RL:          Wvel (THERMODYNAMICS)  max=  2.80075057016039E-04
DEBUG_STATS_RL:          Wvel (THERMODYNAMICS) mean= -2.21057502457067E-07
DEBUG_STATS_RL:          Wvel (THERMODYNAMICS) S.D.=  2.08156963959857E-05
DEBUG_STATS_RL:         Theta (THERMODYNAMICS)  min= -2.00621132128844E+00
DEBUG_STATS_RL:         Theta (THERMODYNAMICS)  max=  2.98580860475065E+01
DEBUG_STATS_RL:         Theta (THERMODYNAMICS) mean=  3.22663282265200E+00
DEBUG_STATS_RL:         Theta (THERMODYNAMICS) S.D.=  5.85367342723008E+00
DEBUG_STATS_RL:          Salt (THERMODYNAMICS)  min=  2.00000000000000E-02
DEBUG_STATS_RL:          Salt (THERMODYNAMICS)  max=  3.74573739157786E+01
DEBUG_STATS_RL:          Salt (THERMODYNAMICS) mean=  1.88651700725596E+01
DEBUG_STATS_RL:          Salt (THERMODYNAMICS) S.D.=  1.73006498927616E+01
DEBUG_STATS_RL:         GtNm1 (THERMODYNAMICS)  min= -6.66229820638309E-06
DEBUG_STATS_RL:         GtNm1 (THERMODYNAMICS)  max=  5.67691047077195E-06
DEBUG_STATS_RL:         GtNm1 (THERMODYNAMICS) mean=  1.65415613923883E-08
DEBUG_STATS_RL:         GtNm1 (THERMODYNAMICS) S.D.=  2.65192383831643E-07
DEBUG_STATS_RL:         GsNm1 (THERMODYNAMICS)  min= -1.62519950551815E-06
DEBUG_STATS_RL:         GsNm1 (THERMODYNAMICS)  max=  1.62157611671086E-06
DEBUG_STATS_RL:         GsNm1 (THERMODYNAMICS) mean=  7.70551278600404E-11
DEBUG_STATS_RL:         GsNm1 (THERMODYNAMICS) S.D.=  2.65541060213525E-08
DEBUG_STATS_RL:                EtaN (DYNAMICS)  min= -4.32595681732861E+00
DEBUG_STATS_RL:                EtaN (DYNAMICS)  max=  1.16959122584541E+00
DEBUG_STATS_RL:                EtaN (DYNAMICS) mean= -2.06955349847908E-01
DEBUG_STATS_RL:                EtaN (DYNAMICS) S.D.=  8.88241564689914E-01
DEBUG_STATS_RL:                Uvel (DYNAMICS)  min= -8.80616825279549E-02
DEBUG_STATS_RL:                Uvel (DYNAMICS)  max=  1.79403178065844E-01
DEBUG_STATS_RL:                Uvel (DYNAMICS) mean=  3.66231320189808E-03
DEBUG_STATS_RL:                Uvel (DYNAMICS) S.D.=  2.49358762250419E-02
DEBUG_STATS_RL:                Vvel (DYNAMICS)  min= -1.19863071811016E-01
DEBUG_STATS_RL:                Vvel (DYNAMICS)  max=  1.15906316990628E-01
DEBUG_STATS_RL:                Vvel (DYNAMICS) mean= -5.21992424760737E-04
DEBUG_STATS_RL:                Vvel (DYNAMICS) S.D.=  1.53948291760488E-02
DEBUG_STATS_RL:                Wvel (DYNAMICS)  min= -2.51793011876073E-04
DEBUG_STATS_RL:                Wvel (DYNAMICS)  max=  2.80075057016039E-04
DEBUG_STATS_RL:                Wvel (DYNAMICS) mean= -2.21057502457067E-07
DEBUG_STATS_RL:                Wvel (DYNAMICS) S.D.=  2.08156963959857E-05
DEBUG_STATS_RL:               Theta (DYNAMICS)  min= -2.00621132128844E+00
DEBUG_STATS_RL:               Theta (DYNAMICS)  max=  2.98580860475065E+01
DEBUG_STATS_RL:               Theta (DYNAMICS) mean=  3.22663282265200E+00
DEBUG_STATS_RL:               Theta (DYNAMICS) S.D.=  5.85367342723008E+00
DEBUG_STATS_RL:                Salt (DYNAMICS)  min=  2.00000000000000E-02
DEBUG_STATS_RL:                Salt (DYNAMICS)  max=  3.74573739157786E+01
DEBUG_STATS_RL:                Salt (DYNAMICS) mean=  1.88651700725596E+01
DEBUG_STATS_RL:                Salt (DYNAMICS) S.D.=  1.73006498927616E+01
DEBUG_STATS_RL:                  Gu (DYNAMICS)  min= -9.55908991878820E-02
DEBUG_STATS_RL:                  Gu (DYNAMICS)  max=  1.77374661861471E-01
DEBUG_STATS_RL:                  Gu (DYNAMICS) mean=  1.92194962072460E-03
DEBUG_STATS_RL:                  Gu (DYNAMICS) S.D.=  2.54681472056391E-02
DEBUG_STATS_RL:                  Gv (DYNAMICS)  min= -1.17712635827413E-01
DEBUG_STATS_RL:                  Gv (DYNAMICS)  max=  1.11902055893337E-01
DEBUG_STATS_RL:                  Gv (DYNAMICS) mean=  8.31093229155644E-04
DEBUG_STATS_RL:                  Gv (DYNAMICS) S.D.=  1.57934451609636E-02
DEBUG_STATS_RL:               GuNm1 (DYNAMICS)  min= -6.26596269261723E-06
DEBUG_STATS_RL:               GuNm1 (DYNAMICS)  max=  7.76674126038530E-06
DEBUG_STATS_RL:               GuNm1 (DYNAMICS) mean= -2.87495977704261E-08
DEBUG_STATS_RL:               GuNm1 (DYNAMICS) S.D.=  1.10997176744125E-06
DEBUG_STATS_RL:               GvNm1 (DYNAMICS)  min= -8.49736638436862E-06
DEBUG_STATS_RL:               GvNm1 (DYNAMICS)  max=  1.67194770802952E-05
DEBUG_STATS_RL:               GvNm1 (DYNAMICS) mean=  7.70496136048805E-07
DEBUG_STATS_RL:               GvNm1 (DYNAMICS) S.D.=  2.58532970030265E-06
DEBUG_STATS_RL:               GtNm1 (DYNAMICS)  min= -6.66229820638309E-06
DEBUG_STATS_RL:               GtNm1 (DYNAMICS)  max=  5.67691047077195E-06
DEBUG_STATS_RL:               GtNm1 (DYNAMICS) mean=  1.65415613923883E-08
DEBUG_STATS_RL:               GtNm1 (DYNAMICS) S.D.=  2.65192383831643E-07
DEBUG_STATS_RL:               GsNm1 (DYNAMICS)  min= -1.62519950551815E-06
DEBUG_STATS_RL:               GsNm1 (DYNAMICS)  max=  1.62157611671086E-06
DEBUG_STATS_RL:               GsNm1 (DYNAMICS) mean=  7.70551278600404E-11
DEBUG_STATS_RL:               GsNm1 (DYNAMICS) S.D.=  2.65541060213525E-08
DEBUG_STATS_RL:    cg2d_b (SOLVE_FOR_PRESSURE)  min= -1.65683246012412E+04
DEBUG_STATS_RL:    cg2d_b (SOLVE_FOR_PRESSURE)  max=  1.40947238171135E+04
DEBUG_STATS_RL:    cg2d_b (SOLVE_FOR_PRESSURE) mean=  9.40773607949759E-01
DEBUG_STATS_RL:    cg2d_b (SOLVE_FOR_PRESSURE) S.D.=  3.34124891556043E+03
 cg2d: Sum(rhs),rhsMax =   1.31449072541706E-01  1.08825192026781E+00
(PID.TID 0000.0001)  cg2d: iter=     1 ; resid.=  6.16274309660412E-01
(PID.TID 0000.0001)  cg2d: iter=     2 ; resid.=  5.35620188911928E-01
(PID.TID 0000.0001)  cg2d: iter=     3 ; resid.=  4.76564057251075E-01
(PID.TID 0000.0001)  cg2d: iter=     4 ; resid.=  4.88569181700600E-01
(PID.TID 0000.0001)  cg2d: iter=     5 ; resid.=  4.15738640645880E-01
(PID.TID 0000.0001)  cg2d: iter=     6 ; resid.=  3.38851645426367E-01
(PID.TID 0000.0001)  cg2d: iter=     7 ; resid.=  3.20051022918147E-01
(PID.TID 0000.0001)  cg2d: iter=     8 ; resid.=  2.44920005588090E-01
(PID.TID 0000.0001)  cg2d: iter=     9 ; resid.=  1.80514970103008E-01
(PID.TID 0000.0001)  cg2d: iter=    10 ; resid.=  1.64843832439553E-01
(PID.TID 0000.0001)  cg2d: iter=    11 ; resid.=  1.43602576298351E-01
(PID.TID 0000.0001)  cg2d: iter=    12 ; resid.=  1.06008356409217E-01
(PID.TID 0000.0001)  cg2d: iter=    13 ; resid.=  8.73531514424582E-02
(PID.TID 0000.0001)  cg2d: iter=    14 ; resid.=  7.48912470027253E-02
(PID.TID 0000.0001)  cg2d: iter=    15 ; resid.=  5.52394575857527E-02
(PID.TID 0000.0001)  cg2d: iter=    16 ; resid.=  4.62987729809954E-02
(PID.TID 0000.0001)  cg2d: iter=    17 ; resid.=  4.26135715192415E-02
(PID.TID 0000.0001)  cg2d: iter=    18 ; resid.=  3.44754834451342E-02
(PID.TID 0000.0001)  cg2d: iter=    19 ; resid.=  2.51408293313146E-02
(PID.TID 0000.0001)  cg2d: iter=    20 ; resid.=  2.07803582908332E-02
(PID.TID 0000.0001)  cg2d: iter=    21 ; resid.=  1.82084483868955E-02
(PID.TID 0000.0001)  cg2d: iter=    22 ; resid.=  1.66079919893631E-02
(PID.TID 0000.0001)  cg2d: iter=    23 ; resid.=  1.41197744478606E-02
(PID.TID 0000.0001)  cg2d: iter=    24 ; resid.=  1.28576165999152E-02
(PID.TID 0000.0001)  cg2d: iter=    25 ; resid.=  1.05666199661664E-02
(PID.TID 0000.0001)  cg2d: iter=    26 ; resid.=  9.44742070567561E-03
(PID.TID 0000.0001)  cg2d: iter=    27 ; resid.=  8.46470292266545E-03
(PID.TID 0000.0001)  cg2d: iter=    28 ; resid.=  7.27690287764031E-03
(PID.TID 0000.0001)  cg2d: iter=    29 ; resid.=  5.66293262952062E-03
(PID.TID 0000.0001)  cg2d: iter=    30 ; resid.=  5.02238410465192E-03
(PID.TID 0000.0001)  cg2d: iter=    31 ; resid.=  3.94965315926921E-03
(PID.TID 0000.0001)  cg2d: iter=    32 ; resid.=  2.90397382082786E-03
(PID.TID 0000.0001)  cg2d: iter=    33 ; resid.=  2.55773736861786E-03
(PID.TID 0000.0001)  cg2d: iter=    34 ; resid.=  2.18697659325399E-03
(PID.TID 0000.0001)  cg2d: iter=    35 ; resid.=  1.73213130904892E-03
(PID.TID 0000.0001)  cg2d: iter=    36 ; resid.=  1.33185973251625E-03
(PID.TID 0000.0001)  cg2d: iter=    37 ; resid.=  1.06573139608449E-03
(PID.TID 0000.0001)  cg2d: iter=    38 ; resid.=  8.72059384423679E-04
(PID.TID 0000.0001)  cg2d: iter=    39 ; resid.=  7.03016175171258E-04
(PID.TID 0000.0001)  cg2d: iter=    40 ; resid.=  6.12042760382544E-04
(PID.TID 0000.0001)  cg2d: iter=    41 ; resid.=  5.21714857536017E-04
(PID.TID 0000.0001)  cg2d: iter=    42 ; resid.=  5.20969793949338E-04
(PID.TID 0000.0001)  cg2d: iter=    43 ; resid.=  4.48402523489403E-04
(PID.TID 0000.0001)  cg2d: iter=    44 ; resid.=  3.81967221435163E-04
(PID.TID 0000.0001)  cg2d: iter=    45 ; resid.=  3.25315453271353E-04
(PID.TID 0000.0001)  cg2d: iter=    46 ; resid.=  2.71963656117275E-04
(PID.TID 0000.0001)  cg2d: iter=    47 ; resid.=  2.18029758488872E-04
(PID.TID 0000.0001)  cg2d: iter=    48 ; resid.=  1.73876677078786E-04
(PID.TID 0000.0001)  cg2d: iter=    49 ; resid.=  1.36582285606237E-04
(PID.TID 0000.0001)  cg2d: iter=    50 ; resid.=  1.13085946519914E-04
(PID.TID 0000.0001)  cg2d: iter=    51 ; resid.=  1.01632416203445E-04
(PID.TID 0000.0001)  cg2d: iter=    52 ; resid.=  8.32704258029473E-05
(PID.TID 0000.0001)  cg2d: iter=    53 ; resid.=  6.44054421680470E-05
(PID.TID 0000.0001)  cg2d: iter=    54 ; resid.=  4.95280157520848E-05
(PID.TID 0000.0001)  cg2d: iter=    55 ; resid.=  4.00493956018845E-05
(PID.TID 0000.0001)  cg2d: iter=    56 ; resid.=  3.54130807995869E-05
(PID.TID 0000.0001)  cg2d: iter=    57 ; resid.=  2.90508798325070E-05
(PID.TID 0000.0001)  cg2d: iter=    58 ; resid.=  2.13868505623793E-05
(PID.TID 0000.0001)  cg2d: iter=    59 ; resid.=  1.62417783308969E-05
(PID.TID 0000.0001)  cg2d: iter=    60 ; resid.=  1.28283862720194E-05
(PID.TID 0000.0001)  cg2d: iter=    61 ; resid.=  1.07827494034474E-05
(PID.TID 0000.0001)  cg2d: iter=    62 ; resid.=  8.08683713669850E-06
(PID.TID 0000.0001)  cg2d: iter=    63 ; resid.=  6.70968693058998E-06
(PID.TID 0000.0001)  cg2d: iter=    64 ; resid.=  7.05759645521986E-06
(PID.TID 0000.0001)  cg2d: iter=    65 ; resid.=  6.05052668875540E-06
(PID.TID 0000.0001)  cg2d: iter=    66 ; resid.=  5.24849713075423E-06
(PID.TID 0000.0001)  cg2d: iter=    67 ; resid.=  4.48963133265026E-06
(PID.TID 0000.0001)  cg2d: iter=    68 ; resid.=  3.65295311785788E-06
(PID.TID 0000.0001)  cg2d: iter=    69 ; resid.=  2.71274137390092E-06
(PID.TID 0000.0001)  cg2d: iter=    70 ; resid.=  2.27171749221378E-06
(PID.TID 0000.0001)  cg2d: iter=    71 ; resid.=  1.80159819472441E-06
(PID.TID 0000.0001)  cg2d: iter=    72 ; resid.=  1.41601763804003E-06
(PID.TID 0000.0001)  cg2d: iter=    73 ; resid.=  1.20847224692071E-06
(PID.TID 0000.0001)  cg2d: iter=    74 ; resid.=  9.47182566082233E-07
(PID.TID 0000.0001)  cg2d: iter=    75 ; resid.=  7.01328903299554E-07
(PID.TID 0000.0001)  cg2d: iter=    76 ; resid.=  6.07031409796495E-07
(PID.TID 0000.0001)  cg2d: iter=    77 ; resid.=  5.00174127580542E-07
(PID.TID 0000.0001)  cg2d: iter=    78 ; resid.=  4.20474919671379E-07
(PID.TID 0000.0001)  cg2d: iter=    79 ; resid.=  3.89790598399998E-07
(PID.TID 0000.0001)  cg2d: iter=    80 ; resid.=  3.25476297896095E-07
(PID.TID 0000.0001)  cg2d: iter=    81 ; resid.=  2.62467597853786E-07
(PID.TID 0000.0001)  cg2d: iter=    82 ; resid.=  2.10947001974263E-07
(PID.TID 0000.0001)  cg2d: iter=    83 ; resid.=  1.85130319486695E-07
(PID.TID 0000.0001)  cg2d: iter=    84 ; resid.=  1.38883565009296E-07
(PID.TID 0000.0001)  cg2d: iter=    85 ; resid.=  1.17005072174850E-07
(PID.TID 0000.0001)  cg2d: iter=    86 ; resid.=  8.92509230351407E-08
(PID.TID 0000.0001)  cg2d: iter=    87 ; resid.=  6.36585800057370E-08
(PID.TID 0000.0001)  cg2d: iter=    88 ; resid.=  5.28026352808902E-08
(PID.TID 0000.0001)  cg2d: iter=    89 ; resid.=  4.43906672000819E-08
(PID.TID 0000.0001)  cg2d: iter=    90 ; resid.=  3.90334323759543E-08
(PID.TID 0000.0001)  cg2d: iter=    91 ; resid.=  3.48126393388944E-08
(PID.TID 0000.0001)  cg2d: iter=    92 ; resid.=  2.68184471450905E-08
(PID.TID 0000.0001)  cg2d: iter=    93 ; resid.=  1.98941499522776E-08
(PID.TID 0000.0001)  cg2d: iter=    94 ; resid.=  1.51749638003951E-08
(PID.TID 0000.0001)  cg2d: iter=    95 ; resid.=  1.13760672099689E-08
(PID.TID 0000.0001)  cg2d: iter=    96 ; resid.=  8.11011188603516E-09
(PID.TID 0000.0001)  cg2d: iter=    97 ; resid.=  5.75043046841571E-09
(PID.TID 0000.0001)  cg2d: iter=    98 ; resid.=  4.65091683412981E-09
(PID.TID 0000.0001)  cg2d: iter=    99 ; resid.=  3.99965709348864E-09
(PID.TID 0000.0001)  cg2d: iter=   100 ; resid.=  3.28841166711617E-09
(PID.TID 0000.0001)  cg2d: iter=   101 ; resid.=  2.29356574792060E-09
(PID.TID 0000.0001)  cg2d: iter=   102 ; resid.=  1.77003607041567E-09
(PID.TID 0000.0001)  cg2d: iter=   103 ; resid.=  1.42596196719037E-09
(PID.TID 0000.0001)  cg2d: iter=   104 ; resid.=  1.25499541417748E-09
(PID.TID 0000.0001)  cg2d: iter=   105 ; resid.=  1.04720924607120E-09
(PID.TID 0000.0001)  cg2d: iter=   106 ; resid.=  8.73714831850584E-10
(PID.TID 0000.0001)  cg2d: iter=   107 ; resid.=  7.14417382657903E-10
(PID.TID 0000.0001)  cg2d: iter=   108 ; resid.=  5.74579834048982E-10
(PID.TID 0000.0001)  cg2d: iter=   109 ; resid.=  4.74003198110160E-10
(PID.TID 0000.0001)  cg2d: iter=   110 ; resid.=  3.49685929971014E-10
(PID.TID 0000.0001)  cg2d: iter=   111 ; resid.=  2.57415450993642E-10
(PID.TID 0000.0001)  cg2d: iter=   112 ; resid.=  1.78117908925167E-10
(PID.TID 0000.0001)  cg2d: iter=   113 ; resid.=  1.32766607139495E-10
(PID.TID 0000.0001)  cg2d: iter=   114 ; resid.=  9.34274538039343E-11
(PID.TID 0000.0001)  cg2d: iter=   115 ; resid.=  6.77867606361396E-11
(PID.TID 0000.0001)  cg2d: iter=   116 ; resid.=  5.03442140689907E-11
(PID.TID 0000.0001)  cg2d: iter=   117 ; resid.=  4.02430986540408E-11
(PID.TID 0000.0001)  cg2d: iter=   118 ; resid.=  3.19480090822857E-11
(PID.TID 0000.0001)  cg2d: iter=   119 ; resid.=  2.46199410384423E-11
(PID.TID 0000.0001)  cg2d: iter=   120 ; resid.=  1.86868479155655E-11
(PID.TID 0000.0001)  cg2d: iter=   121 ; resid.=  1.49221378285627E-11
(PID.TID 0000.0001)  cg2d: iter=   122 ; resid.=  1.18268288663652E-11
(PID.TID 0000.0001)  cg2d: iter=   123 ; resid.=  9.46725430844758E-12
(PID.TID 0000.0001)  cg2d: iter=   124 ; resid.=  7.23067558103722E-12
(PID.TID 0000.0001)  cg2d: iter=   125 ; resid.=  5.33513638591164E-12
(PID.TID 0000.0001)  cg2d: iter=   126 ; resid.=  4.01573097782389E-12
(PID.TID 0000.0001)  cg2d: iter=   127 ; resid.=  2.70681788788967E-12
(PID.TID 0000.0001)  cg2d: iter=   128 ; resid.=  2.00748064250405E-12
(PID.TID 0000.0001)  cg2d: iter=   129 ; resid.=  1.28189416258917E-12
(PID.TID 0000.0001)  cg2d: iter=   130 ; resid.=  8.71349578217060E-13
(PID.TID 0000.0001)  cg2d: iter=   131 ; resid.=  6.75606696993761E-13
(PID.TID 0000.0001)  cg2d: iter=   132 ; resid.=  5.14629669628428E-13
(PID.TID 0000.0001)  cg2d: iter=   133 ; resid.=  3.65569726899953E-13
(PID.TID 0000.0001)  cg2d: iter=   134 ; resid.=  2.52432496024044E-13
(PID.TID 0000.0001)  cg2d: iter=   135 ; resid.=  1.79301278235485E-13
(PID.TID 0000.0001)  cg2d: iter=   136 ; resid.=  1.16222630087744E-13
(PID.TID 0000.0001)  cg2d: iter=   137 ; resid.=  8.51499040182367E-14
DEBUG_STATS_RL:    cg2d_x (SOLVE_FOR_PRESSURE)  min= -4.47361595397604E+01
DEBUG_STATS_RL:    cg2d_x (SOLVE_FOR_PRESSURE)  max=  1.09316781408026E+01
DEBUG_STATS_RL:    cg2d_x (SOLVE_FOR_PRESSURE) mean= -1.95753181358722E+00
DEBUG_STATS_RL:    cg2d_x (SOLVE_FOR_PRESSURE) S.D.=  8.40585416360613E+00
(PID.TID 0000.0001)      cg2d_init_res =   8.80080240646762E-01
(PID.TID 0000.0001)      cg2d_iters(min,last) =      -1     137
(PID.TID 0000.0001)      cg2d_last_res =   8.51499040182367E-14
(PID.TID 0000.0001) // =======================================================
(PID.TID 0000.0001) // Begin MONITOR dynamic field statistics
(PID.TID 0000.0001) // =======================================================
(PID.TID 0000.0001) %MON time_tsnumber                =                    14
(PID.TID 0000.0001) %MON time_secondsf                =   1.2096000000000E+06
(PID.TID 0000.0001) %MON dynstat_eta_max              =   1.1143402793886E+00
(PID.TID 0000.0001) %MON dynstat_eta_min              =  -4.5602609112905E+00
(PID.TID 0000.0001) %MON dynstat_eta_mean             =  -9.8158060781929E-04
(PID.TID 0000.0001) %MON dynstat_eta_sd               =   6.7411241753798E-01
(PID.TID 0000.0001) %MON dynstat_eta_del2             =   1.8386184837686E-03
(PID.TID 0000.0001) %MON dynstat_uvel_max             =   1.7879103716080E-01
(PID.TID 0000.0001) %MON dynstat_uvel_min             =  -9.9576018088993E-02
(PID.TID 0000.0001) %MON dynstat_uvel_mean            =  -1.0281300500232E-03
(PID.TID 0000.0001) %MON dynstat_uvel_sd              =   1.8405110381444E-02
(PID.TID 0000.0001) %MON dynstat_uvel_del2            =   1.0859465113875E-04
(PID.TID 0000.0001) %MON dynstat_vvel_max             =   1.2017727327976E-01
(PID.TID 0000.0001) %MON dynstat_vvel_min             =  -1.2336997010843E-01
(PID.TID 0000.0001) %MON dynstat_vvel_mean            =  -4.2321701414113E-04
(PID.TID 0000.0001) %MON dynstat_vvel_sd              =   1.0586797954743E-02
(PID.TID 0000.0001) %MON dynstat_vvel_del2            =   9.6824519968986E-05
(PID.TID 0000.0001) %MON dynstat_wvel_max             =   2.8228959709980E-04
(PID.TID 0000.0001) %MON dynstat_wvel_min             =  -2.6579244231139E-04
(PID.TID 0000.0001) %MON dynstat_wvel_mean            =   2.5895785935217E-23
(PID.TID 0000.0001) %MON dynstat_wvel_sd              =   2.3266990519732E-05
(PID.TID 0000.0001) %MON dynstat_wvel_del2            =   2.5839795821103E-07
(PID.TID 0000.0001) %MON dynstat_theta_max            =   2.9858086047506E+01
(PID.TID 0000.0001) %MON dynstat_theta_min            =  -2.0062113212884E+00
(PID.TID 0000.0001) %MON dynstat_theta_mean           =   3.6395096455966E+00
(PID.TID 0000.0001) %MON dynstat_theta_sd             =   4.4149617248870E+00
(PID.TID 0000.0001) %MON dynstat_theta_del2           =   4.9447380512777E-03
(PID.TID 0000.0001) %MON dynstat_salt_max             =   3.7457373915779E+01
(PID.TID 0000.0001) %MON dynstat_salt_min             =   2.9756714270582E+01
(PID.TID 0000.0001) %MON dynstat_salt_mean            =   3.4737965796732E+01
(PID.TID 0000.0001) %MON dynstat_salt_sd              =   2.9619763965856E-01
(PID.TID 0000.0001) %MON dynstat_salt_del2            =   1.0120064530748E-03
(PID.TID 0000.0001) %MON dynstat_sst_max              =   2.9858086047506E+01
(PID.TID 0000.0001) %MON dynstat_sst_min              =  -2.0062113212884E+00
(PID.TID 0000.0001) %MON dynstat_sst_mean             =   1.8663945085889E+01
(PID.TID 0000.0001) %MON dynstat_sst_sd               =   9.0630120833551E+00
(PID.TID 0000.0001) %MON dynstat_sst_del2             =   2.6234705003763E-02
(PID.TID 0000.0001) %MON dynstat_sss_max              =   3.7449601542020E+01
(PID.TID 0000.0001) %MON dynstat_sss_min              =   2.9756714270582E+01
(PID.TID 0000.0001) %MON dynstat_sss_mean             =   3.4874874440823E+01
(PID.TID 0000.0001) %MON dynstat_sss_sd               =   9.6946465177711E-01
(PID.TID 0000.0001) %MON dynstat_sss_del2             =   7.9926282333513E-03
(PID.TID 0000.0001) %MON forcing_qnet_max             =   4.3951724243164E+02
(PID.TID 0000.0001) %MON forcing_qnet_min             =  -1.8160680541992E+02
(PID.TID 0000.0001) %MON forcing_qnet_mean            =  -1.6537549912690E+01
(PID.TID 0000.0001) %MON forcing_qnet_sd              =   1.1023602940575E+02
(PID.TID 0000.0001) %MON forcing_qnet_del2            =   1.0178724043875E+00
(PID.TID 0000.0001) %MON forcing_qsw_max              =   0.0000000000000E+00
(PID.TID 0000.0001) %MON forcing_qsw_min              =   0.0000000000000E+00
(PID.TID 0000.0001) %MON forcing_qsw_mean             =   0.0000000000000E+00
(PID.TID 0000.0001) %MON forcing_qsw_sd               =   0.0000000000000E+00
(PID.TID 0000.0001) %MON forcing_qsw_del2             =   0.0000000000000E+00
(PID.TID 0000.0001) %MON forcing_empmr_max            =   8.1966015841317E-05
(PID.TID 0000.0001) %MON forcing_empmr_min            =  -7.4627556045925E-05
(PID.TID 0000.0001) %MON forcing_empmr_mean           =   9.0339754661961E-07
(PID.TID 0000.0001) %MON forcing_empmr_sd             =   2.8612540665613E-05
(PID.TID 0000.0001) %MON forcing_empmr_del2           =   3.6568031492728E-07
(PID.TID 0000.0001) %MON forcing_fu_max               =   2.7213588953018E-01
(PID.TID 0000.0001) %MON forcing_fu_min               =  -1.6925373077393E-01
(PID.TID 0000.0001) %MON forcing_fu_mean              =   1.6017120794640E-02
(PID.TID 0000.0001) %MON forcing_fu_sd                =   9.0801548316031E-02
(PID.TID 0000.0001) %MON forcing_fu_del2              =   7.0931845625836E-04
(PID.TID 0000.0001) %MON forcing_fv_max               =   2.2936151027679E-01
(PID.TID 0000.0001) %MON forcing_fv_min               =  -1.7930621504784E-01
(PID.TID 0000.0001) %MON forcing_fv_mean              =  -5.4064227932267E-03
(PID.TID 0000.0001) %MON forcing_fv_sd                =   4.7655349358660E-02
(PID.TID 0000.0001) %MON forcing_fv_del2              =   4.8616958739333E-04
(PID.TID 0000.0001) %MON trAdv_CFL_u_max              =   5.0186164929437E-02
(PID.TID 0000.0001) %MON trAdv_CFL_v_max              =   2.3480688629667E-02
(PID.TID 0000.0001) %MON trAdv_CFL_w_max              =   6.3744169770786E-02
(PID.TID 0000.0001) %MON advcfl_uvel_max              =   5.0004768579839E-02
(PID.TID 0000.0001) %MON advcfl_vvel_max              =   2.3968806575628E-02
(PID.TID 0000.0001) %MON advcfl_wvel_max              =   6.2521994173770E-02
(PID.TID 0000.0001) %MON advcfl_W_hf_max              =   6.7119199627724E-02
(PID.TID 0000.0001) %MON pe_b_mean                    =   5.8149605847143E-04
(PID.TID 0000.0001) %MON ke_max                       =   1.5476115573163E-02
(PID.TID 0000.0001) %MON ke_mean                      =   2.0477678451439E-04
(PID.TID 0000.0001) %MON ke_vol                       =   1.3226782436723E+18
(PID.TID 0000.0001) %MON vort_r_min                   =  -4.8403167087026E-07
(PID.TID 0000.0001) %MON vort_r_max                   =   4.4654914047692E-07
(PID.TID 0000.0001) %MON vort_a_mean                  =  -2.5274806722112E-05
(PID.TID 0000.0001) %MON vort_a_sd                    =   7.3604427584971E-05
(PID.TID 0000.0001) %MON vort_p_mean                  =  -3.1845654948562E-05
(PID.TID 0000.0001) %MON vort_p_sd                    =   1.3162083472963E-04
(PID.TID 0000.0001) %MON surfExpan_theta_mean         =  -8.1670549652576E-07
(PID.TID 0000.0001) %MON surfExpan_salt_mean          =   1.5325396750192E-07
(PID.TID 0000.0001) // =======================================================
(PID.TID 0000.0001) // End MONITOR dynamic field statistics
(PID.TID 0000.0001) // =======================================================
 EXTERNAL_FIELDS_LOAD,        14 : iP,iLd,i0,i1=   12    1   12    1 ; Wght=  0.0333333333  0.9666666667
 EXTERNAL_FIELDS_LOAD: (fu0,1),fu,fv= -4.5368E-02 -3.5633E-02 -3.5957E-02 -5.7690E-02
 EXTERNAL_FIELDS_LOAD: SST,SSS,Q,E-P=  8.9807E-01  3.4691E+01  2.6573E+02  1.1584E-05
DEBUG_STATS_RL:          Uvel (THERMODYNAMICS)  min= -9.95760180889929E-02
DEBUG_STATS_RL:          Uvel (THERMODYNAMICS)  max=  1.78791037160798E-01
DEBUG_STATS_RL:          Uvel (THERMODYNAMICS) mean=  2.77705748385133E-03
DEBUG_STATS_RL:          Uvel (THERMODYNAMICS) S.D.=  2.53997594540129E-02
DEBUG_STATS_RL:          Vvel (THERMODYNAMICS)  min= -1.23369970108428E-01
DEBUG_STATS_RL:          Vvel (THERMODYNAMICS)  max=  1.20177273279756E-01
DEBUG_STATS_RL:          Vvel (THERMODYNAMICS) mean= -1.07877496627749E-04
DEBUG_STATS_RL:          Vvel (THERMODYNAMICS) S.D.=  1.53149847617937E-02
DEBUG_STATS_RL:          Wvel (THERMODYNAMICS)  min= -2.65792442311390E-04
DEBUG_STATS_RL:          Wvel (THERMODYNAMICS)  max=  2.82289597099797E-04
DEBUG_STATS_RL:          Wvel (THERMODYNAMICS) mean= -6.31434446617595E-08
DEBUG_STATS_RL:          Wvel (THERMODYNAMICS) S.D.=  2.07672063004333E-05
DEBUG_STATS_RL:         Theta (THERMODYNAMICS)  min= -2.02419783411701E+00
DEBUG_STATS_RL:         Theta (THERMODYNAMICS)  max=  2.98507988257973E+01
DEBUG_STATS_RL:         Theta (THERMODYNAMICS) mean=  3.22723488189474E+00
DEBUG_STATS_RL:         Theta (THERMODYNAMICS) S.D.=  5.85440917009293E+00
DEBUG_STATS_RL:          Salt (THERMODYNAMICS)  min=  2.00000000000000E-02
DEBUG_STATS_RL:          Salt (THERMODYNAMICS)  max=  3.74578081334253E+01
DEBUG_STATS_RL:          Salt (THERMODYNAMICS) mean=  1.88651767663178E+01
DEBUG_STATS_RL:          Salt (THERMODYNAMICS) S.D.=  1.73006575845559E+01
DEBUG_STATS_RL:         GtNm1 (THERMODYNAMICS)  min= -6.13266362203074E-06
DEBUG_STATS_RL:         GtNm1 (THERMODYNAMICS)  max=  5.29613336799673E-06
DEBUG_STATS_RL:         GtNm1 (THERMODYNAMICS) mean=  1.49371310264215E-08
DEBUG_STATS_RL:         GtNm1 (THERMODYNAMICS) S.D.=  2.59977027906285E-07
DEBUG_STATS_RL:         GsNm1 (THERMODYNAMICS)  min= -1.46769079260340E-06
DEBUG_STATS_RL:         GsNm1 (THERMODYNAMICS)  max=  1.51141190732609E-06
DEBUG_STATS_RL:         GsNm1 (THERMODYNAMICS) mean=  1.20442199189257E-10
DEBUG_STATS_RL:         GsNm1 (THERMODYNAMICS) S.D.=  2.60674965213796E-08
DEBUG_STATS_RL:                EtaN (DYNAMICS)  min= -4.56026091129050E+00
DEBUG_STATS_RL:                EtaN (DYNAMICS)  max=  1.11434027938861E+00
DEBUG_STATS_RL:                EtaN (DYNAMICS) mean= -1.99544527378922E-01
DEBUG_STATS_RL:                EtaN (DYNAMICS) S.D.=  8.56865867849762E-01
DEBUG_STATS_RL:                Uvel (DYNAMICS)  min= -9.95760180889929E-02
DEBUG_STATS_RL:                Uvel (DYNAMICS)  max=  1.78791037160798E-01
DEBUG_STATS_RL:                Uvel (DYNAMICS) mean=  2.77705748385133E-03
DEBUG_STATS_RL:                Uvel (DYNAMICS) S.D.=  2.53997594540129E-02
DEBUG_STATS_RL:                Vvel (DYNAMICS)  min= -1.23369970108428E-01
DEBUG_STATS_RL:                Vvel (DYNAMICS)  max=  1.20177273279756E-01
DEBUG_STATS_RL:                Vvel (DYNAMICS) mean= -1.07877496627749E-04
DEBUG_STATS_RL:                Vvel (DYNAMICS) S.D.=  1.53149847617937E-02
DEBUG_STATS_RL:                Wvel (DYNAMICS)  min= -2.65792442311390E-04
DEBUG_STATS_RL:                Wvel (DYNAMICS)  max=  2.82289597099797E-04
DEBUG_STATS_RL:                Wvel (DYNAMICS) mean= -6.31434446617595E-08
DEBUG_STATS_RL:                Wvel (DYNAMICS) S.D.=  2.07672063004333E-05
DEBUG_STATS_RL:               Theta (DYNAMICS)  min= -2.02419783411701E+00
DEBUG_STATS_RL:               Theta (DYNAMICS)  max=  2.98507988257973E+01
DEBUG_STATS_RL:               Theta (DYNAMICS) mean=  3.22723488189474E+00
DEBUG_STATS_RL:               Theta (DYNAMICS) S.D.=  5.85440917009293E+00
DEBUG_STATS_RL:                Salt (DYNAMICS)  min=  2.00000000000000E-02
DEBUG_STATS_RL:                Salt (DYNAMICS)  max=  3.74578081334253E+01
DEBUG_STATS_RL:                Salt (DYNAMICS) mean=  1.88651767663178E+01
DEBUG_STATS_RL:                Salt (DYNAMICS) S.D.=  1.73006575845559E+01
DEBUG_STATS_RL:                  Gu (DYNAMICS)  min= -1.03706624764158E-01
DEBUG_STATS_RL:                  Gu (DYNAMICS)  max=  1.74014381963760E-01
DEBUG_STATS_RL:                  Gu (DYNAMICS) mean=  1.23231044703746E-03
DEBUG_STATS_RL:                  Gu (DYNAMICS) S.D.=  2.57182896228971E-02
DEBUG_STATS_RL:                  Gv (DYNAMICS)  min= -1.20856578140899E-01
DEBUG_STATS_RL:                  Gv (DYNAMICS)  max=  1.15897190084979E-01
DEBUG_STATS_RL:                  Gv (DYNAMICS) mean=  1.30443757238935E-03
DEBUG_STATS_RL:                  Gv (DYNAMICS) S.D.=  1.61748635954664E-02
DEBUG_STATS_RL:               GuNm1 (DYNAMICS)  min= -6.27924762496587E-06
DEBUG_STATS_RL:               GuNm1 (DYNAMICS)  max=  7.81971616526291E-06
DEBUG_STATS_RL:               GuNm1 (DYNAMICS) mean= -2.61246867798197E-08
DEBUG_STATS_RL:               GuNm1 (DYNAMICS) S.D.=  1.10777686125825E-06
DEBUG_STATS_RL:               GvNm1 (DYNAMICS)  min= -8.38051375063856E-06
DEBUG_STATS_RL:               GvNm1 (DYNAMICS)  max=  1.67843614479137E-05
DEBUG_STATS_RL:               GvNm1 (DYNAMICS) mean=  7.70131388002745E-07
DEBUG_STATS_RL:               GvNm1 (DYNAMICS) S.D.=  2.57850597212077E-06
DEBUG_STATS_RL:               GtNm1 (DYNAMICS)  min= -6.13266362203074E-06
DEBUG_STATS_RL:               GtNm1 (DYNAMICS)  max=  5.29613336799673E-06
DEBUG_STATS_RL:               GtNm1 (DYNAMICS) mean=  1.49371310264215E-08
DEBUG_STATS_RL:               GtNm1 (DYNAMICS) S.D.=  2.59977027906285E-07
DEBUG_STATS_RL:               GsNm1 (DYNAMICS)  min= -1.46769079260340E-06
DEBUG_STATS_RL:               GsNm1 (DYNAMICS)  max=  1.51141190732609E-06
DEBUG_STATS_RL:               GsNm1 (DYNAMICS) mean=  1.20442199189257E-10
DEBUG_STATS_RL:               GsNm1 (DYNAMICS) S.D.=  2.60674965213796E-08
DEBUG_STATS_RL:    cg2d_b (SOLVE_FOR_PRESSURE)  min= -1.70820865100183E+04
DEBUG_STATS_RL:    cg2d_b (SOLVE_FOR_PRESSURE)  max=  1.44003951998174E+04
DEBUG_STATS_RL:    cg2d_b (SOLVE_FOR_PRESSURE) mean=  1.01383415194533E+00
DEBUG_STATS_RL:    cg2d_b (SOLVE_FOR_PRESSURE) S.D.=  3.33045473009800E+03
 cg2d: Sum(rhs),rhsMax =   1.37396919303567E-01  1.12199717799563E+00
(PID.TID 0000.0001)  cg2d: iter=     1 ; resid.=  6.01435709185349E-01
(PID.TID 0000.0001)  cg2d: iter=     2 ; resid.=  5.52624476587981E-01
(PID.TID 0000.0001)  cg2d: iter=     3 ; resid.=  4.96548658431869E-01
(PID.TID 0000.0001)  cg2d: iter=     4 ; resid.=  4.58244978353427E-01
(PID.TID 0000.0001)  cg2d: iter=     5 ; resid.=  3.82819822008326E-01
(PID.TID 0000.0001)  cg2d: iter=     6 ; resid.=  3.07471375765910E-01
(PID.TID 0000.0001)  cg2d: iter=     7 ; resid.=  2.77947570249751E-01
(PID.TID 0000.0001)  cg2d: iter=     8 ; resid.=  2.39826846378255E-01
(PID.TID 0000.0001)  cg2d: iter=     9 ; resid.=  2.02694309659606E-01
(PID.TID 0000.0001)  cg2d: iter=    10 ; resid.=  1.83665110824381E-01
(PID.TID 0000.0001)  cg2d: iter=    11 ; resid.=  1.36070262295243E-01
(PID.TID 0000.0001)  cg2d: iter=    12 ; resid.=  9.06373461357927E-02
(PID.TID 0000.0001)  cg2d: iter=    13 ; resid.=  7.31966694450747E-02
(PID.TID 0000.0001)  cg2d: iter=    14 ; resid.=  6.36662042450843E-02
(PID.TID 0000.0001)  cg2d: iter=    15 ; resid.=  4.53792652064766E-02
(PID.TID 0000.0001)  cg2d: iter=    16 ; resid.=  3.77442232822584E-02
(PID.TID 0000.0001)  cg2d: iter=    17 ; resid.=  3.37747967086192E-02
(PID.TID 0000.0001)  cg2d: iter=    18 ; resid.=  2.73190107903956E-02
(PID.TID 0000.0001)  cg2d: iter=    19 ; resid.=  1.90480307116029E-02
(PID.TID 0000.0001)  cg2d: iter=    20 ; resid.=  1.51832315112603E-02
(PID.TID 0000.0001)  cg2d: iter=    21 ; resid.=  1.34511694336602E-02
(PID.TID 0000.0001)  cg2d: iter=    22 ; resid.=  1.26095958304953E-02
(PID.TID 0000.0001)  cg2d: iter=    23 ; resid.=  1.09960871279345E-02
(PID.TID 0000.0001)  cg2d: iter=    24 ; resid.=  1.00069383373434E-02
(PID.TID 0000.0001)  cg2d: iter=    25 ; resid.=  7.89238779956408E-03
(PID.TID 0000.0001)  cg2d: iter=    26 ; resid.=  6.84174076014217E-03
(PID.TID 0000.0001)  cg2d: iter=    27 ; resid.=  5.87792567045417E-03
(PID.TID 0000.0001)  cg2d: iter=    28 ; resid.=  4.88941323355271E-03
(PID.TID 0000.0001)  cg2d: iter=    29 ; resid.=  3.75026095853519E-03
(PID.TID 0000.0001)  cg2d: iter=    30 ; resid.=  3.20336874748591E-03
(PID.TID 0000.0001)  cg2d: iter=    31 ; resid.=  2.61670330831463E-03
(PID.TID 0000.0001)  cg2d: iter=    32 ; resid.=  1.94527734908064E-03
(PID.TID 0000.0001)  cg2d: iter=    33 ; resid.=  1.77749233879935E-03
(PID.TID 0000.0001)  cg2d: iter=    34 ; resid.=  1.47836203562827E-03
(PID.TID 0000.0001)  cg2d: iter=    35 ; resid.=  1.18771768113095E-03
(PID.TID 0000.0001)  cg2d: iter=    36 ; resid.=  9.23658938812674E-04
(PID.TID 0000.0001)  cg2d: iter=    37 ; resid.=  7.49108014000010E-04
(PID.TID 0000.0001)  cg2d: iter=    38 ; resid.=  6.23841334927428E-04
(PID.TID 0000.0001)  cg2d: iter=    39 ; resid.=  5.39850963979671E-04
(PID.TID 0000.0001)  cg2d: iter=    40 ; resid.=  4.55968348723619E-04
(PID.TID 0000.0001)  cg2d: iter=    41 ; resid.=  3.86914472846342E-04
(PID.TID 0000.0001)  cg2d: iter=    42 ; resid.=  3.89291077476065E-04
(PID.TID 0000.0001)  cg2d: iter=    43 ; resid.=  3.41010903024463E-04
(PID.TID 0000.0001)  cg2d: iter=    44 ; resid.=  2.98804661621927E-04
(PID.TID 0000.0001)  cg2d: iter=    45 ; resid.=  2.48317451867267E-04
(PID.TID 0000.0001)  cg2d: iter=    46 ; resid.=  2.19869637980380E-04
(PID.TID 0000.0001)  cg2d: iter=    47 ; resid.=  1.90491162785260E-04
(PID.TID 0000.0001)  cg2d: iter=    48 ; resid.=  1.56511291381766E-04
(PID.TID 0000.0001)  cg2d: iter=    49 ; resid.=  1.13756672742424E-04
(PID.TID 0000.0001)  cg2d: iter=    50 ; resid.=  8.17131767775536E-05
(PID.TID 0000.0001)  cg2d: iter=    51 ; resid.=  6.17489254443397E-05
(PID.TID 0000.0001)  cg2d: iter=    52 ; resid.=  4.85758233192892E-05
(PID.TID 0000.0001)  cg2d: iter=    53 ; resid.=  3.92293157009754E-05
(PID.TID 0000.0001)  cg2d: iter=    54 ; resid.=  3.15991712622548E-05
(PID.TID 0000.0001)  cg2d: iter=    55 ; resid.=  2.38355475745907E-05
(PID.TID 0000.0001)  cg2d: iter=    56 ; resid.=  2.11540006251238E-05
(PID.TID 0000.0001)  cg2d: iter=    57 ; resid.=  1.78750190985233E-05
(PID.TID 0000.0001)  cg2d: iter=    58 ; resid.=  1.41524778862307E-05
(PID.TID 0000.0001)  cg2d: iter=    59 ; resid.=  1.12784135525204E-05
(PID.TID 0000.0001)  cg2d: iter=    60 ; resid.=  8.77464000140828E-06
(PID.TID 0000.0001)  cg2d: iter=    61 ; resid.=  6.97142615977895E-06
(PID.TID 0000.0001)  cg2d: iter=    62 ; resid.=  5.37019404290273E-06
(PID.TID 0000.0001)  cg2d: iter=    63 ; resid.=  4.50143466128091E-06
(PID.TID 0000.0001)  cg2d: iter=    64 ; resid.=  4.45335944515440E-06
(PID.TID 0000.0001)  cg2d: iter=    65 ; resid.=  3.44034316103635E-06
(PID.TID 0000.0001)  cg2d: iter=    66 ; resid.=  2.58181595245587E-06
(PID.TID 0000.0001)  cg2d: iter=    67 ; resid.=  2.16337656048183E-06
(PID.TID 0000.0001)  cg2d: iter=    68 ; resid.=  1.91716365142781E-06
(PID.TID 0000.0001)  cg2d: iter=    69 ; resid.=  1.54815672760901E-06
(PID.TID 0000.0001)  cg2d: iter=    70 ; resid.=  1.37632500178734E-06
(PID.TID 0000.0001)  cg2d: iter=    71 ; resid.=  1.10549762366452E-06
(PID.TID 0000.0001)  cg2d: iter=    72 ; resid.=  8.48616987905763E-07
(PID.TID 0000.0001)  cg2d: iter=    73 ; resid.=  6.74317113806107E-07
(PID.TID 0000.0001)  cg2d: iter=    74 ; resid.=  5.13823239818862E-07
(PID.TID 0000.0001)  cg2d: iter=    75 ; resid.=  3.65335298592548E-07
(PID.TID 0000.0001)  cg2d: iter=    76 ; resid.=  3.03608528760798E-07
(PID.TID 0000.0001)  cg2d: iter=    77 ; resid.=  2.59923932027910E-07
(PID.TID 0000.0001)  cg2d: iter=    78 ; resid.=  2.30899732286243E-07
(PID.TID 0000.0001)  cg2d: iter=    79 ; resid.=  2.03430748425329E-07
(PID.TID 0000.0001)  cg2d: iter=    80 ; resid.=  1.69900763870991E-07
(PID.TID 0000.0001)  cg2d: iter=    81 ; resid.=  1.49468094078846E-07
(PID.TID 0000.0001)  cg2d: iter=    82 ; resid.=  1.33153702839239E-07
(PID.TID 0000.0001)  cg2d: iter=    83 ; resid.=  1.31052069241115E-07
(PID.TID 0000.0001)  cg2d: iter=    84 ; resid.=  9.96524194947626E-08
(PID.TID 0000.0001)  cg2d: iter=    85 ; resid.=  8.27589270111244E-08
(PID.TID 0000.0001)  cg2d: iter=    86 ; resid.=  6.30865474563591E-08
(PID.TID 0000.0001)  cg2d: iter=    87 ; resid.=  4.38999664567145E-08
(PID.TID 0000.0001)  cg2d: iter=    88 ; resid.=  3.43057353924797E-08
(PID.TID 0000.0001)  cg2d: iter=    89 ; resid.=  2.70561664537460E-08
(PID.TID 0000.0001)  cg2d: iter=    90 ; resid.=  2.29077365785594E-08
(PID.TID 0000.0001)  cg2d: iter=    91 ; resid.=  1.85939236001851E-08
(PID.TID 0000.0001)  cg2d: iter=    92 ; resid.=  1.50337431561608E-08
(PID.TID 0000.0001)  cg2d: iter=    93 ; resid.=  1.26643256947990E-08
(PID.TID 0000.0001)  cg2d: iter=    94 ; resid.=  1.08902958015492E-08
(PID.TID 0000.0001)  cg2d: iter=    95 ; resid.=  9.44818988590802E-09
(PID.TID 0000.0001)  cg2d: iter=    96 ; resid.=  7.36514915729324E-09
(PID.TID 0000.0001)  cg2d: iter=    97 ; resid.=  5.48818832129845E-09
(PID.TID 0000.0001)  cg2d: iter=    98 ; resid.=  4.26913638079120E-09
(PID.TID 0000.0001)  cg2d: iter=    99 ; resid.=  3.46579103964222E-09
(PID.TID 0000.0001)  cg2d: iter=   100 ; resid.=  2.82151595132432E-09
(PID.TID 0000.0001)  cg2d: iter=   101 ; resid.=  2.07833121300844E-09
(PID.TID 0000.0001)  cg2d: iter=   102 ; resid.=  1.60490688903916E-09
(PID.TID 0000.0001)  cg2d: iter=   103 ; resid.=  1.21812462427268E-09
(PID.TID 0000.0001)  cg2d: iter=   104 ; resid.=  9.15161050291491E-10
(PID.TID 0000.0001)  cg2d: iter=   105 ; resid.=  6.78722274844783E-10
(PID.TID 0000.0001)  cg2d: iter=   106 ; resid.=  5.18941008912519E-10
(PID.TID 0000.0001)  cg2d: iter=   107 ; resid.=  4.10034987581040E-10
(PID.TID 0000.0001)  cg2d: iter=   108 ; resid.=  3.48226281599537E-10
(PID.TID 0000.0001)  cg2d: iter=   109 ; resid.=  2.92202674191108E-10
(PID.TID 0000.0001)  cg2d: iter=   110 ; resid.=  2.43771470741913E-10
(PID.TID 0000.0001)  cg2d: iter=   111 ; resid.=  1.95121845905291E-10
(PID.TID 0000.0001)  cg2d: iter=   112 ; resid.=  1.52668763625619E-10
(PID.TID 0000.0001)  cg2d: iter=   113 ; resid.=  1.14956847028514E-10
(PID.TID 0000.0001)  cg2d: iter=   114 ; resid.=  8.09614027612408E-11
(PID.TID 0000.0001)  cg2d: iter=   115 ; resid.=  5.77554034734279E-11
(PID.TID 0000.0001)  cg2d: iter=   116 ; resid.=  4.01337809367066E-11
(PID.TID 0000.0001)  cg2d: iter=   117 ; resid.=  2.81119298305433E-11
(PID.TID 0000.0001)  cg2d: iter=   118 ; resid.=  1.97690002549916E-11
(PID.TID 0000.0001)  cg2d: iter=   119 ; resid.=  1.46438236642796E-11
(PID.TID 0000.0001)  cg2d: iter=   120 ; resid.=  1.09839717085472E-11
(PID.TID 0000.0001)  cg2d: iter=   121 ; resid.=  8.71797640177760E-12
(PID.TID 0000.0001)  cg2d: iter=   122 ; resid.=  6.84294605423294E-12
(PID.TID 0000.0001)  cg2d: iter=   123 ; resid.=  5.42349081361368E-12
(PID.TID 0000.0001)  cg2d: iter=   124 ; resid.=  4.15039871436801E-12
(PID.TID 0000.0001)  cg2d: iter=   125 ; resid.=  3.27729785558586E-12
(PID.TID 0000.0001)  cg2d: iter=   126 ; resid.=  2.63495558011640E-12
(PID.TID 0000.0001)  cg2d: iter=   127 ; resid.=  1.87714272327561E-12
(PID.TID 0000.0001)  cg2d: iter=   128 ; resid.=  1.51514400136422E-12
(PID.TID 0000.0001)  cg2d: iter=   129 ; resid.=  1.12051066822553E-12
(PID.TID 0000.0001)  cg2d: iter=   130 ; resid.=  8.55440406594345E-13
(PID.TID 0000.0001)  cg2d: iter=   131 ; resid.=  6.51076959213815E-13
(PID.TID 0000.0001)  cg2d: iter=   132 ; resid.=  4.68979067681824E-13
(PID.TID 0000.0001)  cg2d: iter=   133 ; resid.=  3.41498648227838E-13
(PID.TID 0000.0001)  cg2d: iter=   134 ; resid.=  2.50506480125797E-13
(PID.TID 0000.0001)  cg2d: iter=   135 ; resid.=  1.76476362725315E-13
(PID.TID 0000.0001)  cg2d: iter=   136 ; resid.=  1.11702808230034E-13
(PID.TID 0000.0001)  cg2d: iter=   137 ; resid.=  7.65872907241451E-14
DEBUG_STATS_RL:    cg2d_x (SOLVE_FOR_PRESSURE)  min= -4.25127084032498E+01
DEBUG_STATS_RL:    cg2d_x (SOLVE_FOR_PRESSURE)  max=  1.11150474137291E+01
DEBUG_STATS_RL:    cg2d_x (SOLVE_FOR_PRESSURE) mean= -1.85429687228467E+00
DEBUG_STATS_RL:    cg2d_x (SOLVE_FOR_PRESSURE) S.D.=  7.94347628389923E+00
(PID.TID 0000.0001)      cg2d_init_res =   8.02323888615547E-01
(PID.TID 0000.0001)      cg2d_iters(min,last) =      -1     137
(PID.TID 0000.0001)      cg2d_last_res =   7.65872907241451E-14
(PID.TID 0000.0001) // =======================================================
(PID.TID 0000.0001) // Begin MONITOR dynamic field statistics
(PID.TID 0000.0001) // =======================================================
(PID.TID 0000.0001) %MON time_tsnumber                =                    15
(PID.TID 0000.0001) %MON time_secondsf                =   1.2960000000000E+06
(PID.TID 0000.0001) %MON dynstat_eta_max              =   1.1330323561395E+00
(PID.TID 0000.0001) %MON dynstat_eta_min              =  -4.3336094192914E+00
(PID.TID 0000.0001) %MON dynstat_eta_mean             =  -1.0578102262704E-03
(PID.TID 0000.0001) %MON dynstat_eta_sd               =   6.4997750176297E-01
(PID.TID 0000.0001) %MON dynstat_eta_del2             =   1.8247702786675E-03
(PID.TID 0000.0001) %MON dynstat_uvel_max             =   1.7471767516046E-01
(PID.TID 0000.0001) %MON dynstat_uvel_min             =  -1.0881424162065E-01
(PID.TID 0000.0001) %MON dynstat_uvel_mean            =  -1.8059419728655E-03
(PID.TID 0000.0001) %MON dynstat_uvel_sd              =   1.8830189428790E-02
(PID.TID 0000.0001) %MON dynstat_uvel_del2            =   1.0968010680944E-04
(PID.TID 0000.0001) %MON dynstat_vvel_max             =   1.2404813131310E-01
(PID.TID 0000.0001) %MON dynstat_vvel_min             =  -1.2603764154213E-01
(PID.TID 0000.0001) %MON dynstat_vvel_mean            =  -2.7055758403819E-04
(PID.TID 0000.0001) %MON dynstat_vvel_sd              =   1.0480277124057E-02
(PID.TID 0000.0001) %MON dynstat_vvel_del2            =   9.5997569371200E-05
(PID.TID 0000.0001) %MON dynstat_wvel_max             =   2.6810859256340E-04
(PID.TID 0000.0001) %MON dynstat_wvel_min             =  -2.6278521521086E-04
(PID.TID 0000.0001) %MON dynstat_wvel_mean            =  -3.1964895730131E-22
(PID.TID 0000.0001) %MON dynstat_wvel_sd              =   2.3396208780173E-05
(PID.TID 0000.0001) %MON dynstat_wvel_del2            =   2.6107236149202E-07
(PID.TID 0000.0001) %MON dynstat_theta_max            =   2.9850798825797E+01
(PID.TID 0000.0001) %MON dynstat_theta_min            =  -2.0241978341170E+00
(PID.TID 0000.0001) %MON dynstat_theta_mean           =   3.6396357332295E+00
(PID.TID 0000.0001) %MON dynstat_theta_sd             =   4.4151457259616E+00
(PID.TID 0000.0001) %MON dynstat_theta_del2           =   4.9224499788438E-03
(PID.TID 0000.0001) %MON dynstat_salt_max             =   3.7457808133425E+01
(PID.TID 0000.0001) %MON dynstat_salt_min             =   2.9750577826135E+01
(PID.TID 0000.0001) %MON dynstat_salt_mean            =   3.4737963987473E+01
(PID.TID 0000.0001) %MON dynstat_salt_sd              =   2.9621747240442E-01
(PID.TID 0000.0001) %MON dynstat_salt_del2            =   1.0123164178852E-03
(PID.TID 0000.0001) %MON dynstat_sst_max              =   2.9850798825797E+01
(PID.TID 0000.0001) %MON dynstat_sst_min              =  -2.0241978341170E+00
(PID.TID 0000.0001) %MON dynstat_sst_mean             =   1.8672783595322E+01
(PID.TID 0000.0001) %MON dynstat_sst_sd               =   9.0605108284474E+00
(PID.TID 0000.0001) %MON dynstat_sst_del2             =   2.6257575229798E-02
(PID.TID 0000.0001) %MON dynstat_sss_max              =   3.7449425829501E+01
(PID.TID 0000.0001) %MON dynstat_sss_min              =   2.9750577826135E+01
(PID.TID 0000.0001) %MON dynstat_sss_mean             =   3.4874798216625E+01
(PID.TID 0000.0001) %MON dynstat_sss_sd               =   9.7004455594237E-01
(PID.TID 0000.0001) %MON dynstat_sss_del2             =   7.9920677009551E-03
(PID.TID 0000.0001) %MON forcing_qnet_max             =   4.4056542968750E+02
(PID.TID 0000.0001) %MON forcing_qnet_min             =  -1.8146606140137E+02
(PID.TID 0000.0001) %MON forcing_qnet_mean            =  -1.6525037956867E+01
(PID.TID 0000.0001) %MON forcing_qnet_sd              =   1.1005308947553E+02
(PID.TID 0000.0001) %MON forcing_qnet_del2            =   1.0211400522004E+00
(PID.TID 0000.0001) %MON forcing_qsw_max              =   0.0000000000000E+00
(PID.TID 0000.0001) %MON forcing_qsw_min              =   0.0000000000000E+00
(PID.TID 0000.0001) %MON forcing_qsw_mean             =   0.0000000000000E+00
(PID.TID 0000.0001) %MON forcing_qsw_sd               =   0.0000000000000E+00
(PID.TID 0000.0001) %MON forcing_qsw_del2             =   0.0000000000000E+00
(PID.TID 0000.0001) %MON forcing_empmr_max            =   8.2070127405132E-05
(PID.TID 0000.0001) %MON forcing_empmr_min            =  -7.5009903355294E-05
(PID.TID 0000.0001) %MON forcing_empmr_mean           =   9.1316730436512E-07
(PID.TID 0000.0001) %MON forcing_empmr_sd             =   2.8704317606931E-05
(PID.TID 0000.0001) %MON forcing_empmr_del2           =   3.6657303344582E-07
(PID.TID 0000.0001) %MON forcing_fu_max               =   2.7545738518238E-01
(PID.TID 0000.0001) %MON forcing_fu_min               =  -1.7006715089083E-01
(PID.TID 0000.0001) %MON forcing_fu_mean              =   1.6009427973603E-02
(PID.TID 0000.0001) %MON forcing_fu_sd                =   9.0926657900263E-02
(PID.TID 0000.0001) %MON forcing_fu_del2              =   7.1687269957315E-04
(PID.TID 0000.0001) %MON forcing_fv_max               =   2.3124141544104E-01
(PID.TID 0000.0001) %MON forcing_fv_min               =  -1.7872155755758E-01
(PID.TID 0000.0001) %MON forcing_fv_mean              =  -5.3326602663659E-03
(PID.TID 0000.0001) %MON forcing_fv_sd                =   4.7945514242523E-02
(PID.TID 0000.0001) %MON forcing_fv_del2              =   4.9262259263652E-04
(PID.TID 0000.0001) %MON trAdv_CFL_u_max              =   5.0014924905978E-02
(PID.TID 0000.0001) %MON trAdv_CFL_v_max              =   2.4167675753668E-02
(PID.TID 0000.0001) %MON trAdv_CFL_w_max              =   6.7119199627724E-02
(PID.TID 0000.0001) %MON advcfl_uvel_max              =   4.8865519502238E-02
(PID.TID 0000.0001) %MON advcfl_vvel_max              =   2.4487092350891E-02
(PID.TID 0000.0001) %MON advcfl_wvel_max              =   6.1584810495899E-02
(PID.TID 0000.0001) %MON advcfl_W_hf_max              =   6.6113105385303E-02
(PID.TID 0000.0001) %MON pe_b_mean                    =   5.4060368164821E-04
(PID.TID 0000.0001) %MON ke_max                       =   1.5367212202983E-02
(PID.TID 0000.0001) %MON ke_mean                      =   2.1191412555268E-04
(PID.TID 0000.0001) %MON ke_vol                       =   1.3226782436723E+18
(PID.TID 0000.0001) %MON vort_r_min                   =  -4.2589350114091E-07
(PID.TID 0000.0001) %MON vort_r_max                   =   6.0075648586697E-07
(PID.TID 0000.0001) %MON vort_a_mean                  =  -2.5274807178565E-05
(PID.TID 0000.0001) %MON vort_a_sd                    =   7.3604262257983E-05
(PID.TID 0000.0001) %MON vort_p_mean                  =  -3.1845655523681E-05
(PID.TID 0000.0001) %MON vort_p_sd                    =   1.3162075904465E-04
(PID.TID 0000.0001) %MON surfExpan_theta_mean         =  -1.1385988442742E-06
(PID.TID 0000.0001) %MON surfExpan_salt_mean          =   1.3064738974397E-07
(PID.TID 0000.0001) // =======================================================
(PID.TID 0000.0001) // End MONITOR dynamic field statistics
(PID.TID 0000.0001) // =======================================================
 EXTERNAL_FIELDS_LOAD,        15 : iP,iLd,i0,i1=   12    1    1    2 ; Wght=  1.0000000000  0.0000000000
 EXTERNAL_FIELDS_LOAD, it=        15 : Reading new data, i0,i1=    1    2 (prev=   12    1 )
(PID.TID 0000.0001)  MDS_READ_FIELD: opening global file: trenberth_taux.bin
(PID.TID 0000.0001)  MDS_READ_FIELD: opening global file: trenberth_taux.bin
(PID.TID 0000.0001)  MDS_READ_FIELD: opening global file: trenberth_tauy.bin
(PID.TID 0000.0001)  MDS_READ_FIELD: opening global file: trenberth_tauy.bin
(PID.TID 0000.0001)  MDS_READ_FIELD: opening global file: ncep_qnet.bin
(PID.TID 0000.0001)  MDS_READ_FIELD: opening global file: ncep_qnet.bin
(PID.TID 0000.0001)  MDS_READ_FIELD: opening global file: ncep_emp.bin
(PID.TID 0000.0001)  MDS_READ_FIELD: opening global file: ncep_emp.bin
(PID.TID 0000.0001)  MDS_READ_FIELD: opening global file: lev_sst.bin
(PID.TID 0000.0001)  MDS_READ_FIELD: opening global file: lev_sst.bin
(PID.TID 0000.0001)  MDS_READ_FIELD: opening global file: lev_sss.bin
(PID.TID 0000.0001)  MDS_READ_FIELD: opening global file: lev_sss.bin
 EXTERNAL_FIELDS_LOAD: (fu0,1),fu,fv= -3.5633E-02 -1.4435E-02 -3.5633E-02 -5.7257E-02
 EXTERNAL_FIELDS_LOAD: SST,SSS,Q,E-P=  9.5843E-01  3.4715E+01  2.6577E+02  1.1637E-05
DEBUG_STATS_RL:          Uvel (THERMODYNAMICS)  min= -1.08814241620650E-01
DEBUG_STATS_RL:          Uvel (THERMODYNAMICS)  max=  1.74717675160460E-01
DEBUG_STATS_RL:          Uvel (THERMODYNAMICS) mean=  1.99430225948698E-03
DEBUG_STATS_RL:          Uvel (THERMODYNAMICS) S.D.=  2.56418638481218E-02
DEBUG_STATS_RL:          Vvel (THERMODYNAMICS)  min= -1.26037641542134E-01
DEBUG_STATS_RL:          Vvel (THERMODYNAMICS)  max=  1.24048131313097E-01
DEBUG_STATS_RL:          Vvel (THERMODYNAMICS) mean=  4.18889341195254E-04
DEBUG_STATS_RL:          Vvel (THERMODYNAMICS) S.D.=  1.54545023849202E-02
DEBUG_STATS_RL:          Wvel (THERMODYNAMICS)  min= -2.62785215210864E-04
DEBUG_STATS_RL:          Wvel (THERMODYNAMICS)  max=  2.68108592563398E-04
DEBUG_STATS_RL:          Wvel (THERMODYNAMICS) mean=  6.07902670398745E-08
DEBUG_STATS_RL:          Wvel (THERMODYNAMICS) S.D.=  2.09126093352298E-05
DEBUG_STATS_RL:         Theta (THERMODYNAMICS)  min= -2.02443575848139E+00
DEBUG_STATS_RL:         Theta (THERMODYNAMICS)  max=  2.98455494605704E+01
DEBUG_STATS_RL:         Theta (THERMODYNAMICS) mean=  3.22772155962218E+00
DEBUG_STATS_RL:         Theta (THERMODYNAMICS) S.D.=  5.85504302350142E+00
DEBUG_STATS_RL:          Salt (THERMODYNAMICS)  min=  2.00000000000000E-02
DEBUG_STATS_RL:          Salt (THERMODYNAMICS)  max=  3.74583654177640E+01
DEBUG_STATS_RL:          Salt (THERMODYNAMICS) mean=  1.88651810662593E+01
DEBUG_STATS_RL:          Salt (THERMODYNAMICS) S.D.=  1.73006627346791E+01
DEBUG_STATS_RL:         GtNm1 (THERMODYNAMICS)  min= -4.20287431443232E-06
DEBUG_STATS_RL:         GtNm1 (THERMODYNAMICS)  max=  3.88452969011668E-06
DEBUG_STATS_RL:         GtNm1 (THERMODYNAMICS) mean=  1.26716966606137E-08
DEBUG_STATS_RL:         GtNm1 (THERMODYNAMICS) S.D.=  2.53411824493984E-07
DEBUG_STATS_RL:         GsNm1 (THERMODYNAMICS)  min= -9.01003068848100E-07
DEBUG_STATS_RL:         GsNm1 (THERMODYNAMICS)  max=  1.10068669691287E-06
DEBUG_STATS_RL:         GsNm1 (THERMODYNAMICS) mean=  9.75615233580344E-11
DEBUG_STATS_RL:         GsNm1 (THERMODYNAMICS) S.D.=  2.42832129501433E-08
DEBUG_STATS_RL:                EtaN (DYNAMICS)  min= -4.33360941929142E+00
DEBUG_STATS_RL:                EtaN (DYNAMICS)  max=  1.13303235613954E+00
DEBUG_STATS_RL:                EtaN (DYNAMICS) mean= -1.89021087898540E-01
DEBUG_STATS_RL:                EtaN (DYNAMICS) S.D.=  8.09732546778721E-01
DEBUG_STATS_RL:                Uvel (DYNAMICS)  min= -1.08814241620650E-01
DEBUG_STATS_RL:                Uvel (DYNAMICS)  max=  1.74717675160460E-01
DEBUG_STATS_RL:                Uvel (DYNAMICS) mean=  1.99430225948698E-03
DEBUG_STATS_RL:                Uvel (DYNAMICS) S.D.=  2.56418638481218E-02
DEBUG_STATS_RL:                Vvel (DYNAMICS)  min= -1.26037641542134E-01
DEBUG_STATS_RL:                Vvel (DYNAMICS)  max=  1.24048131313097E-01
DEBUG_STATS_RL:                Vvel (DYNAMICS) mean=  4.18889341195254E-04
DEBUG_STATS_RL:                Vvel (DYNAMICS) S.D.=  1.54545023849202E-02
DEBUG_STATS_RL:                Wvel (DYNAMICS)  min= -2.62785215210864E-04
DEBUG_STATS_RL:                Wvel (DYNAMICS)  max=  2.68108592563398E-04
DEBUG_STATS_RL:                Wvel (DYNAMICS) mean=  6.07902670398745E-08
DEBUG_STATS_RL:                Wvel (DYNAMICS) S.D.=  2.09126093352298E-05
DEBUG_STATS_RL:               Theta (DYNAMICS)  min= -2.02443575848139E+00
DEBUG_STATS_RL:               Theta (DYNAMICS)  max=  2.98455494605704E+01
DEBUG_STATS_RL:               Theta (DYNAMICS) mean=  3.22772155962218E+00
DEBUG_STATS_RL:               Theta (DYNAMICS) S.D.=  5.85504302350142E+00
DEBUG_STATS_RL:                Salt (DYNAMICS)  min=  2.00000000000000E-02
DEBUG_STATS_RL:                Salt (DYNAMICS)  max=  3.74583654177640E+01
DEBUG_STATS_RL:                Salt (DYNAMICS) mean=  1.88651810662593E+01
DEBUG_STATS_RL:                Salt (DYNAMICS) S.D.=  1.73006627346791E+01
DEBUG_STATS_RL:                  Gu (DYNAMICS)  min= -1.11329991704360E-01
DEBUG_STATS_RL:                  Gu (DYNAMICS)  max=  1.74338890067252E-01
DEBUG_STATS_RL:                  Gu (DYNAMICS) mean=  6.62374986903138E-04
DEBUG_STATS_RL:                  Gu (DYNAMICS) S.D.=  2.57607200685309E-02
DEBUG_STATS_RL:                  Gv (DYNAMICS)  min= -1.23178019035786E-01
DEBUG_STATS_RL:                  Gv (DYNAMICS)  max=  1.19462504052603E-01
DEBUG_STATS_RL:                  Gv (DYNAMICS) mean=  1.89072364094469E-03
DEBUG_STATS_RL:                  Gv (DYNAMICS) S.D.=  1.67411515362816E-02
DEBUG_STATS_RL:               GuNm1 (DYNAMICS)  min= -6.31406361357536E-06
DEBUG_STATS_RL:               GuNm1 (DYNAMICS)  max=  7.85358293408822E-06
DEBUG_STATS_RL:               GuNm1 (DYNAMICS) mean= -2.33961047134870E-08
DEBUG_STATS_RL:               GuNm1 (DYNAMICS) S.D.=  1.10965968758287E-06
DEBUG_STATS_RL:               GvNm1 (DYNAMICS)  min= -8.32604347698707E-06
DEBUG_STATS_RL:               GvNm1 (DYNAMICS)  max=  1.68443208115249E-05
DEBUG_STATS_RL:               GvNm1 (DYNAMICS) mean=  7.70300194958650E-07
DEBUG_STATS_RL:               GvNm1 (DYNAMICS) S.D.=  2.57555397972275E-06
DEBUG_STATS_RL:               GtNm1 (DYNAMICS)  min= -4.20287431443232E-06
DEBUG_STATS_RL:               GtNm1 (DYNAMICS)  max=  3.88452969011668E-06
DEBUG_STATS_RL:               GtNm1 (DYNAMICS) mean=  1.26716966606137E-08
DEBUG_STATS_RL:               GtNm1 (DYNAMICS) S.D.=  2.53411824493984E-07
DEBUG_STATS_RL:               GsNm1 (DYNAMICS)  min= -9.01003068848100E-07
DEBUG_STATS_RL:               GsNm1 (DYNAMICS)  max=  1.10068669691287E-06
DEBUG_STATS_RL:               GsNm1 (DYNAMICS) mean=  9.75615233580344E-11
DEBUG_STATS_RL:               GsNm1 (DYNAMICS) S.D.=  2.42832129501433E-08
DEBUG_STATS_RL:    cg2d_b (SOLVE_FOR_PRESSURE)  min= -1.78251827922407E+04
DEBUG_STATS_RL:    cg2d_b (SOLVE_FOR_PRESSURE)  max=  1.48088121850447E+04
DEBUG_STATS_RL:    cg2d_b (SOLVE_FOR_PRESSURE) mean=  1.08767635316091E+00
DEBUG_STATS_RL:    cg2d_b (SOLVE_FOR_PRESSURE) S.D.=  3.34283449856577E+03
 cg2d: Sum(rhs),rhsMax =   1.41259182972417E-01  1.17080573139709E+00
(PID.TID 0000.0001)  cg2d: iter=     1 ; resid.=  5.59199279185441E-01
(PID.TID 0000.0001)  cg2d: iter=     2 ; resid.=  5.27401622283529E-01
(PID.TID 0000.0001)  cg2d: iter=     3 ; resid.=  4.33858330388805E-01
(PID.TID 0000.0001)  cg2d: iter=     4 ; resid.=  3.57735199799971E-01
(PID.TID 0000.0001)  cg2d: iter=     5 ; resid.=  3.32174108607259E-01
(PID.TID 0000.0001)  cg2d: iter=     6 ; resid.=  2.66953023893371E-01
(PID.TID 0000.0001)  cg2d: iter=     7 ; resid.=  2.41026418995277E-01
(PID.TID 0000.0001)  cg2d: iter=     8 ; resid.=  2.15622352534518E-01
(PID.TID 0000.0001)  cg2d: iter=     9 ; resid.=  2.02290168443055E-01
(PID.TID 0000.0001)  cg2d: iter=    10 ; resid.=  1.77377778095313E-01
(PID.TID 0000.0001)  cg2d: iter=    11 ; resid.=  1.34193914426097E-01
(PID.TID 0000.0001)  cg2d: iter=    12 ; resid.=  9.42521530127719E-02
(PID.TID 0000.0001)  cg2d: iter=    13 ; resid.=  7.40019832417903E-02
(PID.TID 0000.0001)  cg2d: iter=    14 ; resid.=  5.94594051203886E-02
(PID.TID 0000.0001)  cg2d: iter=    15 ; resid.=  4.35183559126968E-02
(PID.TID 0000.0001)  cg2d: iter=    16 ; resid.=  3.90407577676319E-02
(PID.TID 0000.0001)  cg2d: iter=    17 ; resid.=  3.59044802462598E-02
(PID.TID 0000.0001)  cg2d: iter=    18 ; resid.=  2.76917325865442E-02
(PID.TID 0000.0001)  cg2d: iter=    19 ; resid.=  1.89555906174863E-02
(PID.TID 0000.0001)  cg2d: iter=    20 ; resid.=  1.42474759808155E-02
(PID.TID 0000.0001)  cg2d: iter=    21 ; resid.=  1.27395439843647E-02
(PID.TID 0000.0001)  cg2d: iter=    22 ; resid.=  1.16615749573496E-02
(PID.TID 0000.0001)  cg2d: iter=    23 ; resid.=  1.03817959820818E-02
(PID.TID 0000.0001)  cg2d: iter=    24 ; resid.=  9.91475620469358E-03
(PID.TID 0000.0001)  cg2d: iter=    25 ; resid.=  7.92375692276479E-03
(PID.TID 0000.0001)  cg2d: iter=    26 ; resid.=  6.63846607860582E-03
(PID.TID 0000.0001)  cg2d: iter=    27 ; resid.=  5.37041014238037E-03
(PID.TID 0000.0001)  cg2d: iter=    28 ; resid.=  4.29791158200469E-03
(PID.TID 0000.0001)  cg2d: iter=    29 ; resid.=  3.31018630263093E-03
(PID.TID 0000.0001)  cg2d: iter=    30 ; resid.=  2.84905612970107E-03
(PID.TID 0000.0001)  cg2d: iter=    31 ; resid.=  2.44888887467414E-03
(PID.TID 0000.0001)  cg2d: iter=    32 ; resid.=  1.74179106487433E-03
(PID.TID 0000.0001)  cg2d: iter=    33 ; resid.=  1.58637731614211E-03
(PID.TID 0000.0001)  cg2d: iter=    34 ; resid.=  1.28695902280079E-03
(PID.TID 0000.0001)  cg2d: iter=    35 ; resid.=  1.02754480915805E-03
(PID.TID 0000.0001)  cg2d: iter=    36 ; resid.=  8.33540461715307E-04
(PID.TID 0000.0001)  cg2d: iter=    37 ; resid.=  6.83936512258333E-04
(PID.TID 0000.0001)  cg2d: iter=    38 ; resid.=  5.65896397200109E-04
(PID.TID 0000.0001)  cg2d: iter=    39 ; resid.=  4.89364190575053E-04
(PID.TID 0000.0001)  cg2d: iter=    40 ; resid.=  4.12118510683968E-04
(PID.TID 0000.0001)  cg2d: iter=    41 ; resid.=  3.50466756624243E-04
(PID.TID 0000.0001)  cg2d: iter=    42 ; resid.=  3.41448537730470E-04
(PID.TID 0000.0001)  cg2d: iter=    43 ; resid.=  2.94806997534891E-04
(PID.TID 0000.0001)  cg2d: iter=    44 ; resid.=  2.63725504188171E-04
(PID.TID 0000.0001)  cg2d: iter=    45 ; resid.=  2.22778327070527E-04
(PID.TID 0000.0001)  cg2d: iter=    46 ; resid.=  2.02856203266838E-04
(PID.TID 0000.0001)  cg2d: iter=    47 ; resid.=  1.72563157954639E-04
(PID.TID 0000.0001)  cg2d: iter=    48 ; resid.=  1.38685244987026E-04
(PID.TID 0000.0001)  cg2d: iter=    49 ; resid.=  1.03708911519280E-04
(PID.TID 0000.0001)  cg2d: iter=    50 ; resid.=  7.69611426455301E-05
(PID.TID 0000.0001)  cg2d: iter=    51 ; resid.=  5.61748512626008E-05
(PID.TID 0000.0001)  cg2d: iter=    52 ; resid.=  4.14510021740261E-05
(PID.TID 0000.0001)  cg2d: iter=    53 ; resid.=  3.17416809646828E-05
(PID.TID 0000.0001)  cg2d: iter=    54 ; resid.=  2.62969283043308E-05
(PID.TID 0000.0001)  cg2d: iter=    55 ; resid.=  2.09729627971591E-05
(PID.TID 0000.0001)  cg2d: iter=    56 ; resid.=  1.91714725241732E-05
(PID.TID 0000.0001)  cg2d: iter=    57 ; resid.=  1.63511375483058E-05
(PID.TID 0000.0001)  cg2d: iter=    58 ; resid.=  1.33944948376397E-05
(PID.TID 0000.0001)  cg2d: iter=    59 ; resid.=  1.16962830738025E-05
(PID.TID 0000.0001)  cg2d: iter=    60 ; resid.=  1.02037123981421E-05
(PID.TID 0000.0001)  cg2d: iter=    61 ; resid.=  8.47454963375126E-06
(PID.TID 0000.0001)  cg2d: iter=    62 ; resid.=  6.87907786937388E-06
(PID.TID 0000.0001)  cg2d: iter=    63 ; resid.=  5.96220671277366E-06
(PID.TID 0000.0001)  cg2d: iter=    64 ; resid.=  5.71444574598967E-06
(PID.TID 0000.0001)  cg2d: iter=    65 ; resid.=  4.33369828855876E-06
(PID.TID 0000.0001)  cg2d: iter=    66 ; resid.=  3.25801946140109E-06
(PID.TID 0000.0001)  cg2d: iter=    67 ; resid.=  2.65771656101599E-06
(PID.TID 0000.0001)  cg2d: iter=    68 ; resid.=  2.28996271164302E-06
(PID.TID 0000.0001)  cg2d: iter=    69 ; resid.=  1.88271074004340E-06
(PID.TID 0000.0001)  cg2d: iter=    70 ; resid.=  1.70965748327534E-06
(PID.TID 0000.0001)  cg2d: iter=    71 ; resid.=  1.44288966174813E-06
(PID.TID 0000.0001)  cg2d: iter=    72 ; resid.=  1.17557573037753E-06
(PID.TID 0000.0001)  cg2d: iter=    73 ; resid.=  9.38091306799761E-07
(PID.TID 0000.0001)  cg2d: iter=    74 ; resid.=  7.74941737789020E-07
(PID.TID 0000.0001)  cg2d: iter=    75 ; resid.=  6.02162869171642E-07
(PID.TID 0000.0001)  cg2d: iter=    76 ; resid.=  5.09155312002703E-07
(PID.TID 0000.0001)  cg2d: iter=    77 ; resid.=  4.19502434102180E-07
(PID.TID 0000.0001)  cg2d: iter=    78 ; resid.=  3.49694463317445E-07
(PID.TID 0000.0001)  cg2d: iter=    79 ; resid.=  2.74631146338380E-07
(PID.TID 0000.0001)  cg2d: iter=    80 ; resid.=  2.25033901738474E-07
(PID.TID 0000.0001)  cg2d: iter=    81 ; resid.=  2.01730234125339E-07
(PID.TID 0000.0001)  cg2d: iter=    82 ; resid.=  1.62636655344307E-07
(PID.TID 0000.0001)  cg2d: iter=    83 ; resid.=  1.37317835638764E-07
(PID.TID 0000.0001)  cg2d: iter=    84 ; resid.=  1.00696127969840E-07
(PID.TID 0000.0001)  cg2d: iter=    85 ; resid.=  8.44886718735917E-08
(PID.TID 0000.0001)  cg2d: iter=    86 ; resid.=  6.59984878513695E-08
(PID.TID 0000.0001)  cg2d: iter=    87 ; resid.=  4.69269015850370E-08
(PID.TID 0000.0001)  cg2d: iter=    88 ; resid.=  3.52721916704834E-08
(PID.TID 0000.0001)  cg2d: iter=    89 ; resid.=  2.73832280152677E-08
(PID.TID 0000.0001)  cg2d: iter=    90 ; resid.=  2.28965729831649E-08
(PID.TID 0000.0001)  cg2d: iter=    91 ; resid.=  1.79483299551226E-08
(PID.TID 0000.0001)  cg2d: iter=    92 ; resid.=  1.45048769233605E-08
(PID.TID 0000.0001)  cg2d: iter=    93 ; resid.=  1.21707419541845E-08
(PID.TID 0000.0001)  cg2d: iter=    94 ; resid.=  1.04675901921312E-08
(PID.TID 0000.0001)  cg2d: iter=    95 ; resid.=  9.19724245441512E-09
(PID.TID 0000.0001)  cg2d: iter=    96 ; resid.=  7.37485735994243E-09
(PID.TID 0000.0001)  cg2d: iter=    97 ; resid.=  5.44554571256841E-09
(PID.TID 0000.0001)  cg2d: iter=    98 ; resid.=  4.17536894052854E-09
(PID.TID 0000.0001)  cg2d: iter=    99 ; resid.=  3.25115269543170E-09
(PID.TID 0000.0001)  cg2d: iter=   100 ; resid.=  2.68754053970004E-09
(PID.TID 0000.0001)  cg2d: iter=   101 ; resid.=  2.16479660013123E-09
(PID.TID 0000.0001)  cg2d: iter=   102 ; resid.=  1.72025817199378E-09
(PID.TID 0000.0001)  cg2d: iter=   103 ; resid.=  1.30060535612005E-09
(PID.TID 0000.0001)  cg2d: iter=   104 ; resid.=  9.45756151847789E-10
(PID.TID 0000.0001)  cg2d: iter=   105 ; resid.=  7.19270708730064E-10
(PID.TID 0000.0001)  cg2d: iter=   106 ; resid.=  5.36214604845856E-10
(PID.TID 0000.0001)  cg2d: iter=   107 ; resid.=  3.98993078481232E-10
(PID.TID 0000.0001)  cg2d: iter=   108 ; resid.=  3.25733125595519E-10
(PID.TID 0000.0001)  cg2d: iter=   109 ; resid.=  2.55205186249952E-10
(PID.TID 0000.0001)  cg2d: iter=   110 ; resid.=  2.11719520295837E-10
(PID.TID 0000.0001)  cg2d: iter=   111 ; resid.=  1.69598274911182E-10
(PID.TID 0000.0001)  cg2d: iter=   112 ; resid.=  1.30267105439813E-10
(PID.TID 0000.0001)  cg2d: iter=   113 ; resid.=  8.94477926288829E-11
(PID.TID 0000.0001)  cg2d: iter=   114 ; resid.=  6.11656155065359E-11
(PID.TID 0000.0001)  cg2d: iter=   115 ; resid.=  4.35185166148523E-11
(PID.TID 0000.0001)  cg2d: iter=   116 ; resid.=  3.12942213021871E-11
(PID.TID 0000.0001)  cg2d: iter=   117 ; resid.=  2.22586338713082E-11
(PID.TID 0000.0001)  cg2d: iter=   118 ; resid.=  1.55876411053102E-11
(PID.TID 0000.0001)  cg2d: iter=   119 ; resid.=  1.06730460606070E-11
(PID.TID 0000.0001)  cg2d: iter=   120 ; resid.=  7.28448345346691E-12
(PID.TID 0000.0001)  cg2d: iter=   121 ; resid.=  5.51976327655288E-12
(PID.TID 0000.0001)  cg2d: iter=   122 ; resid.=  4.34835710126986E-12
(PID.TID 0000.0001)  cg2d: iter=   123 ; resid.=  3.52973445190619E-12
(PID.TID 0000.0001)  cg2d: iter=   124 ; resid.=  2.69087184245491E-12
(PID.TID 0000.0001)  cg2d: iter=   125 ; resid.=  2.14696198043230E-12
(PID.TID 0000.0001)  cg2d: iter=   126 ; resid.=  1.69590464492406E-12
(PID.TID 0000.0001)  cg2d: iter=   127 ; resid.=  1.15171818455250E-12
(PID.TID 0000.0001)  cg2d: iter=   128 ; resid.=  8.80642447801136E-13
(PID.TID 0000.0001)  cg2d: iter=   129 ; resid.=  6.55199187239386E-13
(PID.TID 0000.0001)  cg2d: iter=   130 ; resid.=  4.99297645484006E-13
(PID.TID 0000.0001)  cg2d: iter=   131 ; resid.=  3.89341694751786E-13
(PID.TID 0000.0001)  cg2d: iter=   132 ; resid.=  2.87903786922609E-13
(PID.TID 0000.0001)  cg2d: iter=   133 ; resid.=  2.16723961817429E-13
(PID.TID 0000.0001)  cg2d: iter=   134 ; resid.=  1.69967403742632E-13
(PID.TID 0000.0001)  cg2d: iter=   135 ; resid.=  1.21316741002196E-13
(PID.TID 0000.0001)  cg2d: iter=   136 ; resid.=  8.36046990647364E-14
DEBUG_STATS_RL:    cg2d_x (SOLVE_FOR_PRESSURE)  min= -3.60302253873670E+01
DEBUG_STATS_RL:    cg2d_x (SOLVE_FOR_PRESSURE)  max=  1.13004557841356E+01
DEBUG_STATS_RL:    cg2d_x (SOLVE_FOR_PRESSURE) mean= -1.75109927503319E+00
DEBUG_STATS_RL:    cg2d_x (SOLVE_FOR_PRESSURE) S.D.=  7.42515478468427E+00
(PID.TID 0000.0001)      cg2d_init_res =   7.39715031645052E-01
(PID.TID 0000.0001)      cg2d_iters(min,last) =      -1     136
(PID.TID 0000.0001)      cg2d_last_res =   8.36046990647364E-14
(PID.TID 0000.0001) // =======================================================
(PID.TID 0000.0001) // Begin MONITOR dynamic field statistics
(PID.TID 0000.0001) // =======================================================
(PID.TID 0000.0001) %MON time_tsnumber                =                    16
(PID.TID 0000.0001) %MON time_secondsf                =   1.3824000000000E+06
(PID.TID 0000.0001) %MON dynstat_eta_max              =   1.1519322919607E+00
(PID.TID 0000.0001) %MON dynstat_eta_min              =  -3.6728058498844E+00
(PID.TID 0000.0001) %MON dynstat_eta_mean             =  -1.1348554071077E-03
(PID.TID 0000.0001) %MON dynstat_eta_sd               =   6.2699242814508E-01
(PID.TID 0000.0001) %MON dynstat_eta_del2             =   1.8136159176386E-03
(PID.TID 0000.0001) %MON dynstat_uvel_max             =   1.7240686510421E-01
(PID.TID 0000.0001) %MON dynstat_uvel_min             =  -1.1434925759216E-01
(PID.TID 0000.0001) %MON dynstat_uvel_mean            =  -2.4083194795373E-03
(PID.TID 0000.0001) %MON dynstat_uvel_sd              =   1.9022028760074E-02
(PID.TID 0000.0001) %MON dynstat_uvel_del2            =   1.0997206155968E-04
(PID.TID 0000.0001) %MON dynstat_vvel_max             =   1.2750918364710E-01
(PID.TID 0000.0001) %MON dynstat_vvel_min             =  -1.2802705498025E-01
(PID.TID 0000.0001) %MON dynstat_vvel_mean            =  -1.8429485489861E-05
(PID.TID 0000.0001) %MON dynstat_vvel_sd              =   1.0484956789389E-02
(PID.TID 0000.0001) %MON dynstat_vvel_del2            =   9.6143592572833E-05
(PID.TID 0000.0001) %MON dynstat_wvel_max             =   2.6284322387527E-04
(PID.TID 0000.0001) %MON dynstat_wvel_min             =  -2.4695954433912E-04
(PID.TID 0000.0001) %MON dynstat_wvel_mean            =   1.9302567452419E-22
(PID.TID 0000.0001) %MON dynstat_wvel_sd              =   2.3553036927798E-05
(PID.TID 0000.0001) %MON dynstat_wvel_del2            =   2.6429840111441E-07
(PID.TID 0000.0001) %MON dynstat_theta_max            =   2.9845549460570E+01
(PID.TID 0000.0001) %MON dynstat_theta_min            =  -2.0244357584814E+00
(PID.TID 0000.0001) %MON dynstat_theta_mean           =   3.6397570062926E+00
(PID.TID 0000.0001) %MON dynstat_theta_sd             =   4.4153139209677E+00
(PID.TID 0000.0001) %MON dynstat_theta_del2           =   4.9045002884256E-03
(PID.TID 0000.0001) %MON dynstat_salt_max             =   3.7458365417764E+01
(PID.TID 0000.0001) %MON dynstat_salt_min             =   2.9748326751967E+01
(PID.TID 0000.0001) %MON dynstat_salt_mean            =   3.4737962323657E+01
(PID.TID 0000.0001) %MON dynstat_salt_sd              =   2.9623264837500E-01
(PID.TID 0000.0001) %MON dynstat_salt_del2            =   1.0124708920441E-03
(PID.TID 0000.0001) %MON dynstat_sst_max              =   2.9845549460570E+01
(PID.TID 0000.0001) %MON dynstat_sst_min              =  -2.0244357584814E+00
(PID.TID 0000.0001) %MON dynstat_sst_mean             =   1.8680515200423E+01
(PID.TID 0000.0001) %MON dynstat_sst_sd               =   9.0587475040106E+00
(PID.TID 0000.0001) %MON dynstat_sst_del2             =   2.6277176476811E-02
(PID.TID 0000.0001) %MON dynstat_sss_max              =   3.7449347818320E+01
(PID.TID 0000.0001) %MON dynstat_sss_min              =   2.9748326751967E+01
(PID.TID 0000.0001) %MON dynstat_sss_mean             =   3.4874587375832E+01
(PID.TID 0000.0001) %MON dynstat_sss_sd               =   9.7055928819602E-01
(PID.TID 0000.0001) %MON dynstat_sss_del2             =   7.9899193688694E-03
(PID.TID 0000.0001) %MON forcing_qnet_max             =   4.4161361694336E+02
(PID.TID 0000.0001) %MON forcing_qnet_min             =  -1.8132531738281E+02
(PID.TID 0000.0001) %MON forcing_qnet_mean            =  -1.6512526001044E+01
(PID.TID 0000.0001) %MON forcing_qnet_sd              =   1.0987288293460E+02
(PID.TID 0000.0001) %MON forcing_qnet_del2            =   1.0245701543512E+00
(PID.TID 0000.0001) %MON forcing_qsw_max              =   0.0000000000000E+00
(PID.TID 0000.0001) %MON forcing_qsw_min              =   0.0000000000000E+00
(PID.TID 0000.0001) %MON forcing_qsw_mean             =   0.0000000000000E+00
(PID.TID 0000.0001) %MON forcing_qsw_sd               =   0.0000000000000E+00
(PID.TID 0000.0001) %MON forcing_qsw_del2             =   0.0000000000000E+00
(PID.TID 0000.0001) %MON forcing_empmr_max            =   8.2174238968946E-05
(PID.TID 0000.0001) %MON forcing_empmr_min            =  -7.6155956207913E-05
(PID.TID 0000.0001) %MON forcing_empmr_mean           =   9.2293706211063E-07
(PID.TID 0000.0001) %MON forcing_empmr_sd             =   2.8800050217957E-05
(PID.TID 0000.0001) %MON forcing_empmr_del2           =   3.6757632549621E-07
(PID.TID 0000.0001) %MON forcing_fu_max               =   2.7877888083458E-01
(PID.TID 0000.0001) %MON forcing_fu_min               =  -1.7088057100773E-01
(PID.TID 0000.0001) %MON forcing_fu_mean              =   1.6001735152566E-02
(PID.TID 0000.0001) %MON forcing_fu_sd                =   9.1062350670783E-02
(PID.TID 0000.0001) %MON forcing_fu_del2              =   7.2483493833855E-04
(PID.TID 0000.0001) %MON forcing_fv_max               =   2.3312132060528E-01
(PID.TID 0000.0001) %MON forcing_fv_min               =  -1.7813690006733E-01
(PID.TID 0000.0001) %MON forcing_fv_mean              =  -5.2588977395051E-03
(PID.TID 0000.0001) %MON forcing_fv_sd                =   4.8248606070107E-02
(PID.TID 0000.0001) %MON forcing_fv_del2              =   4.9948324922575E-04
(PID.TID 0000.0001) %MON trAdv_CFL_u_max              =   4.8875444438741E-02
(PID.TID 0000.0001) %MON trAdv_CFL_v_max              =   2.4690261745790E-02
(PID.TID 0000.0001) %MON trAdv_CFL_w_max              =   6.6113105385303E-02
(PID.TID 0000.0001) %MON advcfl_uvel_max              =   5.3346849960934E-02
(PID.TID 0000.0001) %MON advcfl_vvel_max              =   2.4873603475562E-02
(PID.TID 0000.0001) %MON advcfl_wvel_max              =   5.7546223911549E-02
(PID.TID 0000.0001) %MON advcfl_W_hf_max              =   6.2962976826132E-02
(PID.TID 0000.0001) %MON pe_b_mean                    =   5.0304543841109E-04
(PID.TID 0000.0001) %MON ke_max                       =   1.5082876973375E-02
(PID.TID 0000.0001) %MON ke_mean                      =   2.1637780376437E-04
(PID.TID 0000.0001) %MON ke_vol                       =   1.3226782436723E+18
(PID.TID 0000.0001) %MON vort_r_min                   =  -4.4808197800441E-07
(PID.TID 0000.0001) %MON vort_r_max                   =   7.5175815700042E-07
(PID.TID 0000.0001) %MON vort_a_mean                  =  -2.5274807513827E-05
(PID.TID 0000.0001) %MON vort_a_sd                    =   7.3604125362787E-05
(PID.TID 0000.0001) %MON vort_p_mean                  =  -3.1845655946103E-05
(PID.TID 0000.0001) %MON vort_p_sd                    =   1.3162087331618E-04
(PID.TID 0000.0001) %MON surfExpan_theta_mean         =  -9.2100391050015E-07
(PID.TID 0000.0001) %MON surfExpan_salt_mean          =   1.2972878939845E-07
(PID.TID 0000.0001) // =======================================================
(PID.TID 0000.0001) // End MONITOR dynamic field statistics
(PID.TID 0000.0001) // =======================================================
 EXTERNAL_FIELDS_LOAD,        16 : iP,iLd,i0,i1=    1    2    1    2 ; Wght=  0.9666666667  0.0333333333
 EXTERNAL_FIELDS_LOAD: (fu0,1),fu,fv= -3.5633E-02 -1.4435E-02 -3.4926E-02 -5.5936E-02
 EXTERNAL_FIELDS_LOAD: SST,SSS,Q,E-P=  9.0875E-01  3.4705E+01  2.6493E+02  1.1528E-05
DEBUG_STATS_RL:          Uvel (THERMODYNAMICS)  min= -1.14349257592157E-01
DEBUG_STATS_RL:          Uvel (THERMODYNAMICS)  max=  1.72406865104207E-01
DEBUG_STATS_RL:          Uvel (THERMODYNAMICS) mean=  1.33459367016536E-03
DEBUG_STATS_RL:          Uvel (THERMODYNAMICS) S.D.=  2.56390264814142E-02
DEBUG_STATS_RL:          Vvel (THERMODYNAMICS)  min= -1.28027054980255E-01
DEBUG_STATS_RL:          Vvel (THERMODYNAMICS)  max=  1.27509183647095E-01
DEBUG_STATS_RL:          Vvel (THERMODYNAMICS) mean=  9.94984400510657E-04
DEBUG_STATS_RL:          Vvel (THERMODYNAMICS) S.D.=  1.57791979176705E-02
DEBUG_STATS_RL:          Wvel (THERMODYNAMICS)  min= -2.46959544339122E-04
DEBUG_STATS_RL:          Wvel (THERMODYNAMICS)  max=  2.62843223875274E-04
DEBUG_STATS_RL:          Wvel (THERMODYNAMICS) mean=  1.56952364384802E-07
DEBUG_STATS_RL:          Wvel (THERMODYNAMICS) S.D.=  2.11145006528537E-05
DEBUG_STATS_RL:         Theta (THERMODYNAMICS)  min= -2.02249867230046E+00
DEBUG_STATS_RL:         Theta (THERMODYNAMICS)  max=  2.98434910710134E+01
DEBUG_STATS_RL:         Theta (THERMODYNAMICS) mean=  3.22808459648823E+00
DEBUG_STATS_RL:         Theta (THERMODYNAMICS) S.D.=  5.85557229958304E+00
DEBUG_STATS_RL:          Salt (THERMODYNAMICS)  min=  2.00000000000000E-02
DEBUG_STATS_RL:          Salt (THERMODYNAMICS)  max=  3.74590056708008E+01
DEBUG_STATS_RL:          Salt (THERMODYNAMICS) mean=  1.88651821514728E+01
DEBUG_STATS_RL:          Salt (THERMODYNAMICS) S.D.=  1.73006645630646E+01
DEBUG_STATS_RL:         GtNm1 (THERMODYNAMICS)  min= -3.20006103177470E-06
DEBUG_STATS_RL:         GtNm1 (THERMODYNAMICS)  max=  2.79057880688762E-06
DEBUG_STATS_RL:         GtNm1 (THERMODYNAMICS) mean=  1.00314644618734E-08
DEBUG_STATS_RL:         GtNm1 (THERMODYNAMICS) S.D.=  2.44699587863284E-07
DEBUG_STATS_RL:         GsNm1 (THERMODYNAMICS)  min= -7.63803526789573E-07
DEBUG_STATS_RL:         GsNm1 (THERMODYNAMICS)  max=  7.08905188528136E-07
DEBUG_STATS_RL:         GsNm1 (THERMODYNAMICS) mean=  3.06078349814346E-11
DEBUG_STATS_RL:         GsNm1 (THERMODYNAMICS) S.D.=  2.16796295473482E-08
DEBUG_STATS_RL:                EtaN (DYNAMICS)  min= -3.67280584988443E+00
DEBUG_STATS_RL:                EtaN (DYNAMICS)  max=  1.15193229196075E+00
DEBUG_STATS_RL:                EtaN (DYNAMICS) mean= -1.78501455151192E-01
DEBUG_STATS_RL:                EtaN (DYNAMICS) S.D.=  7.56896512200231E-01
DEBUG_STATS_RL:                Uvel (DYNAMICS)  min= -1.14349257592157E-01
DEBUG_STATS_RL:                Uvel (DYNAMICS)  max=  1.72406865104207E-01
DEBUG_STATS_RL:                Uvel (DYNAMICS) mean=  1.33459367016536E-03
DEBUG_STATS_RL:                Uvel (DYNAMICS) S.D.=  2.56390264814142E-02
DEBUG_STATS_RL:                Vvel (DYNAMICS)  min= -1.28027054980255E-01
DEBUG_STATS_RL:                Vvel (DYNAMICS)  max=  1.27509183647095E-01
DEBUG_STATS_RL:                Vvel (DYNAMICS) mean=  9.94984400510657E-04
DEBUG_STATS_RL:                Vvel (DYNAMICS) S.D.=  1.57791979176705E-02
DEBUG_STATS_RL:                Wvel (DYNAMICS)  min= -2.46959544339122E-04
DEBUG_STATS_RL:                Wvel (DYNAMICS)  max=  2.62843223875274E-04
DEBUG_STATS_RL:                Wvel (DYNAMICS) mean=  1.56952364384802E-07
DEBUG_STATS_RL:                Wvel (DYNAMICS) S.D.=  2.11145006528537E-05
DEBUG_STATS_RL:               Theta (DYNAMICS)  min= -2.02249867230046E+00
DEBUG_STATS_RL:               Theta (DYNAMICS)  max=  2.98434910710134E+01
DEBUG_STATS_RL:               Theta (DYNAMICS) mean=  3.22808459648823E+00
DEBUG_STATS_RL:               Theta (DYNAMICS) S.D.=  5.85557229958304E+00
DEBUG_STATS_RL:                Salt (DYNAMICS)  min=  2.00000000000000E-02
DEBUG_STATS_RL:                Salt (DYNAMICS)  max=  3.74590056708008E+01
DEBUG_STATS_RL:                Salt (DYNAMICS) mean=  1.88651821514728E+01
DEBUG_STATS_RL:                Salt (DYNAMICS) S.D.=  1.73006645630646E+01
DEBUG_STATS_RL:                  Gu (DYNAMICS)  min= -1.18122831071660E-01
DEBUG_STATS_RL:                  Gu (DYNAMICS)  max=  1.71605863308097E-01
DEBUG_STATS_RL:                  Gu (DYNAMICS) mean=  2.30814740738618E-04
DEBUG_STATS_RL:                  Gu (DYNAMICS) S.D.=  2.55835115390430E-02
DEBUG_STATS_RL:                  Gv (DYNAMICS)  min= -1.24749011355158E-01
DEBUG_STATS_RL:                  Gv (DYNAMICS)  max=  1.22640813842571E-01
DEBUG_STATS_RL:                  Gv (DYNAMICS) mean=  2.52749191382224E-03
DEBUG_STATS_RL:                  Gv (DYNAMICS) S.D.=  1.74068737989470E-02
DEBUG_STATS_RL:               GuNm1 (DYNAMICS)  min= -6.42630793465646E-06
DEBUG_STATS_RL:               GuNm1 (DYNAMICS)  max=  7.86309119180869E-06
DEBUG_STATS_RL:               GuNm1 (DYNAMICS) mean= -2.03061530602425E-08
DEBUG_STATS_RL:               GuNm1 (DYNAMICS) S.D.=  1.11418100576740E-06
DEBUG_STATS_RL:               GvNm1 (DYNAMICS)  min= -8.35958249235249E-06
DEBUG_STATS_RL:               GvNm1 (DYNAMICS)  max=  1.68974449890572E-05
DEBUG_STATS_RL:               GvNm1 (DYNAMICS) mean=  7.70584132705851E-07
DEBUG_STATS_RL:               GvNm1 (DYNAMICS) S.D.=  2.57555044675229E-06
DEBUG_STATS_RL:               GtNm1 (DYNAMICS)  min= -3.20006103177470E-06
DEBUG_STATS_RL:               GtNm1 (DYNAMICS)  max=  2.79057880688762E-06
DEBUG_STATS_RL:               GtNm1 (DYNAMICS) mean=  1.00314644618734E-08
DEBUG_STATS_RL:               GtNm1 (DYNAMICS) S.D.=  2.44699587863284E-07
DEBUG_STATS_RL:               GsNm1 (DYNAMICS)  min= -7.63803526789573E-07
DEBUG_STATS_RL:               GsNm1 (DYNAMICS)  max=  7.08905188528136E-07
DEBUG_STATS_RL:               GsNm1 (DYNAMICS) mean=  3.06078349814346E-11
DEBUG_STATS_RL:               GsNm1 (DYNAMICS) S.D.=  2.16796295473482E-08
DEBUG_STATS_RL:    cg2d_b (SOLVE_FOR_PRESSURE)  min= -1.87038189414457E+04
DEBUG_STATS_RL:    cg2d_b (SOLVE_FOR_PRESSURE)  max=  1.52794578368635E+04
DEBUG_STATS_RL:    cg2d_b (SOLVE_FOR_PRESSURE) mean=  1.16157315150676E+00
DEBUG_STATS_RL:    cg2d_b (SOLVE_FOR_PRESSURE) S.D.=  3.37336715165635E+03
 cg2d: Sum(rhs),rhsMax =   1.43769668331159E-01  1.22851690615989E+00
(PID.TID 0000.0001)  cg2d: iter=     1 ; resid.=  5.07028816946805E-01
(PID.TID 0000.0001)  cg2d: iter=     2 ; resid.=  4.78140890338319E-01
(PID.TID 0000.0001)  cg2d: iter=     3 ; resid.=  3.83629037191431E-01
(PID.TID 0000.0001)  cg2d: iter=     4 ; resid.=  3.07243026996259E-01
(PID.TID 0000.0001)  cg2d: iter=     5 ; resid.=  2.87879728438961E-01
(PID.TID 0000.0001)  cg2d: iter=     6 ; resid.=  2.35350834713292E-01
(PID.TID 0000.0001)  cg2d: iter=     7 ; resid.=  2.14750320611393E-01
(PID.TID 0000.0001)  cg2d: iter=     8 ; resid.=  2.03279141240881E-01
(PID.TID 0000.0001)  cg2d: iter=     9 ; resid.=  1.96524115072564E-01
(PID.TID 0000.0001)  cg2d: iter=    10 ; resid.=  1.78401805752120E-01
(PID.TID 0000.0001)  cg2d: iter=    11 ; resid.=  1.35811015998350E-01
(PID.TID 0000.0001)  cg2d: iter=    12 ; resid.=  1.02079338784254E-01
(PID.TID 0000.0001)  cg2d: iter=    13 ; resid.=  7.58898132223425E-02
(PID.TID 0000.0001)  cg2d: iter=    14 ; resid.=  6.13335466908478E-02
(PID.TID 0000.0001)  cg2d: iter=    15 ; resid.=  4.68680803349099E-02
(PID.TID 0000.0001)  cg2d: iter=    16 ; resid.=  4.32763759317746E-02
(PID.TID 0000.0001)  cg2d: iter=    17 ; resid.=  3.99065211311582E-02
(PID.TID 0000.0001)  cg2d: iter=    18 ; resid.=  3.08773920195239E-02
(PID.TID 0000.0001)  cg2d: iter=    19 ; resid.=  2.11172058284463E-02
(PID.TID 0000.0001)  cg2d: iter=    20 ; resid.=  1.54030096589167E-02
(PID.TID 0000.0001)  cg2d: iter=    21 ; resid.=  1.31376053272447E-02
(PID.TID 0000.0001)  cg2d: iter=    22 ; resid.=  1.20006901600976E-02
(PID.TID 0000.0001)  cg2d: iter=    23 ; resid.=  1.04476974950415E-02
(PID.TID 0000.0001)  cg2d: iter=    24 ; resid.=  1.05017212004458E-02
(PID.TID 0000.0001)  cg2d: iter=    25 ; resid.=  8.40292523811293E-03
(PID.TID 0000.0001)  cg2d: iter=    26 ; resid.=  7.31972277730435E-03
(PID.TID 0000.0001)  cg2d: iter=    27 ; resid.=  6.09605532269700E-03
(PID.TID 0000.0001)  cg2d: iter=    28 ; resid.=  5.16679008307975E-03
(PID.TID 0000.0001)  cg2d: iter=    29 ; resid.=  4.09650972641033E-03
(PID.TID 0000.0001)  cg2d: iter=    30 ; resid.=  3.80982010183263E-03
(PID.TID 0000.0001)  cg2d: iter=    31 ; resid.=  3.49733493923884E-03
(PID.TID 0000.0001)  cg2d: iter=    32 ; resid.=  2.57296605962085E-03
(PID.TID 0000.0001)  cg2d: iter=    33 ; resid.=  2.30908185730059E-03
(PID.TID 0000.0001)  cg2d: iter=    34 ; resid.=  1.94143806582965E-03
(PID.TID 0000.0001)  cg2d: iter=    35 ; resid.=  1.47550894576722E-03
(PID.TID 0000.0001)  cg2d: iter=    36 ; resid.=  1.17514887013754E-03
(PID.TID 0000.0001)  cg2d: iter=    37 ; resid.=  9.45304424121420E-04
(PID.TID 0000.0001)  cg2d: iter=    38 ; resid.=  7.89427860396386E-04
(PID.TID 0000.0001)  cg2d: iter=    39 ; resid.=  6.76728577177253E-04
(PID.TID 0000.0001)  cg2d: iter=    40 ; resid.=  5.87627794718571E-04
(PID.TID 0000.0001)  cg2d: iter=    41 ; resid.=  4.96607275415500E-04
(PID.TID 0000.0001)  cg2d: iter=    42 ; resid.=  4.45186364655119E-04
(PID.TID 0000.0001)  cg2d: iter=    43 ; resid.=  3.59568890805656E-04
(PID.TID 0000.0001)  cg2d: iter=    44 ; resid.=  3.11690367928334E-04
(PID.TID 0000.0001)  cg2d: iter=    45 ; resid.=  2.52429580454073E-04
(PID.TID 0000.0001)  cg2d: iter=    46 ; resid.=  2.22162431786322E-04
(PID.TID 0000.0001)  cg2d: iter=    47 ; resid.=  1.82791413578810E-04
(PID.TID 0000.0001)  cg2d: iter=    48 ; resid.=  1.37374878215068E-04
(PID.TID 0000.0001)  cg2d: iter=    49 ; resid.=  1.01995936414951E-04
(PID.TID 0000.0001)  cg2d: iter=    50 ; resid.=  7.99318759249030E-05
(PID.TID 0000.0001)  cg2d: iter=    51 ; resid.=  6.10020788083422E-05
(PID.TID 0000.0001)  cg2d: iter=    52 ; resid.=  4.58870705675423E-05
(PID.TID 0000.0001)  cg2d: iter=    53 ; resid.=  3.78922724175478E-05
(PID.TID 0000.0001)  cg2d: iter=    54 ; resid.=  3.36614602661620E-05
(PID.TID 0000.0001)  cg2d: iter=    55 ; resid.=  2.90983595568098E-05
(PID.TID 0000.0001)  cg2d: iter=    56 ; resid.=  2.74054593623766E-05
(PID.TID 0000.0001)  cg2d: iter=    57 ; resid.=  2.36566470479098E-05
(PID.TID 0000.0001)  cg2d: iter=    58 ; resid.=  1.88996123060216E-05
(PID.TID 0000.0001)  cg2d: iter=    59 ; resid.=  1.58717580747973E-05
(PID.TID 0000.0001)  cg2d: iter=    60 ; resid.=  1.33347117265538E-05
(PID.TID 0000.0001)  cg2d: iter=    61 ; resid.=  1.08740365474409E-05
(PID.TID 0000.0001)  cg2d: iter=    62 ; resid.=  8.73920507145608E-06
(PID.TID 0000.0001)  cg2d: iter=    63 ; resid.=  7.61722791473111E-06
(PID.TID 0000.0001)  cg2d: iter=    64 ; resid.=  6.81418963799317E-06
(PID.TID 0000.0001)  cg2d: iter=    65 ; resid.=  5.17649986475866E-06
(PID.TID 0000.0001)  cg2d: iter=    66 ; resid.=  3.89363969178834E-06
(PID.TID 0000.0001)  cg2d: iter=    67 ; resid.=  3.26458799228288E-06
(PID.TID 0000.0001)  cg2d: iter=    68 ; resid.=  2.74606174227409E-06
(PID.TID 0000.0001)  cg2d: iter=    69 ; resid.=  2.30449605086104E-06
(PID.TID 0000.0001)  cg2d: iter=    70 ; resid.=  2.00754328712174E-06
(PID.TID 0000.0001)  cg2d: iter=    71 ; resid.=  1.63730047540194E-06
(PID.TID 0000.0001)  cg2d: iter=    72 ; resid.=  1.31242845341960E-06
(PID.TID 0000.0001)  cg2d: iter=    73 ; resid.=  1.06575064149631E-06
(PID.TID 0000.0001)  cg2d: iter=    74 ; resid.=  8.89826193552851E-07
(PID.TID 0000.0001)  cg2d: iter=    75 ; resid.=  6.97016678182020E-07
(PID.TID 0000.0001)  cg2d: iter=    76 ; resid.=  5.57474685219501E-07
(PID.TID 0000.0001)  cg2d: iter=    77 ; resid.=  4.64248021558373E-07
(PID.TID 0000.0001)  cg2d: iter=    78 ; resid.=  3.62420161239453E-07
(PID.TID 0000.0001)  cg2d: iter=    79 ; resid.=  2.71019822077043E-07
(PID.TID 0000.0001)  cg2d: iter=    80 ; resid.=  2.11595816404323E-07
(PID.TID 0000.0001)  cg2d: iter=    81 ; resid.=  1.88960723228486E-07
(PID.TID 0000.0001)  cg2d: iter=    82 ; resid.=  1.40775868915045E-07
(PID.TID 0000.0001)  cg2d: iter=    83 ; resid.=  1.12381249554597E-07
(PID.TID 0000.0001)  cg2d: iter=    84 ; resid.=  8.17003145865278E-08
(PID.TID 0000.0001)  cg2d: iter=    85 ; resid.=  6.46996456949805E-08
(PID.TID 0000.0001)  cg2d: iter=    86 ; resid.=  5.01378248716924E-08
(PID.TID 0000.0001)  cg2d: iter=    87 ; resid.=  3.77293383584405E-08
(PID.TID 0000.0001)  cg2d: iter=    88 ; resid.=  2.78398771512780E-08
(PID.TID 0000.0001)  cg2d: iter=    89 ; resid.=  2.16298653423081E-08
(PID.TID 0000.0001)  cg2d: iter=    90 ; resid.=  1.82200714718348E-08
(PID.TID 0000.0001)  cg2d: iter=    91 ; resid.=  1.46288482924046E-08
(PID.TID 0000.0001)  cg2d: iter=    92 ; resid.=  1.12240351900031E-08
(PID.TID 0000.0001)  cg2d: iter=    93 ; resid.=  9.02457761206690E-09
(PID.TID 0000.0001)  cg2d: iter=    94 ; resid.=  8.01052197761252E-09
(PID.TID 0000.0001)  cg2d: iter=    95 ; resid.=  6.96961089757374E-09
(PID.TID 0000.0001)  cg2d: iter=    96 ; resid.=  5.66093686119301E-09
(PID.TID 0000.0001)  cg2d: iter=    97 ; resid.=  4.16380646663976E-09
(PID.TID 0000.0001)  cg2d: iter=    98 ; resid.=  3.15350349973213E-09
(PID.TID 0000.0001)  cg2d: iter=    99 ; resid.=  2.38170257418027E-09
(PID.TID 0000.0001)  cg2d: iter=   100 ; resid.=  2.01140572872712E-09
(PID.TID 0000.0001)  cg2d: iter=   101 ; resid.=  1.72090859419701E-09
(PID.TID 0000.0001)  cg2d: iter=   102 ; resid.=  1.44639535454264E-09
(PID.TID 0000.0001)  cg2d: iter=   103 ; resid.=  1.17037817948914E-09
(PID.TID 0000.0001)  cg2d: iter=   104 ; resid.=  9.24939882895300E-10
(PID.TID 0000.0001)  cg2d: iter=   105 ; resid.=  7.48897751870164E-10
(PID.TID 0000.0001)  cg2d: iter=   106 ; resid.=  5.99433743308537E-10
(PID.TID 0000.0001)  cg2d: iter=   107 ; resid.=  4.57354133916078E-10
(PID.TID 0000.0001)  cg2d: iter=   108 ; resid.=  3.80665360127879E-10
(PID.TID 0000.0001)  cg2d: iter=   109 ; resid.=  3.08396482689020E-10
(PID.TID 0000.0001)  cg2d: iter=   110 ; resid.=  2.57342529299053E-10
(PID.TID 0000.0001)  cg2d: iter=   111 ; resid.=  1.98948801243227E-10
(PID.TID 0000.0001)  cg2d: iter=   112 ; resid.=  1.43246982840961E-10
(PID.TID 0000.0001)  cg2d: iter=   113 ; resid.=  9.53457927204692E-11
(PID.TID 0000.0001)  cg2d: iter=   114 ; resid.=  6.41534275475322E-11
(PID.TID 0000.0001)  cg2d: iter=   115 ; resid.=  4.44602649296927E-11
(PID.TID 0000.0001)  cg2d: iter=   116 ; resid.=  3.25132232781835E-11
(PID.TID 0000.0001)  cg2d: iter=   117 ; resid.=  2.52431986903922E-11
(PID.TID 0000.0001)  cg2d: iter=   118 ; resid.=  1.93401527000194E-11
(PID.TID 0000.0001)  cg2d: iter=   119 ; resid.=  1.40676558642691E-11
(PID.TID 0000.0001)  cg2d: iter=   120 ; resid.=  1.11604329881138E-11
(PID.TID 0000.0001)  cg2d: iter=   121 ; resid.=  9.40890077413457E-12
(PID.TID 0000.0001)  cg2d: iter=   122 ; resid.=  7.67270256965973E-12
(PID.TID 0000.0001)  cg2d: iter=   123 ; resid.=  6.16395299005842E-12
(PID.TID 0000.0001)  cg2d: iter=   124 ; resid.=  4.62387188088480E-12
(PID.TID 0000.0001)  cg2d: iter=   125 ; resid.=  3.41256294617752E-12
(PID.TID 0000.0001)  cg2d: iter=   126 ; resid.=  2.45381699942394E-12
(PID.TID 0000.0001)  cg2d: iter=   127 ; resid.=  1.60409104391341E-12
(PID.TID 0000.0001)  cg2d: iter=   128 ; resid.=  1.19849587679033E-12
(PID.TID 0000.0001)  cg2d: iter=   129 ; resid.=  9.01338781381523E-13
(PID.TID 0000.0001)  cg2d: iter=   130 ; resid.=  6.81061572285921E-13
(PID.TID 0000.0001)  cg2d: iter=   131 ; resid.=  5.15157967727975E-13
(PID.TID 0000.0001)  cg2d: iter=   132 ; resid.=  3.62468845429660E-13
(PID.TID 0000.0001)  cg2d: iter=   133 ; resid.=  2.68221381042489E-13
(PID.TID 0000.0001)  cg2d: iter=   134 ; resid.=  2.13599162969455E-13
(PID.TID 0000.0001)  cg2d: iter=   135 ; resid.=  1.53395429123948E-13
(PID.TID 0000.0001)  cg2d: iter=   136 ; resid.=  1.10408144928998E-13
(PID.TID 0000.0001)  cg2d: iter=   137 ; resid.=  8.80541345624352E-14
DEBUG_STATS_RL:    cg2d_x (SOLVE_FOR_PRESSURE)  min= -2.67361337352262E+01
DEBUG_STATS_RL:    cg2d_x (SOLVE_FOR_PRESSURE)  max=  1.15584178512968E+01
DEBUG_STATS_RL:    cg2d_x (SOLVE_FOR_PRESSURE) mean= -1.66462409226967E+00
DEBUG_STATS_RL:    cg2d_x (SOLVE_FOR_PRESSURE) S.D.=  6.95009447197453E+00
(PID.TID 0000.0001)      cg2d_init_res =   6.92027213150057E-01
(PID.TID 0000.0001)      cg2d_iters(min,last) =      -1     137
(PID.TID 0000.0001)      cg2d_last_res =   8.80541345624352E-14
(PID.TID 0000.0001) // =======================================================
(PID.TID 0000.0001) // Begin MONITOR dynamic field statistics
(PID.TID 0000.0001) // =======================================================
(PID.TID 0000.0001) %MON time_tsnumber                =                    17
(PID.TID 0000.0001) %MON time_secondsf                =   1.4688000000000E+06
(PID.TID 0000.0001) %MON dynstat_eta_max              =   1.1782281193983E+00
(PID.TID 0000.0001) %MON dynstat_eta_min              =  -2.7253958955379E+00
(PID.TID 0000.0001) %MON dynstat_eta_mean             =  -1.2119575532812E-03
(PID.TID 0000.0001) %MON dynstat_eta_sd               =   6.0669717926568E-01
(PID.TID 0000.0001) %MON dynstat_eta_del2             =   1.8111615880865E-03
(PID.TID 0000.0001) %MON dynstat_uvel_max             =   1.6939792964163E-01
(PID.TID 0000.0001) %MON dynstat_uvel_min             =  -1.1598872412552E-01
(PID.TID 0000.0001) %MON dynstat_uvel_mean            =  -2.8190152295048E-03
(PID.TID 0000.0001) %MON dynstat_uvel_sd              =   1.8990343929408E-02
(PID.TID 0000.0001) %MON dynstat_uvel_del2            =   1.0935896981463E-04
(PID.TID 0000.0001) %MON dynstat_vvel_max             =   1.3049046059663E-01
(PID.TID 0000.0001) %MON dynstat_vvel_min             =  -1.2928509189729E-01
(PID.TID 0000.0001) %MON dynstat_vvel_mean            =   2.6392514303401E-04
(PID.TID 0000.0001) %MON dynstat_vvel_sd              =   1.0594122360612E-02
(PID.TID 0000.0001) %MON dynstat_vvel_del2            =   9.6930857446394E-05
(PID.TID 0000.0001) %MON dynstat_wvel_max             =   2.4674970206859E-04
(PID.TID 0000.0001) %MON dynstat_wvel_min             =  -2.3115799794047E-04
(PID.TID 0000.0001) %MON dynstat_wvel_mean            =   1.8614459765921E-22
(PID.TID 0000.0001) %MON dynstat_wvel_sd              =   2.3625158142587E-05
(PID.TID 0000.0001) %MON dynstat_wvel_del2            =   2.6612178694659E-07
(PID.TID 0000.0001) %MON dynstat_theta_max            =   2.9843491071013E+01
(PID.TID 0000.0001) %MON dynstat_theta_min            =  -2.0224986723005E+00
(PID.TID 0000.0001) %MON dynstat_theta_mean           =   3.6398653810596E+00
(PID.TID 0000.0001) %MON dynstat_theta_sd             =   4.4154560464109E+00
(PID.TID 0000.0001) %MON dynstat_theta_del2           =   4.8903266331136E-03
(PID.TID 0000.0001) %MON dynstat_salt_max             =   3.7459005670801E+01
(PID.TID 0000.0001) %MON dynstat_salt_min             =   2.9750136663772E+01
(PID.TID 0000.0001) %MON dynstat_salt_mean            =   3.4737960383965E+01
(PID.TID 0000.0001) %MON dynstat_salt_sd              =   2.9624098835199E-01
(PID.TID 0000.0001) %MON dynstat_salt_del2            =   1.0124225952287E-03
(PID.TID 0000.0001) %MON dynstat_sst_max              =   2.9843491071013E+01
(PID.TID 0000.0001) %MON dynstat_sst_min              =  -2.0224986723005E+00
(PID.TID 0000.0001) %MON dynstat_sst_mean             =   1.8687391010068E+01
(PID.TID 0000.0001) %MON dynstat_sst_sd               =   9.0576731600838E+00
(PID.TID 0000.0001) %MON dynstat_sst_del2             =   2.6290607487139E-02
(PID.TID 0000.0001) %MON dynstat_sss_max              =   3.7449348875268E+01
(PID.TID 0000.0001) %MON dynstat_sss_min              =   2.9750136663772E+01
(PID.TID 0000.0001) %MON dynstat_sss_mean             =   3.4874306079748E+01
(PID.TID 0000.0001) %MON dynstat_sss_sd               =   9.7103198595775E-01
(PID.TID 0000.0001) %MON dynstat_sss_del2             =   7.9868927104575E-03
(PID.TID 0000.0001) %MON forcing_qnet_max             =   4.3829453023275E+02
(PID.TID 0000.0001) %MON forcing_qnet_min             =  -1.8026952260335E+02
(PID.TID 0000.0001) %MON forcing_qnet_mean            =  -1.6427616833641E+01
(PID.TID 0000.0001) %MON forcing_qnet_sd              =   1.0879423939526E+02
(PID.TID 0000.0001) %MON forcing_qnet_del2            =   1.0203667350774E+00
(PID.TID 0000.0001) %MON forcing_qsw_max              =   0.0000000000000E+00
(PID.TID 0000.0001) %MON forcing_qsw_min              =   0.0000000000000E+00
(PID.TID 0000.0001) %MON forcing_qsw_mean             =   0.0000000000000E+00
(PID.TID 0000.0001) %MON forcing_qsw_sd               =   0.0000000000000E+00
(PID.TID 0000.0001) %MON forcing_qsw_del2             =   0.0000000000000E+00
(PID.TID 0000.0001) %MON forcing_empmr_max            =   8.1860149236945E-05
(PID.TID 0000.0001) %MON forcing_empmr_min            =  -7.6235600469469E-05
(PID.TID 0000.0001) %MON forcing_empmr_mean           =   9.2361945937058E-07
(PID.TID 0000.0001) %MON forcing_empmr_sd             =   2.8746828928173E-05
(PID.TID 0000.0001) %MON forcing_empmr_del2           =   3.6633793428934E-07
(PID.TID 0000.0001) %MON forcing_fu_max               =   2.7858280539513E-01
(PID.TID 0000.0001) %MON forcing_fu_min               =  -1.6918717175722E-01
(PID.TID 0000.0001) %MON forcing_fu_mean              =   1.6056035368035E-02
(PID.TID 0000.0001) %MON forcing_fu_sd                =   9.0876058187851E-02
(PID.TID 0000.0001) %MON forcing_fu_del2              =   7.1713030175372E-04
(PID.TID 0000.0001) %MON forcing_fv_max               =   2.2991287360589E-01
(PID.TID 0000.0001) %MON forcing_fv_min               =  -1.7714560031891E-01
(PID.TID 0000.0001) %MON forcing_fv_mean              =  -5.3241586462203E-03
(PID.TID 0000.0001) %MON forcing_fv_sd                =   4.7928888739260E-02
(PID.TID 0000.0001) %MON forcing_fv_del2              =   4.9390753513588E-04
(PID.TID 0000.0001) %MON trAdv_CFL_u_max              =   5.3357685087704E-02
(PID.TID 0000.0001) %MON trAdv_CFL_v_max              =   2.5079979753100E-02
(PID.TID 0000.0001) %MON trAdv_CFL_w_max              =   6.2962976826132E-02
(PID.TID 0000.0001) %MON advcfl_uvel_max              =   6.0781540239892E-02
(PID.TID 0000.0001) %MON advcfl_vvel_max              =   2.5352203678548E-02
(PID.TID 0000.0001) %MON advcfl_wvel_max              =   5.5917207485898E-02
(PID.TID 0000.0001) %MON advcfl_W_hf_max              =   6.2931339917810E-02
(PID.TID 0000.0001) %MON pe_b_mean                    =   4.7100648290783E-04
(PID.TID 0000.0001) %MON ke_max                       =   1.4687696569705E-02
(PID.TID 0000.0001) %MON ke_mean                      =   2.1787015172119E-04
(PID.TID 0000.0001) %MON ke_vol                       =   1.3226782436723E+18
(PID.TID 0000.0001) %MON vort_r_min                   =  -5.1628125565133E-07
(PID.TID 0000.0001) %MON vort_r_max                   =   7.9042520447430E-07
(PID.TID 0000.0001) %MON vort_a_mean                  =  -2.5274807672161E-05
(PID.TID 0000.0001) %MON vort_a_sd                    =   7.3604021353219E-05
(PID.TID 0000.0001) %MON vort_p_mean                  =  -3.1845656145600E-05
(PID.TID 0000.0001) %MON vort_p_sd                    =   1.3162117765367E-04
(PID.TID 0000.0001) %MON surfExpan_theta_mean         =  -5.1123909688319E-07
(PID.TID 0000.0001) %MON surfExpan_salt_mean          =   1.4328124922592E-07
(PID.TID 0000.0001) // =======================================================
(PID.TID 0000.0001) // End MONITOR dynamic field statistics
(PID.TID 0000.0001) // =======================================================
 EXTERNAL_FIELDS_LOAD,        17 : iP,iLd,i0,i1=    1    2    1    2 ; Wght=  0.9333333333  0.0666666667
 EXTERNAL_FIELDS_LOAD: (fu0,1),fu,fv= -3.5633E-02 -1.4435E-02 -3.4220E-02 -5.4615E-02
 EXTERNAL_FIELDS_LOAD: SST,SSS,Q,E-P=  8.5907E-01  3.4695E+01  2.6408E+02  1.1419E-05
DEBUG_STATS_RL:          Uvel (THERMODYNAMICS)  min= -1.15988724125525E-01
DEBUG_STATS_RL:          Uvel (THERMODYNAMICS)  max=  1.69397929641633E-01
DEBUG_STATS_RL:          Uvel (THERMODYNAMICS) mean=  8.16025973554721E-04
DEBUG_STATS_RL:          Uvel (THERMODYNAMICS) S.D.=  2.53823664097281E-02
DEBUG_STATS_RL:          Vvel (THERMODYNAMICS)  min= -1.29285091897285E-01
DEBUG_STATS_RL:          Vvel (THERMODYNAMICS)  max=  1.30490460596633E-01
DEBUG_STATS_RL:          Vvel (THERMODYNAMICS) mean=  1.54428496250018E-03
DEBUG_STATS_RL:          Vvel (THERMODYNAMICS) S.D.=  1.62210818172109E-02
DEBUG_STATS_RL:          Wvel (THERMODYNAMICS)  min= -2.31157997940468E-04
DEBUG_STATS_RL:          Wvel (THERMODYNAMICS)  max=  2.46749702068588E-04
DEBUG_STATS_RL:          Wvel (THERMODYNAMICS) mean=  2.32678386716329E-07
DEBUG_STATS_RL:          Wvel (THERMODYNAMICS) S.D.=  2.12453262397529E-05
DEBUG_STATS_RL:         Theta (THERMODYNAMICS)  min= -2.02069070073358E+00
DEBUG_STATS_RL:         Theta (THERMODYNAMICS)  max=  2.98445498038928E+01
DEBUG_STATS_RL:         Theta (THERMODYNAMICS) mean=  3.22833737593663E+00
DEBUG_STATS_RL:         Theta (THERMODYNAMICS) S.D.=  5.85600367536761E+00
DEBUG_STATS_RL:          Salt (THERMODYNAMICS)  min=  2.00000000000000E-02
DEBUG_STATS_RL:          Salt (THERMODYNAMICS)  max=  3.74596785494086E+01
DEBUG_STATS_RL:          Salt (THERMODYNAMICS) mean=  1.88651789805964E+01
DEBUG_STATS_RL:          Salt (THERMODYNAMICS) S.D.=  1.73006621396765E+01
DEBUG_STATS_RL:         GtNm1 (THERMODYNAMICS)  min= -3.63467972302878E-06
DEBUG_STATS_RL:         GtNm1 (THERMODYNAMICS)  max=  2.91037742179198E-06
DEBUG_STATS_RL:         GtNm1 (THERMODYNAMICS) mean=  7.50698309261232E-09
DEBUG_STATS_RL:         GtNm1 (THERMODYNAMICS) S.D.=  2.43696116136395E-07
DEBUG_STATS_RL:         GsNm1 (THERMODYNAMICS)  min= -9.15026247074512E-07
DEBUG_STATS_RL:         GsNm1 (THERMODYNAMICS)  max=  7.97591252123466E-07
DEBUG_STATS_RL:         GsNm1 (THERMODYNAMICS) mean= -6.12927378386218E-11
DEBUG_STATS_RL:         GsNm1 (THERMODYNAMICS) S.D.=  2.19794975000560E-08
DEBUG_STATS_RL:                EtaN (DYNAMICS)  min= -2.72539589553785E+00
DEBUG_STATS_RL:                EtaN (DYNAMICS)  max=  1.17822811939827E+00
DEBUG_STATS_RL:                EtaN (DYNAMICS) mean= -1.69686451811385E-01
DEBUG_STATS_RL:                EtaN (DYNAMICS) S.D.=  7.08470384503010E-01
DEBUG_STATS_RL:                Uvel (DYNAMICS)  min= -1.15988724125525E-01
DEBUG_STATS_RL:                Uvel (DYNAMICS)  max=  1.69397929641633E-01
DEBUG_STATS_RL:                Uvel (DYNAMICS) mean=  8.16025973554721E-04
DEBUG_STATS_RL:                Uvel (DYNAMICS) S.D.=  2.53823664097281E-02
DEBUG_STATS_RL:                Vvel (DYNAMICS)  min= -1.29285091897285E-01
DEBUG_STATS_RL:                Vvel (DYNAMICS)  max=  1.30490460596633E-01
DEBUG_STATS_RL:                Vvel (DYNAMICS) mean=  1.54428496250018E-03
DEBUG_STATS_RL:                Vvel (DYNAMICS) S.D.=  1.62210818172109E-02
DEBUG_STATS_RL:                Wvel (DYNAMICS)  min= -2.31157997940468E-04
DEBUG_STATS_RL:                Wvel (DYNAMICS)  max=  2.46749702068588E-04
DEBUG_STATS_RL:                Wvel (DYNAMICS) mean=  2.32678386716329E-07
DEBUG_STATS_RL:                Wvel (DYNAMICS) S.D.=  2.12453262397529E-05
DEBUG_STATS_RL:               Theta (DYNAMICS)  min= -2.02069070073358E+00
DEBUG_STATS_RL:               Theta (DYNAMICS)  max=  2.98445498038928E+01
DEBUG_STATS_RL:               Theta (DYNAMICS) mean=  3.22833737593663E+00
DEBUG_STATS_RL:               Theta (DYNAMICS) S.D.=  5.85600367536761E+00
DEBUG_STATS_RL:                Salt (DYNAMICS)  min=  2.00000000000000E-02
DEBUG_STATS_RL:                Salt (DYNAMICS)  max=  3.74596785494086E+01
DEBUG_STATS_RL:                Salt (DYNAMICS) mean=  1.88651789805964E+01
DEBUG_STATS_RL:                Salt (DYNAMICS) S.D.=  1.73006621396765E+01
DEBUG_STATS_RL:                  Gu (DYNAMICS)  min= -1.25377196474858E-01
DEBUG_STATS_RL:                  Gu (DYNAMICS)  max=  1.66064391375044E-01
DEBUG_STATS_RL:                  Gu (DYNAMICS) mean= -5.00878923122304E-05
DEBUG_STATS_RL:                  Gu (DYNAMICS) S.D.=  2.51972402670317E-02
DEBUG_STATS_RL:                  Gv (DYNAMICS)  min= -1.25652146083798E-01
DEBUG_STATS_RL:                  Gv (DYNAMICS)  max=  1.32016924691089E-01
DEBUG_STATS_RL:                  Gv (DYNAMICS) mean=  3.13993378423645E-03
DEBUG_STATS_RL:                  Gv (DYNAMICS) S.D.=  1.80794836848662E-02
DEBUG_STATS_RL:               GuNm1 (DYNAMICS)  min= -6.57083193234168E-06
DEBUG_STATS_RL:               GuNm1 (DYNAMICS)  max=  7.84698093492829E-06
DEBUG_STATS_RL:               GuNm1 (DYNAMICS) mean= -1.72830443918271E-08
DEBUG_STATS_RL:               GuNm1 (DYNAMICS) S.D.=  1.12121269891960E-06
DEBUG_STATS_RL:               GvNm1 (DYNAMICS)  min= -8.47235955053117E-06
DEBUG_STATS_RL:               GvNm1 (DYNAMICS)  max=  1.69418035710830E-05
DEBUG_STATS_RL:               GvNm1 (DYNAMICS) mean=  7.71209406279434E-07
DEBUG_STATS_RL:               GvNm1 (DYNAMICS) S.D.=  2.57809165610900E-06
DEBUG_STATS_RL:               GtNm1 (DYNAMICS)  min= -3.63467972302878E-06
DEBUG_STATS_RL:               GtNm1 (DYNAMICS)  max=  2.91037742179198E-06
DEBUG_STATS_RL:               GtNm1 (DYNAMICS) mean=  7.50698309261232E-09
DEBUG_STATS_RL:               GtNm1 (DYNAMICS) S.D.=  2.43696116136395E-07
DEBUG_STATS_RL:               GsNm1 (DYNAMICS)  min= -9.15026247074512E-07
DEBUG_STATS_RL:               GsNm1 (DYNAMICS)  max=  7.97591252123466E-07
DEBUG_STATS_RL:               GsNm1 (DYNAMICS) mean= -6.12927378386218E-11
DEBUG_STATS_RL:               GsNm1 (DYNAMICS) S.D.=  2.19794975000560E-08
DEBUG_STATS_RL:    cg2d_b (SOLVE_FOR_PRESSURE)  min= -1.96473329905700E+04
DEBUG_STATS_RL:    cg2d_b (SOLVE_FOR_PRESSURE)  max=  1.58987868130140E+04
DEBUG_STATS_RL:    cg2d_b (SOLVE_FOR_PRESSURE) mean=  1.23552454698377E+00
DEBUG_STATS_RL:    cg2d_b (SOLVE_FOR_PRESSURE) S.D.=  3.41759334267900E+03
 cg2d: Sum(rhs),rhsMax =   1.45579012054206E-01  1.29048943509516E+00
(PID.TID 0000.0001)  cg2d: iter=     1 ; resid.=  4.73827022372919E-01
(PID.TID 0000.0001)  cg2d: iter=     2 ; resid.=  4.47271856769947E-01
(PID.TID 0000.0001)  cg2d: iter=     3 ; resid.=  3.73230095624932E-01
(PID.TID 0000.0001)  cg2d: iter=     4 ; resid.=  3.11814712882638E-01
(PID.TID 0000.0001)  cg2d: iter=     5 ; resid.=  2.79524518694267E-01
(PID.TID 0000.0001)  cg2d: iter=     6 ; resid.=  2.30836596645623E-01
(PID.TID 0000.0001)  cg2d: iter=     7 ; resid.=  2.26391604632040E-01
(PID.TID 0000.0001)  cg2d: iter=     8 ; resid.=  2.16069632911039E-01
(PID.TID 0000.0001)  cg2d: iter=     9 ; resid.=  2.00873203962947E-01
(PID.TID 0000.0001)  cg2d: iter=    10 ; resid.=  1.82868347984720E-01
(PID.TID 0000.0001)  cg2d: iter=    11 ; resid.=  1.35728578716896E-01
(PID.TID 0000.0001)  cg2d: iter=    12 ; resid.=  9.91936105420438E-02
(PID.TID 0000.0001)  cg2d: iter=    13 ; resid.=  7.20762586618771E-02
(PID.TID 0000.0001)  cg2d: iter=    14 ; resid.=  6.17642732857836E-02
(PID.TID 0000.0001)  cg2d: iter=    15 ; resid.=  4.92710292737026E-02
(PID.TID 0000.0001)  cg2d: iter=    16 ; resid.=  4.47971044428576E-02
(PID.TID 0000.0001)  cg2d: iter=    17 ; resid.=  4.19022089911449E-02
(PID.TID 0000.0001)  cg2d: iter=    18 ; resid.=  3.23773385621014E-02
(PID.TID 0000.0001)  cg2d: iter=    19 ; resid.=  2.25318935977375E-02
(PID.TID 0000.0001)  cg2d: iter=    20 ; resid.=  1.68386825979671E-02
(PID.TID 0000.0001)  cg2d: iter=    21 ; resid.=  1.40894283573159E-02
(PID.TID 0000.0001)  cg2d: iter=    22 ; resid.=  1.28939200515200E-02
(PID.TID 0000.0001)  cg2d: iter=    23 ; resid.=  1.14812743069549E-02
(PID.TID 0000.0001)  cg2d: iter=    24 ; resid.=  1.14989626151195E-02
(PID.TID 0000.0001)  cg2d: iter=    25 ; resid.=  8.73727190148764E-03
(PID.TID 0000.0001)  cg2d: iter=    26 ; resid.=  7.67757494005624E-03
(PID.TID 0000.0001)  cg2d: iter=    27 ; resid.=  6.58625431585739E-03
(PID.TID 0000.0001)  cg2d: iter=    28 ; resid.=  5.74100703183489E-03
(PID.TID 0000.0001)  cg2d: iter=    29 ; resid.=  4.54076744404205E-03
(PID.TID 0000.0001)  cg2d: iter=    30 ; resid.=  4.33124065407894E-03
(PID.TID 0000.0001)  cg2d: iter=    31 ; resid.=  3.89580257241345E-03
(PID.TID 0000.0001)  cg2d: iter=    32 ; resid.=  2.85747457298823E-03
(PID.TID 0000.0001)  cg2d: iter=    33 ; resid.=  2.51346825106393E-03
(PID.TID 0000.0001)  cg2d: iter=    34 ; resid.=  2.13878500580747E-03
(PID.TID 0000.0001)  cg2d: iter=    35 ; resid.=  1.58060727994679E-03
(PID.TID 0000.0001)  cg2d: iter=    36 ; resid.=  1.21733169632257E-03
(PID.TID 0000.0001)  cg2d: iter=    37 ; resid.=  9.50235776397829E-04
(PID.TID 0000.0001)  cg2d: iter=    38 ; resid.=  7.75167760493516E-04
(PID.TID 0000.0001)  cg2d: iter=    39 ; resid.=  6.75863075186457E-04
(PID.TID 0000.0001)  cg2d: iter=    40 ; resid.=  6.00732266765242E-04
(PID.TID 0000.0001)  cg2d: iter=    41 ; resid.=  4.91496911161094E-04
(PID.TID 0000.0001)  cg2d: iter=    42 ; resid.=  4.05273212353942E-04
(PID.TID 0000.0001)  cg2d: iter=    43 ; resid.=  3.09395772492161E-04
(PID.TID 0000.0001)  cg2d: iter=    44 ; resid.=  2.51707314207862E-04
(PID.TID 0000.0001)  cg2d: iter=    45 ; resid.=  1.96617594835654E-04
(PID.TID 0000.0001)  cg2d: iter=    46 ; resid.=  1.72357654115078E-04
(PID.TID 0000.0001)  cg2d: iter=    47 ; resid.=  1.49247232439948E-04
(PID.TID 0000.0001)  cg2d: iter=    48 ; resid.=  1.12339440800693E-04
(PID.TID 0000.0001)  cg2d: iter=    49 ; resid.=  8.79331784420064E-05
(PID.TID 0000.0001)  cg2d: iter=    50 ; resid.=  7.52346867884330E-05
(PID.TID 0000.0001)  cg2d: iter=    51 ; resid.=  6.12341054769122E-05
(PID.TID 0000.0001)  cg2d: iter=    52 ; resid.=  4.93492748588267E-05
(PID.TID 0000.0001)  cg2d: iter=    53 ; resid.=  4.33671456055651E-05
(PID.TID 0000.0001)  cg2d: iter=    54 ; resid.=  3.96038612771269E-05
(PID.TID 0000.0001)  cg2d: iter=    55 ; resid.=  3.49006001186734E-05
(PID.TID 0000.0001)  cg2d: iter=    56 ; resid.=  3.18000531005127E-05
(PID.TID 0000.0001)  cg2d: iter=    57 ; resid.=  2.60852610645241E-05
(PID.TID 0000.0001)  cg2d: iter=    58 ; resid.=  1.98993097921567E-05
(PID.TID 0000.0001)  cg2d: iter=    59 ; resid.=  1.60831837425346E-05
(PID.TID 0000.0001)  cg2d: iter=    60 ; resid.=  1.33673419855566E-05
(PID.TID 0000.0001)  cg2d: iter=    61 ; resid.=  1.10931471109274E-05
(PID.TID 0000.0001)  cg2d: iter=    62 ; resid.=  9.00613136518164E-06
(PID.TID 0000.0001)  cg2d: iter=    63 ; resid.=  7.77717204034041E-06
(PID.TID 0000.0001)  cg2d: iter=    64 ; resid.=  6.51303788803273E-06
(PID.TID 0000.0001)  cg2d: iter=    65 ; resid.=  4.91338576183640E-06
(PID.TID 0000.0001)  cg2d: iter=    66 ; resid.=  3.69349888447640E-06
(PID.TID 0000.0001)  cg2d: iter=    67 ; resid.=  2.99953447649364E-06
(PID.TID 0000.0001)  cg2d: iter=    68 ; resid.=  2.37538143391029E-06
(PID.TID 0000.0001)  cg2d: iter=    69 ; resid.=  1.92433561050969E-06
(PID.TID 0000.0001)  cg2d: iter=    70 ; resid.=  1.52588805931934E-06
(PID.TID 0000.0001)  cg2d: iter=    71 ; resid.=  1.13527419331314E-06
(PID.TID 0000.0001)  cg2d: iter=    72 ; resid.=  8.86856304546417E-07
(PID.TID 0000.0001)  cg2d: iter=    73 ; resid.=  7.08327070719276E-07
(PID.TID 0000.0001)  cg2d: iter=    74 ; resid.=  5.92834560061664E-07
(PID.TID 0000.0001)  cg2d: iter=    75 ; resid.=  4.75793385580467E-07
(PID.TID 0000.0001)  cg2d: iter=    76 ; resid.=  3.96655475037511E-07
(PID.TID 0000.0001)  cg2d: iter=    77 ; resid.=  3.40039894121519E-07
(PID.TID 0000.0001)  cg2d: iter=    78 ; resid.=  2.80523751023496E-07
(PID.TID 0000.0001)  cg2d: iter=    79 ; resid.=  2.25910567172736E-07
(PID.TID 0000.0001)  cg2d: iter=    80 ; resid.=  1.81402620405976E-07
(PID.TID 0000.0001)  cg2d: iter=    81 ; resid.=  1.63827548902563E-07
(PID.TID 0000.0001)  cg2d: iter=    82 ; resid.=  1.27900823772522E-07
(PID.TID 0000.0001)  cg2d: iter=    83 ; resid.=  1.01268078850339E-07
(PID.TID 0000.0001)  cg2d: iter=    84 ; resid.=  7.46965152244756E-08
(PID.TID 0000.0001)  cg2d: iter=    85 ; resid.=  6.11086081799921E-08
(PID.TID 0000.0001)  cg2d: iter=    86 ; resid.=  5.04224680170220E-08
(PID.TID 0000.0001)  cg2d: iter=    87 ; resid.=  4.08583107464638E-08
(PID.TID 0000.0001)  cg2d: iter=    88 ; resid.=  3.05862729926026E-08
(PID.TID 0000.0001)  cg2d: iter=    89 ; resid.=  2.44802130416407E-08
(PID.TID 0000.0001)  cg2d: iter=    90 ; resid.=  1.99293009424254E-08
(PID.TID 0000.0001)  cg2d: iter=    91 ; resid.=  1.60501551511538E-08
(PID.TID 0000.0001)  cg2d: iter=    92 ; resid.=  1.18135049012740E-08
(PID.TID 0000.0001)  cg2d: iter=    93 ; resid.=  8.44563637008430E-09
(PID.TID 0000.0001)  cg2d: iter=    94 ; resid.=  7.00837226525682E-09
(PID.TID 0000.0001)  cg2d: iter=    95 ; resid.=  5.76927015024125E-09
(PID.TID 0000.0001)  cg2d: iter=    96 ; resid.=  4.35488612797572E-09
(PID.TID 0000.0001)  cg2d: iter=    97 ; resid.=  3.02454609694414E-09
(PID.TID 0000.0001)  cg2d: iter=    98 ; resid.=  2.16873723087072E-09
(PID.TID 0000.0001)  cg2d: iter=    99 ; resid.=  1.55040333036251E-09
(PID.TID 0000.0001)  cg2d: iter=   100 ; resid.=  1.20203512023646E-09
(PID.TID 0000.0001)  cg2d: iter=   101 ; resid.=  9.70419152870232E-10
(PID.TID 0000.0001)  cg2d: iter=   102 ; resid.=  7.88206180633787E-10
(PID.TID 0000.0001)  cg2d: iter=   103 ; resid.=  6.20663792895498E-10
(PID.TID 0000.0001)  cg2d: iter=   104 ; resid.=  4.76366823762358E-10
(PID.TID 0000.0001)  cg2d: iter=   105 ; resid.=  3.90464197531022E-10
(PID.TID 0000.0001)  cg2d: iter=   106 ; resid.=  3.31867835738135E-10
(PID.TID 0000.0001)  cg2d: iter=   107 ; resid.=  2.59269123695957E-10
(PID.TID 0000.0001)  cg2d: iter=   108 ; resid.=  2.21750120891246E-10
(PID.TID 0000.0001)  cg2d: iter=   109 ; resid.=  1.89413534735209E-10
(PID.TID 0000.0001)  cg2d: iter=   110 ; resid.=  1.67074779315658E-10
(PID.TID 0000.0001)  cg2d: iter=   111 ; resid.=  1.44590970385604E-10
(PID.TID 0000.0001)  cg2d: iter=   112 ; resid.=  1.11758222421098E-10
(PID.TID 0000.0001)  cg2d: iter=   113 ; resid.=  8.04595823323168E-11
(PID.TID 0000.0001)  cg2d: iter=   114 ; resid.=  5.81943516241299E-11
(PID.TID 0000.0001)  cg2d: iter=   115 ; resid.=  4.30931516699414E-11
(PID.TID 0000.0001)  cg2d: iter=   116 ; resid.=  3.38703338455165E-11
(PID.TID 0000.0001)  cg2d: iter=   117 ; resid.=  2.99137715704168E-11
(PID.TID 0000.0001)  cg2d: iter=   118 ; resid.=  2.56646063872175E-11
(PID.TID 0000.0001)  cg2d: iter=   119 ; resid.=  1.99149110696825E-11
(PID.TID 0000.0001)  cg2d: iter=   120 ; resid.=  1.65827988157960E-11
(PID.TID 0000.0001)  cg2d: iter=   121 ; resid.=  1.38936914920070E-11
(PID.TID 0000.0001)  cg2d: iter=   122 ; resid.=  1.03318420913234E-11
(PID.TID 0000.0001)  cg2d: iter=   123 ; resid.=  7.38552168126324E-12
(PID.TID 0000.0001)  cg2d: iter=   124 ; resid.=  5.11592850842085E-12
(PID.TID 0000.0001)  cg2d: iter=   125 ; resid.=  3.51688956008826E-12
(PID.TID 0000.0001)  cg2d: iter=   126 ; resid.=  2.46303245465010E-12
(PID.TID 0000.0001)  cg2d: iter=   127 ; resid.=  1.63875339871748E-12
(PID.TID 0000.0001)  cg2d: iter=   128 ; resid.=  1.22754503993011E-12
(PID.TID 0000.0001)  cg2d: iter=   129 ; resid.=  9.36438895561258E-13
(PID.TID 0000.0001)  cg2d: iter=   130 ; resid.=  7.02601468894838E-13
(PID.TID 0000.0001)  cg2d: iter=   131 ; resid.=  5.16201877896747E-13
(PID.TID 0000.0001)  cg2d: iter=   132 ; resid.=  3.49985353741192E-13
(PID.TID 0000.0001)  cg2d: iter=   133 ; resid.=  2.52293630509415E-13
(PID.TID 0000.0001)  cg2d: iter=   134 ; resid.=  2.05787765569491E-13
(PID.TID 0000.0001)  cg2d: iter=   135 ; resid.=  1.50880811054515E-13
(PID.TID 0000.0001)  cg2d: iter=   136 ; resid.=  1.05697332323286E-13
(PID.TID 0000.0001)  cg2d: iter=   137 ; resid.=  8.28234267319719E-14
DEBUG_STATS_RL:    cg2d_x (SOLVE_FOR_PRESSURE)  min= -2.30402093006252E+01
DEBUG_STATS_RL:    cg2d_x (SOLVE_FOR_PRESSURE)  max=  1.18261826893494E+01
DEBUG_STATS_RL:    cg2d_x (SOLVE_FOR_PRESSURE) mean= -1.60011565212934E+00
DEBUG_STATS_RL:    cg2d_x (SOLVE_FOR_PRESSURE) S.D.=  6.59644142728099E+00
(PID.TID 0000.0001)      cg2d_init_res =   6.56361075041356E-01
(PID.TID 0000.0001)      cg2d_iters(min,last) =      -1     137
(PID.TID 0000.0001)      cg2d_last_res =   8.28234267319719E-14
(PID.TID 0000.0001) // =======================================================
(PID.TID 0000.0001) // Begin MONITOR dynamic field statistics
(PID.TID 0000.0001) // =======================================================
(PID.TID 0000.0001) %MON time_tsnumber                =                    18
(PID.TID 0000.0001) %MON time_secondsf                =   1.5552000000000E+06
(PID.TID 0000.0001) %MON dynstat_eta_max              =   1.2055232099235E+00
(PID.TID 0000.0001) %MON dynstat_eta_min              =  -2.3486451886470E+00
(PID.TID 0000.0001) %MON dynstat_eta_mean             =  -1.2891166647909E-03
(PID.TID 0000.0001) %MON dynstat_eta_sd               =   5.9021093614729E-01
(PID.TID 0000.0001) %MON dynstat_eta_del2             =   1.8227889008292E-03
(PID.TID 0000.0001) %MON dynstat_uvel_max             =   1.6699450460116E-01
(PID.TID 0000.0001) %MON dynstat_uvel_min             =  -1.2346547071697E-01
(PID.TID 0000.0001) %MON dynstat_uvel_mean            =  -3.0304155823133E-03
(PID.TID 0000.0001) %MON dynstat_uvel_sd              =   1.8767083286344E-02
(PID.TID 0000.0001) %MON dynstat_uvel_del2            =   1.0787226358953E-04
(PID.TID 0000.0001) %MON dynstat_vvel_max             =   1.3285041701568E-01
(PID.TID 0000.0001) %MON dynstat_vvel_min             =  -1.2980165016809E-01
(PID.TID 0000.0001) %MON dynstat_vvel_mean            =   5.1310531024247E-04
(PID.TID 0000.0001) %MON dynstat_vvel_sd              =   1.0780924996658E-02
(PID.TID 0000.0001) %MON dynstat_vvel_del2            =   9.7946064228227E-05
(PID.TID 0000.0001) %MON dynstat_wvel_max             =   2.3189948847250E-04
(PID.TID 0000.0001) %MON dynstat_wvel_min             =  -2.2596602573690E-04
(PID.TID 0000.0001) %MON dynstat_wvel_mean            =   6.0891796024372E-23
(PID.TID 0000.0001) %MON dynstat_wvel_sd              =   2.3526361472643E-05
(PID.TID 0000.0001) %MON dynstat_wvel_del2            =   2.6519308486386E-07
(PID.TID 0000.0001) %MON dynstat_theta_max            =   2.9844549803893E+01
(PID.TID 0000.0001) %MON dynstat_theta_min            =  -2.0206907007336E+00
(PID.TID 0000.0001) %MON dynstat_theta_mean           =   3.6399614439860E+00
(PID.TID 0000.0001) %MON dynstat_theta_sd             =   4.4155739088886E+00
(PID.TID 0000.0001) %MON dynstat_theta_del2           =   4.8804744596413E-03
(PID.TID 0000.0001) %MON dynstat_salt_max             =   3.7459678549409E+01
(PID.TID 0000.0001) %MON dynstat_salt_min             =   2.9755644115216E+01
(PID.TID 0000.0001) %MON dynstat_salt_mean            =   3.4737957944062E+01
(PID.TID 0000.0001) %MON dynstat_salt_sd              =   2.9624215382713E-01
(PID.TID 0000.0001) %MON dynstat_salt_del2            =   1.0123826578238E-03
(PID.TID 0000.0001) %MON dynstat_sst_max              =   2.9844549803893E+01
(PID.TID 0000.0001) %MON dynstat_sst_min              =  -2.0206907007336E+00
(PID.TID 0000.0001) %MON dynstat_sst_mean             =   1.8693398386587E+01
(PID.TID 0000.0001) %MON dynstat_sst_sd               =   9.0572787132895E+00
(PID.TID 0000.0001) %MON dynstat_sst_del2             =   2.6322870282987E-02
(PID.TID 0000.0001) %MON dynstat_sss_max              =   3.7449426915275E+01
(PID.TID 0000.0001) %MON dynstat_sss_min              =   2.9755644115216E+01
(PID.TID 0000.0001) %MON dynstat_sss_mean             =   3.4873914814184E+01
(PID.TID 0000.0001) %MON dynstat_sss_sd               =   9.7145888667759E-01
(PID.TID 0000.0001) %MON dynstat_sss_del2             =   7.9855713744088E-03
(PID.TID 0000.0001) %MON forcing_qnet_max             =   4.3497544352214E+02
(PID.TID 0000.0001) %MON forcing_qnet_min             =  -1.7954050801595E+02
(PID.TID 0000.0001) %MON forcing_qnet_mean            =  -1.6342707666237E+01
(PID.TID 0000.0001) %MON forcing_qnet_sd              =   1.0771909522073E+02
(PID.TID 0000.0001) %MON forcing_qnet_del2            =   1.0162694266512E+00
(PID.TID 0000.0001) %MON forcing_qsw_max              =   0.0000000000000E+00
(PID.TID 0000.0001) %MON forcing_qsw_min              =   0.0000000000000E+00
(PID.TID 0000.0001) %MON forcing_qsw_mean             =   0.0000000000000E+00
(PID.TID 0000.0001) %MON forcing_qsw_sd               =   0.0000000000000E+00
(PID.TID 0000.0001) %MON forcing_qsw_del2             =   0.0000000000000E+00
(PID.TID 0000.0001) %MON forcing_empmr_max            =   8.1546059504944E-05
(PID.TID 0000.0001) %MON forcing_empmr_min            =  -7.6315244731025E-05
(PID.TID 0000.0001) %MON forcing_empmr_mean           =   9.2430185663055E-07
(PID.TID 0000.0001) %MON forcing_empmr_sd             =   2.8695327910656E-05
(PID.TID 0000.0001) %MON forcing_empmr_del2           =   3.6515496809023E-07
(PID.TID 0000.0001) %MON forcing_fu_max               =   2.7838672995567E-01
(PID.TID 0000.0001) %MON forcing_fu_min               =  -1.6925448477268E-01
(PID.TID 0000.0001) %MON forcing_fu_mean              =   1.6110335583504E-02
(PID.TID 0000.0001) %MON forcing_fu_sd                =   9.0706822910468E-02
(PID.TID 0000.0001) %MON forcing_fu_del2              =   7.0993529997620E-04
(PID.TID 0000.0001) %MON forcing_fv_max               =   2.2670442660650E-01
(PID.TID 0000.0001) %MON forcing_fv_min               =  -1.7615430057049E-01
(PID.TID 0000.0001) %MON forcing_fv_mean              =  -5.3894195529355E-03
(PID.TID 0000.0001) %MON forcing_fv_sd                =   4.7622093142011E-02
(PID.TID 0000.0001) %MON forcing_fv_del2              =   4.8876213669100E-04
(PID.TID 0000.0001) %MON trAdv_CFL_u_max              =   6.0793885405432E-02
(PID.TID 0000.0001) %MON trAdv_CFL_v_max              =   2.5562550901768E-02
(PID.TID 0000.0001) %MON trAdv_CFL_w_max              =   6.2931339917810E-02
(PID.TID 0000.0001) %MON advcfl_uvel_max              =   6.4659684960630E-02
(PID.TID 0000.0001) %MON advcfl_vvel_max              =   2.5810705361618E-02
(PID.TID 0000.0001) %MON advcfl_wvel_max              =   5.8662616623275E-02
(PID.TID 0000.0001) %MON advcfl_W_hf_max              =   6.6381381968443E-02
(PID.TID 0000.0001) %MON pe_b_mean                    =   4.4575659442090E-04
(PID.TID 0000.0001) %MON ke_max                       =   1.4320975271795E-02
(PID.TID 0000.0001) %MON ke_mean                      =   2.1648170259322E-04
(PID.TID 0000.0001) %MON ke_vol                       =   1.3226782436723E+18
(PID.TID 0000.0001) %MON vort_r_min                   =  -5.6547514913347E-07
(PID.TID 0000.0001) %MON vort_r_max                   =   7.2695610655310E-07
(PID.TID 0000.0001) %MON vort_a_mean                  =  -2.5274807644187E-05
(PID.TID 0000.0001) %MON vort_a_sd                    =   7.3603952732178E-05
(PID.TID 0000.0001) %MON vort_p_mean                  =  -3.1845656110353E-05
(PID.TID 0000.0001) %MON vort_p_sd                    =   1.3162165642802E-04
(PID.TID 0000.0001) %MON surfExpan_theta_mean         =  -1.4920768625974E-07
(PID.TID 0000.0001) %MON surfExpan_salt_mean          =   1.6339399636110E-07
(PID.TID 0000.0001) // =======================================================
(PID.TID 0000.0001) // End MONITOR dynamic field statistics
(PID.TID 0000.0001) // =======================================================
 EXTERNAL_FIELDS_LOAD,        18 : iP,iLd,i0,i1=    1    2    1    2 ; Wght=  0.9000000000  0.1000000000
 EXTERNAL_FIELDS_LOAD: (fu0,1),fu,fv= -3.5633E-02 -1.4435E-02 -3.3513E-02 -5.3295E-02
 EXTERNAL_FIELDS_LOAD: SST,SSS,Q,E-P=  8.0940E-01  3.4685E+01  2.6324E+02  1.1311E-05
DEBUG_STATS_RL:          Uvel (THERMODYNAMICS)  min= -1.23465470716967E-01
DEBUG_STATS_RL:          Uvel (THERMODYNAMICS)  max=  1.66994504601156E-01
DEBUG_STATS_RL:          Uvel (THERMODYNAMICS) mean=  4.51409351464137E-04
DEBUG_STATS_RL:          Uvel (THERMODYNAMICS) S.D.=  2.49006063358262E-02
DEBUG_STATS_RL:          Vvel (THERMODYNAMICS)  min= -1.29801650168088E-01
DEBUG_STATS_RL:          Vvel (THERMODYNAMICS)  max=  1.32850417015678E-01
DEBUG_STATS_RL:          Vvel (THERMODYNAMICS) mean=  2.00208693639885E-03
DEBUG_STATS_RL:          Vvel (THERMODYNAMICS) S.D.=  1.67029659534263E-02
DEBUG_STATS_RL:          Wvel (THERMODYNAMICS)  min= -2.25966025736897E-04
DEBUG_STATS_RL:          Wvel (THERMODYNAMICS)  max=  2.31899488472499E-04
DEBUG_STATS_RL:          Wvel (THERMODYNAMICS) mean=  2.93445780427240E-07
DEBUG_STATS_RL:          Wvel (THERMODYNAMICS) S.D.=  2.12098319762514E-05
DEBUG_STATS_RL:         Theta (THERMODYNAMICS)  min= -2.01845860200312E+00
DEBUG_STATS_RL:         Theta (THERMODYNAMICS)  max=  2.98483679368349E+01
DEBUG_STATS_RL:         Theta (THERMODYNAMICS) mean=  3.22849598350333E+00
DEBUG_STATS_RL:         Theta (THERMODYNAMICS) S.D.=  5.85635607912779E+00
DEBUG_STATS_RL:          Salt (THERMODYNAMICS)  min=  2.00000000000000E-02
DEBUG_STATS_RL:          Salt (THERMODYNAMICS)  max=  3.74603707825642E+01
DEBUG_STATS_RL:          Salt (THERMODYNAMICS) mean=  1.88651717062503E+01
DEBUG_STATS_RL:          Salt (THERMODYNAMICS) S.D.=  1.73006556699254E+01
DEBUG_STATS_RL:         GtNm1 (THERMODYNAMICS)  min= -3.84795528223462E-06
DEBUG_STATS_RL:         GtNm1 (THERMODYNAMICS)  max=  2.99332984933752E-06
DEBUG_STATS_RL:         GtNm1 (THERMODYNAMICS) mean=  5.22229041375215E-09
DEBUG_STATS_RL:         GtNm1 (THERMODYNAMICS) S.D.=  2.42318706604429E-07
DEBUG_STATS_RL:         GsNm1 (THERMODYNAMICS)  min= -9.63792370700015E-07
DEBUG_STATS_RL:         GsNm1 (THERMODYNAMICS)  max=  8.15628765313802E-07
DEBUG_STATS_RL:         GsNm1 (THERMODYNAMICS) mean= -1.61947634384608E-10
DEBUG_STATS_RL:         GsNm1 (THERMODYNAMICS) S.D.=  2.21638162904336E-08
DEBUG_STATS_RL:                EtaN (DYNAMICS)  min= -2.34864518864699E+00
DEBUG_STATS_RL:                EtaN (DYNAMICS)  max=  1.20552320992350E+00
DEBUG_STATS_RL:                EtaN (DYNAMICS) mean= -1.63110667903093E-01
DEBUG_STATS_RL:                EtaN (DYNAMICS) S.D.=  6.72420125105098E-01
DEBUG_STATS_RL:                Uvel (DYNAMICS)  min= -1.23465470716967E-01
DEBUG_STATS_RL:                Uvel (DYNAMICS)  max=  1.66994504601156E-01
DEBUG_STATS_RL:                Uvel (DYNAMICS) mean=  4.51409351464137E-04
DEBUG_STATS_RL:                Uvel (DYNAMICS) S.D.=  2.49006063358262E-02
DEBUG_STATS_RL:                Vvel (DYNAMICS)  min= -1.29801650168088E-01
DEBUG_STATS_RL:                Vvel (DYNAMICS)  max=  1.32850417015678E-01
DEBUG_STATS_RL:                Vvel (DYNAMICS) mean=  2.00208693639885E-03
DEBUG_STATS_RL:                Vvel (DYNAMICS) S.D.=  1.67029659534263E-02
DEBUG_STATS_RL:                Wvel (DYNAMICS)  min= -2.25966025736897E-04
DEBUG_STATS_RL:                Wvel (DYNAMICS)  max=  2.31899488472499E-04
DEBUG_STATS_RL:                Wvel (DYNAMICS) mean=  2.93445780427240E-07
DEBUG_STATS_RL:                Wvel (DYNAMICS) S.D.=  2.12098319762514E-05
DEBUG_STATS_RL:               Theta (DYNAMICS)  min= -2.01845860200312E+00
DEBUG_STATS_RL:               Theta (DYNAMICS)  max=  2.98483679368349E+01
DEBUG_STATS_RL:               Theta (DYNAMICS) mean=  3.22849598350333E+00
DEBUG_STATS_RL:               Theta (DYNAMICS) S.D.=  5.85635607912779E+00
DEBUG_STATS_RL:                Salt (DYNAMICS)  min=  2.00000000000000E-02
DEBUG_STATS_RL:                Salt (DYNAMICS)  max=  3.74603707825642E+01
DEBUG_STATS_RL:                Salt (DYNAMICS) mean=  1.88651717062503E+01
DEBUG_STATS_RL:                Salt (DYNAMICS) S.D.=  1.73006556699254E+01
DEBUG_STATS_RL:                  Gu (DYNAMICS)  min= -1.32708624781062E-01
DEBUG_STATS_RL:                  Gu (DYNAMICS)  max=  1.65615709533885E-01
DEBUG_STATS_RL:                  Gu (DYNAMICS) mean= -1.73563964103186E-04
DEBUG_STATS_RL:                  Gu (DYNAMICS) S.D.=  2.46472131600476E-02
DEBUG_STATS_RL:                  Gv (DYNAMICS)  min= -1.25839126910243E-01
DEBUG_STATS_RL:                  Gv (DYNAMICS)  max=  1.44671125082321E-01
DEBUG_STATS_RL:                  Gv (DYNAMICS) mean=  3.66218687620707E-03
DEBUG_STATS_RL:                  Gv (DYNAMICS) S.D.=  1.86781647788763E-02
DEBUG_STATS_RL:               GuNm1 (DYNAMICS)  min= -6.69581999130211E-06
DEBUG_STATS_RL:               GuNm1 (DYNAMICS)  max=  7.80712159736971E-06
DEBUG_STATS_RL:               GuNm1 (DYNAMICS) mean= -1.44512634250880E-08
DEBUG_STATS_RL:               GuNm1 (DYNAMICS) S.D.=  1.13009022988975E-06
DEBUG_STATS_RL:               GvNm1 (DYNAMICS)  min= -8.63540403412669E-06
DEBUG_STATS_RL:               GvNm1 (DYNAMICS)  max=  1.69758396002606E-05
DEBUG_STATS_RL:               GvNm1 (DYNAMICS) mean=  7.72050409030669E-07
DEBUG_STATS_RL:               GvNm1 (DYNAMICS) S.D.=  2.58269055021797E-06
DEBUG_STATS_RL:               GtNm1 (DYNAMICS)  min= -3.84795528223462E-06
DEBUG_STATS_RL:               GtNm1 (DYNAMICS)  max=  2.99332984933752E-06
DEBUG_STATS_RL:               GtNm1 (DYNAMICS) mean=  5.22229041375215E-09
DEBUG_STATS_RL:               GtNm1 (DYNAMICS) S.D.=  2.42318706604429E-07
DEBUG_STATS_RL:               GsNm1 (DYNAMICS)  min= -9.63792370700015E-07
DEBUG_STATS_RL:               GsNm1 (DYNAMICS)  max=  8.15628765313802E-07
DEBUG_STATS_RL:               GsNm1 (DYNAMICS) mean= -1.61947634384608E-10
DEBUG_STATS_RL:               GsNm1 (DYNAMICS) S.D.=  2.21638162904336E-08
DEBUG_STATS_RL:    cg2d_b (SOLVE_FOR_PRESSURE)  min= -2.06021722736306E+04
DEBUG_STATS_RL:    cg2d_b (SOLVE_FOR_PRESSURE)  max=  1.65984260379798E+04
DEBUG_STATS_RL:    cg2d_b (SOLVE_FOR_PRESSURE) mean=  1.30953053959187E+00
DEBUG_STATS_RL:    cg2d_b (SOLVE_FOR_PRESSURE) S.D.=  3.47185317522240E+03
 cg2d: Sum(rhs),rhsMax =   1.47147745339225E-01  1.35320583571782E+00
(PID.TID 0000.0001)  cg2d: iter=     1 ; resid.=  4.47216737840839E-01
(PID.TID 0000.0001)  cg2d: iter=     2 ; resid.=  4.20969629550591E-01
(PID.TID 0000.0001)  cg2d: iter=     3 ; resid.=  3.73930591443898E-01
(PID.TID 0000.0001)  cg2d: iter=     4 ; resid.=  3.38451859668333E-01
(PID.TID 0000.0001)  cg2d: iter=     5 ; resid.=  2.85274687034878E-01
(PID.TID 0000.0001)  cg2d: iter=     6 ; resid.=  2.32048901136500E-01
(PID.TID 0000.0001)  cg2d: iter=     7 ; resid.=  2.42382753551152E-01
(PID.TID 0000.0001)  cg2d: iter=     8 ; resid.=  2.25715555254127E-01
(PID.TID 0000.0001)  cg2d: iter=     9 ; resid.=  1.93784240947690E-01
(PID.TID 0000.0001)  cg2d: iter=    10 ; resid.=  1.71723092072301E-01
(PID.TID 0000.0001)  cg2d: iter=    11 ; resid.=  1.24755978911849E-01
(PID.TID 0000.0001)  cg2d: iter=    12 ; resid.=  8.93202576084941E-02
(PID.TID 0000.0001)  cg2d: iter=    13 ; resid.=  6.56337918372386E-02
(PID.TID 0000.0001)  cg2d: iter=    14 ; resid.=  6.08447281785441E-02
(PID.TID 0000.0001)  cg2d: iter=    15 ; resid.=  5.10200834749735E-02
(PID.TID 0000.0001)  cg2d: iter=    16 ; resid.=  4.67149156490117E-02
(PID.TID 0000.0001)  cg2d: iter=    17 ; resid.=  4.32649439861658E-02
(PID.TID 0000.0001)  cg2d: iter=    18 ; resid.=  3.30338168598127E-02
(PID.TID 0000.0001)  cg2d: iter=    19 ; resid.=  2.43763062900635E-02
(PID.TID 0000.0001)  cg2d: iter=    20 ; resid.=  1.97943360740133E-02
(PID.TID 0000.0001)  cg2d: iter=    21 ; resid.=  1.65848306674989E-02
(PID.TID 0000.0001)  cg2d: iter=    22 ; resid.=  1.50414933196951E-02
(PID.TID 0000.0001)  cg2d: iter=    23 ; resid.=  1.37963508353860E-02
(PID.TID 0000.0001)  cg2d: iter=    24 ; resid.=  1.30636164226782E-02
(PID.TID 0000.0001)  cg2d: iter=    25 ; resid.=  9.31325041056354E-03
(PID.TID 0000.0001)  cg2d: iter=    26 ; resid.=  7.95300174897229E-03
(PID.TID 0000.0001)  cg2d: iter=    27 ; resid.=  6.75073895272155E-03
(PID.TID 0000.0001)  cg2d: iter=    28 ; resid.=  5.87848106081423E-03
(PID.TID 0000.0001)  cg2d: iter=    29 ; resid.=  4.51946850002343E-03
(PID.TID 0000.0001)  cg2d: iter=    30 ; resid.=  4.20605751589987E-03
(PID.TID 0000.0001)  cg2d: iter=    31 ; resid.=  3.66814267825201E-03
(PID.TID 0000.0001)  cg2d: iter=    32 ; resid.=  2.79732935508754E-03
(PID.TID 0000.0001)  cg2d: iter=    33 ; resid.=  2.49023690627100E-03
(PID.TID 0000.0001)  cg2d: iter=    34 ; resid.=  2.14835984037852E-03
(PID.TID 0000.0001)  cg2d: iter=    35 ; resid.=  1.62826083304119E-03
(PID.TID 0000.0001)  cg2d: iter=    36 ; resid.=  1.28630588419282E-03
(PID.TID 0000.0001)  cg2d: iter=    37 ; resid.=  1.04027730789260E-03
(PID.TID 0000.0001)  cg2d: iter=    38 ; resid.=  8.97336472429248E-04
(PID.TID 0000.0001)  cg2d: iter=    39 ; resid.=  8.37739425677183E-04
(PID.TID 0000.0001)  cg2d: iter=    40 ; resid.=  7.52931027537403E-04
(PID.TID 0000.0001)  cg2d: iter=    41 ; resid.=  5.81103362683310E-04
(PID.TID 0000.0001)  cg2d: iter=    42 ; resid.=  4.55456354136891E-04
(PID.TID 0000.0001)  cg2d: iter=    43 ; resid.=  3.40242516691042E-04
(PID.TID 0000.0001)  cg2d: iter=    44 ; resid.=  2.66483983790152E-04
(PID.TID 0000.0001)  cg2d: iter=    45 ; resid.=  2.08605940168203E-04
(PID.TID 0000.0001)  cg2d: iter=    46 ; resid.=  1.82072934164616E-04
(PID.TID 0000.0001)  cg2d: iter=    47 ; resid.=  1.61502259103449E-04
(PID.TID 0000.0001)  cg2d: iter=    48 ; resid.=  1.22183258199845E-04
(PID.TID 0000.0001)  cg2d: iter=    49 ; resid.=  1.00856123618716E-04
(PID.TID 0000.0001)  cg2d: iter=    50 ; resid.=  8.84206169690954E-05
(PID.TID 0000.0001)  cg2d: iter=    51 ; resid.=  7.07609322577607E-05
(PID.TID 0000.0001)  cg2d: iter=    52 ; resid.=  5.58624228089470E-05
(PID.TID 0000.0001)  cg2d: iter=    53 ; resid.=  4.61133572572278E-05
(PID.TID 0000.0001)  cg2d: iter=    54 ; resid.=  3.94419503553467E-05
(PID.TID 0000.0001)  cg2d: iter=    55 ; resid.=  3.41046737213549E-05
(PID.TID 0000.0001)  cg2d: iter=    56 ; resid.=  2.92337277369153E-05
(PID.TID 0000.0001)  cg2d: iter=    57 ; resid.=  2.31272280696089E-05
(PID.TID 0000.0001)  cg2d: iter=    58 ; resid.=  1.76105524345877E-05
(PID.TID 0000.0001)  cg2d: iter=    59 ; resid.=  1.44982603569232E-05
(PID.TID 0000.0001)  cg2d: iter=    60 ; resid.=  1.22838710442159E-05
(PID.TID 0000.0001)  cg2d: iter=    61 ; resid.=  1.08426830275878E-05
(PID.TID 0000.0001)  cg2d: iter=    62 ; resid.=  9.12008521890026E-06
(PID.TID 0000.0001)  cg2d: iter=    63 ; resid.=  7.84410214367604E-06
(PID.TID 0000.0001)  cg2d: iter=    64 ; resid.=  6.41521469003098E-06
(PID.TID 0000.0001)  cg2d: iter=    65 ; resid.=  5.10148745085364E-06
(PID.TID 0000.0001)  cg2d: iter=    66 ; resid.=  4.09871868055071E-06
(PID.TID 0000.0001)  cg2d: iter=    67 ; resid.=  3.51261053086567E-06
(PID.TID 0000.0001)  cg2d: iter=    68 ; resid.=  2.82266544989456E-06
(PID.TID 0000.0001)  cg2d: iter=    69 ; resid.=  2.30379496279081E-06
(PID.TID 0000.0001)  cg2d: iter=    70 ; resid.=  1.83331588168978E-06
(PID.TID 0000.0001)  cg2d: iter=    71 ; resid.=  1.49327625175056E-06
(PID.TID 0000.0001)  cg2d: iter=    72 ; resid.=  1.32727547173422E-06
(PID.TID 0000.0001)  cg2d: iter=    73 ; resid.=  1.16565070958937E-06
(PID.TID 0000.0001)  cg2d: iter=    74 ; resid.=  1.02433945156930E-06
(PID.TID 0000.0001)  cg2d: iter=    75 ; resid.=  8.18958283996480E-07
(PID.TID 0000.0001)  cg2d: iter=    76 ; resid.=  6.58168508105218E-07
(PID.TID 0000.0001)  cg2d: iter=    77 ; resid.=  5.40728145831512E-07
(PID.TID 0000.0001)  cg2d: iter=    78 ; resid.=  4.40541924811211E-07
(PID.TID 0000.0001)  cg2d: iter=    79 ; resid.=  3.44530402701917E-07
(PID.TID 0000.0001)  cg2d: iter=    80 ; resid.=  2.41009924919000E-07
(PID.TID 0000.0001)  cg2d: iter=    81 ; resid.=  1.89161506408852E-07
(PID.TID 0000.0001)  cg2d: iter=    82 ; resid.=  1.39530953883327E-07
(PID.TID 0000.0001)  cg2d: iter=    83 ; resid.=  1.04299932804571E-07
(PID.TID 0000.0001)  cg2d: iter=    84 ; resid.=  7.96809357099725E-08
(PID.TID 0000.0001)  cg2d: iter=    85 ; resid.=  6.61857968879294E-08
(PID.TID 0000.0001)  cg2d: iter=    86 ; resid.=  5.44934023646826E-08
(PID.TID 0000.0001)  cg2d: iter=    87 ; resid.=  4.51254989549743E-08
(PID.TID 0000.0001)  cg2d: iter=    88 ; resid.=  3.32507066777671E-08
(PID.TID 0000.0001)  cg2d: iter=    89 ; resid.=  2.63333371524788E-08
(PID.TID 0000.0001)  cg2d: iter=    90 ; resid.=  2.07287876299670E-08
(PID.TID 0000.0001)  cg2d: iter=    91 ; resid.=  1.70487398585976E-08
(PID.TID 0000.0001)  cg2d: iter=    92 ; resid.=  1.24682352130381E-08
(PID.TID 0000.0001)  cg2d: iter=    93 ; resid.=  8.31030118255561E-09
(PID.TID 0000.0001)  cg2d: iter=    94 ; resid.=  6.78981243144327E-09
(PID.TID 0000.0001)  cg2d: iter=    95 ; resid.=  5.90913683064935E-09
(PID.TID 0000.0001)  cg2d: iter=    96 ; resid.=  4.72572949398205E-09
(PID.TID 0000.0001)  cg2d: iter=    97 ; resid.=  3.55404342582576E-09
(PID.TID 0000.0001)  cg2d: iter=    98 ; resid.=  2.77209822027819E-09
(PID.TID 0000.0001)  cg2d: iter=    99 ; resid.=  2.25138512378164E-09
(PID.TID 0000.0001)  cg2d: iter=   100 ; resid.=  1.94728213367911E-09
(PID.TID 0000.0001)  cg2d: iter=   101 ; resid.=  1.71978573134125E-09
(PID.TID 0000.0001)  cg2d: iter=   102 ; resid.=  1.49987519891280E-09
(PID.TID 0000.0001)  cg2d: iter=   103 ; resid.=  1.24972715398436E-09
(PID.TID 0000.0001)  cg2d: iter=   104 ; resid.=  9.62821147151942E-10
(PID.TID 0000.0001)  cg2d: iter=   105 ; resid.=  7.71214968548296E-10
(PID.TID 0000.0001)  cg2d: iter=   106 ; resid.=  6.29300205565613E-10
(PID.TID 0000.0001)  cg2d: iter=   107 ; resid.=  4.74438816775540E-10
(PID.TID 0000.0001)  cg2d: iter=   108 ; resid.=  3.76482604110682E-10
(PID.TID 0000.0001)  cg2d: iter=   109 ; resid.=  2.83373699444577E-10
(PID.TID 0000.0001)  cg2d: iter=   110 ; resid.=  2.23740804359933E-10
(PID.TID 0000.0001)  cg2d: iter=   111 ; resid.=  1.80344838261600E-10
(PID.TID 0000.0001)  cg2d: iter=   112 ; resid.=  1.30489509504586E-10
(PID.TID 0000.0001)  cg2d: iter=   113 ; resid.=  9.13155783868869E-11
(PID.TID 0000.0001)  cg2d: iter=   114 ; resid.=  6.58878196672728E-11
(PID.TID 0000.0001)  cg2d: iter=   115 ; resid.=  4.67025524895063E-11
(PID.TID 0000.0001)  cg2d: iter=   116 ; resid.=  3.47207149095625E-11
(PID.TID 0000.0001)  cg2d: iter=   117 ; resid.=  3.04848792388455E-11
(PID.TID 0000.0001)  cg2d: iter=   118 ; resid.=  2.58327824702699E-11
(PID.TID 0000.0001)  cg2d: iter=   119 ; resid.=  1.96216599117200E-11
(PID.TID 0000.0001)  cg2d: iter=   120 ; resid.=  1.53501987907328E-11
(PID.TID 0000.0001)  cg2d: iter=   121 ; resid.=  1.23936094384142E-11
(PID.TID 0000.0001)  cg2d: iter=   122 ; resid.=  9.26888798628508E-12
(PID.TID 0000.0001)  cg2d: iter=   123 ; resid.=  6.50604325818938E-12
(PID.TID 0000.0001)  cg2d: iter=   124 ; resid.=  4.54087854514061E-12
(PID.TID 0000.0001)  cg2d: iter=   125 ; resid.=  3.11186849482026E-12
(PID.TID 0000.0001)  cg2d: iter=   126 ; resid.=  2.22258797281132E-12
(PID.TID 0000.0001)  cg2d: iter=   127 ; resid.=  1.47144349788703E-12
(PID.TID 0000.0001)  cg2d: iter=   128 ; resid.=  1.02154430625677E-12
(PID.TID 0000.0001)  cg2d: iter=   129 ; resid.=  7.70171176733746E-13
(PID.TID 0000.0001)  cg2d: iter=   130 ; resid.=  5.82831086338293E-13
(PID.TID 0000.0001)  cg2d: iter=   131 ; resid.=  4.49072187592343E-13
(PID.TID 0000.0001)  cg2d: iter=   132 ; resid.=  3.12867729228039E-13
(PID.TID 0000.0001)  cg2d: iter=   133 ; resid.=  2.14789720221566E-13
(PID.TID 0000.0001)  cg2d: iter=   134 ; resid.=  1.66268475146727E-13
(PID.TID 0000.0001)  cg2d: iter=   135 ; resid.=  1.23365276796966E-13
(PID.TID 0000.0001)  cg2d: iter=   136 ; resid.=  8.33212366778090E-14
DEBUG_STATS_RL:    cg2d_x (SOLVE_FOR_PRESSURE)  min= -2.28913474552727E+01
DEBUG_STATS_RL:    cg2d_x (SOLVE_FOR_PRESSURE)  max=  1.19884216055197E+01
DEBUG_STATS_RL:    cg2d_x (SOLVE_FOR_PRESSURE) mean= -1.55540902796493E+00
DEBUG_STATS_RL:    cg2d_x (SOLVE_FOR_PRESSURE) S.D.=  6.39211490198655E+00
(PID.TID 0000.0001)      cg2d_init_res =   6.26819157664275E-01
(PID.TID 0000.0001)      cg2d_iters(min,last) =      -1     136
(PID.TID 0000.0001)      cg2d_last_res =   8.33212366778090E-14
(PID.TID 0000.0001) // =======================================================
(PID.TID 0000.0001) // Begin MONITOR dynamic field statistics
(PID.TID 0000.0001) // =======================================================
(PID.TID 0000.0001) %MON time_tsnumber                =                    19
(PID.TID 0000.0001) %MON time_secondsf                =   1.6416000000000E+06
(PID.TID 0000.0001) %MON dynstat_eta_max              =   1.2220613257411E+00
(PID.TID 0000.0001) %MON dynstat_eta_min              =  -2.3334706886112E+00
(PID.TID 0000.0001) %MON dynstat_eta_mean             =  -1.3663327416374E-03
(PID.TID 0000.0001) %MON dynstat_eta_sd               =   5.7782359358201E-01
(PID.TID 0000.0001) %MON dynstat_eta_del2             =   1.8463936022839E-03
(PID.TID 0000.0001) %MON dynstat_uvel_max             =   1.6591353784420E-01
(PID.TID 0000.0001) %MON dynstat_uvel_min             =  -1.3066288333277E-01
(PID.TID 0000.0001) %MON dynstat_uvel_mean            =  -3.0453503711358E-03
(PID.TID 0000.0001) %MON dynstat_uvel_sd              =   1.8402725145139E-02
(PID.TID 0000.0001) %MON dynstat_uvel_del2            =   1.0568733001183E-04
(PID.TID 0000.0001) %MON dynstat_vvel_max             =   1.3450125420023E-01
(PID.TID 0000.0001) %MON dynstat_vvel_min             =  -1.2948983319203E-01
(PID.TID 0000.0001) %MON dynstat_vvel_mean            =   6.8697636818367E-04
(PID.TID 0000.0001) %MON dynstat_vvel_sd              =   1.1005062199969E-02
(PID.TID 0000.0001) %MON dynstat_vvel_del2            =   9.8783357649993E-05
(PID.TID 0000.0001) %MON dynstat_wvel_max             =   2.1850297865952E-04
(PID.TID 0000.0001) %MON dynstat_wvel_min             =  -2.1487251868819E-04
(PID.TID 0000.0001) %MON dynstat_wvel_mean            =   4.7181250370895E-23
(PID.TID 0000.0001) %MON dynstat_wvel_sd              =   2.3206332659305E-05
(PID.TID 0000.0001) %MON dynstat_wvel_del2            =   2.6082905290167E-07
(PID.TID 0000.0001) %MON dynstat_theta_max            =   2.9848367936835E+01
(PID.TID 0000.0001) %MON dynstat_theta_min            =  -2.0184586020031E+00
(PID.TID 0000.0001) %MON dynstat_theta_mean           =   3.6400495160619E+00
(PID.TID 0000.0001) %MON dynstat_theta_sd             =   4.4156805978558E+00
(PID.TID 0000.0001) %MON dynstat_theta_del2           =   4.8734260932064E-03
(PID.TID 0000.0001) %MON dynstat_salt_max             =   3.7460370782564E+01
(PID.TID 0000.0001) %MON dynstat_salt_min             =   2.9764130234525E+01
(PID.TID 0000.0001) %MON dynstat_salt_mean            =   3.4737954963066E+01
(PID.TID 0000.0001) %MON dynstat_salt_sd              =   2.9623681728106E-01
(PID.TID 0000.0001) %MON dynstat_salt_del2            =   1.0121416116395E-03
(PID.TID 0000.0001) %MON dynstat_sst_max              =   2.9848367936835E+01
(PID.TID 0000.0001) %MON dynstat_sst_min              =  -2.0184586020031E+00
(PID.TID 0000.0001) %MON dynstat_sst_mean             =   1.8698739888686E+01
(PID.TID 0000.0001) %MON dynstat_sst_sd               =   9.0573795025772E+00
(PID.TID 0000.0001) %MON dynstat_sst_del2             =   2.6353259542280E-02
(PID.TID 0000.0001) %MON dynstat_sss_max              =   3.7449533501711E+01
(PID.TID 0000.0001) %MON dynstat_sss_min              =   2.9764130234525E+01
(PID.TID 0000.0001) %MON dynstat_sss_mean             =   3.4873441324159E+01
(PID.TID 0000.0001) %MON dynstat_sss_sd               =   9.7185752462251E-01
(PID.TID 0000.0001) %MON dynstat_sss_del2             =   7.9834912788685E-03
(PID.TID 0000.0001) %MON forcing_qnet_max             =   4.3165635681152E+02
(PID.TID 0000.0001) %MON forcing_qnet_min             =  -1.7930098876953E+02
(PID.TID 0000.0001) %MON forcing_qnet_mean            =  -1.6257798498834E+01
(PID.TID 0000.0001) %MON forcing_qnet_sd              =   1.0664755624532E+02
(PID.TID 0000.0001) %MON forcing_qnet_del2            =   1.0122795175581E+00
(PID.TID 0000.0001) %MON forcing_qsw_max              =   0.0000000000000E+00
(PID.TID 0000.0001) %MON forcing_qsw_min              =   0.0000000000000E+00
(PID.TID 0000.0001) %MON forcing_qsw_mean             =   0.0000000000000E+00
(PID.TID 0000.0001) %MON forcing_qsw_sd               =   0.0000000000000E+00
(PID.TID 0000.0001) %MON forcing_qsw_del2             =   0.0000000000000E+00
(PID.TID 0000.0001) %MON forcing_empmr_max            =   8.1231969772944E-05
(PID.TID 0000.0001) %MON forcing_empmr_min            =  -7.6394888992581E-05
(PID.TID 0000.0001) %MON forcing_empmr_mean           =   9.2498425389048E-07
(PID.TID 0000.0001) %MON forcing_empmr_sd             =   2.8645556443893E-05
(PID.TID 0000.0001) %MON forcing_empmr_del2           =   3.6402796723615E-07
(PID.TID 0000.0001) %MON forcing_fu_max               =   2.7819065451622E-01
(PID.TID 0000.0001) %MON forcing_fu_min               =  -1.7091440856457E-01
(PID.TID 0000.0001) %MON forcing_fu_mean              =   1.6164635798973E-02
(PID.TID 0000.0001) %MON forcing_fu_sd                =   9.0554740471920E-02
(PID.TID 0000.0001) %MON forcing_fu_del2              =   7.0326557516560E-04
(PID.TID 0000.0001) %MON forcing_fv_max               =   2.2349597960711E-01
(PID.TID 0000.0001) %MON forcing_fv_min               =  -1.7516300082207E-01
(PID.TID 0000.0001) %MON forcing_fv_mean              =  -5.4546804596506E-03
(PID.TID 0000.0001) %MON forcing_fv_sd                =   4.7328470565258E-02
(PID.TID 0000.0001) %MON forcing_fv_del2              =   4.8406077640453E-04
(PID.TID 0000.0001) %MON trAdv_CFL_u_max              =   6.4672817805100E-02
(PID.TID 0000.0001) %MON trAdv_CFL_v_max              =   2.6024856773109E-02
(PID.TID 0000.0001) %MON trAdv_CFL_w_max              =   6.6381381968443E-02
(PID.TID 0000.0001) %MON advcfl_uvel_max              =   5.9198911500945E-02
(PID.TID 0000.0001) %MON advcfl_vvel_max              =   2.6131436550331E-02
(PID.TID 0000.0001) %MON advcfl_wvel_max              =   5.8928236836221E-02
(PID.TID 0000.0001) %MON advcfl_W_hf_max              =   6.6681952209408E-02
(PID.TID 0000.0001) %MON pe_b_mean                    =   4.2724222712461E-04
(PID.TID 0000.0001) %MON ke_max                       =   1.4103373934812E-02
(PID.TID 0000.0001) %MON ke_mean                      =   2.1265597360839E-04
(PID.TID 0000.0001) %MON ke_vol                       =   1.3226782436723E+18
(PID.TID 0000.0001) %MON vort_r_min                   =  -5.2634808621388E-07
(PID.TID 0000.0001) %MON vort_r_max                   =   5.8770818409192E-07
(PID.TID 0000.0001) %MON vort_a_mean                  =  -2.5274807463916E-05
(PID.TID 0000.0001) %MON vort_a_sd                    =   7.3603919538613E-05
(PID.TID 0000.0001) %MON vort_p_mean                  =  -3.1845655883217E-05
(PID.TID 0000.0001) %MON vort_p_sd                    =   1.3162227999298E-04
(PID.TID 0000.0001) %MON surfExpan_theta_mean         =   4.9002019714099E-08
(PID.TID 0000.0001) %MON surfExpan_salt_mean          =   1.8281407179280E-07
(PID.TID 0000.0001) // =======================================================
(PID.TID 0000.0001) // End MONITOR dynamic field statistics
(PID.TID 0000.0001) // =======================================================
 EXTERNAL_FIELDS_LOAD,        19 : iP,iLd,i0,i1=    1    2    1    2 ; Wght=  0.8666666667  0.1333333333
 EXTERNAL_FIELDS_LOAD: (fu0,1),fu,fv= -3.5633E-02 -1.4435E-02 -3.2807E-02 -5.1974E-02
 EXTERNAL_FIELDS_LOAD: SST,SSS,Q,E-P=  7.5972E-01  3.4675E+01  2.6240E+02  1.1202E-05
DEBUG_STATS_RL:          Uvel (THERMODYNAMICS)  min= -1.30662883332766E-01
DEBUG_STATS_RL:          Uvel (THERMODYNAMICS)  max=  1.65913537844205E-01
DEBUG_STATS_RL:          Uvel (THERMODYNAMICS) mean=  2.47799740199775E-04
DEBUG_STATS_RL:          Uvel (THERMODYNAMICS) S.D.=  2.42601417063389E-02
DEBUG_STATS_RL:          Vvel (THERMODYNAMICS)  min= -1.29489833192030E-01
DEBUG_STATS_RL:          Vvel (THERMODYNAMICS)  max=  1.34501254200226E-01
DEBUG_STATS_RL:          Vvel (THERMODYNAMICS) mean=  2.32688540771203E-03
DEBUG_STATS_RL:          Vvel (THERMODYNAMICS) S.D.=  1.71539124238321E-02
DEBUG_STATS_RL:          Wvel (THERMODYNAMICS)  min= -2.14872518688187E-04
DEBUG_STATS_RL:          Wvel (THERMODYNAMICS)  max=  2.18502978659520E-04
DEBUG_STATS_RL:          Wvel (THERMODYNAMICS) mean=  3.41816280675238E-07
DEBUG_STATS_RL:          Wvel (THERMODYNAMICS) S.D.=  2.09539278557655E-05
DEBUG_STATS_RL:         Theta (THERMODYNAMICS)  min= -2.01605288637056E+00
DEBUG_STATS_RL:         Theta (THERMODYNAMICS)  max=  2.98544483816937E+01
DEBUG_STATS_RL:         Theta (THERMODYNAMICS) mean=  3.22857791325202E+00
DEBUG_STATS_RL:         Theta (THERMODYNAMICS) S.D.=  5.85664991494743E+00
DEBUG_STATS_RL:          Salt (THERMODYNAMICS)  min=  2.00000000000000E-02
DEBUG_STATS_RL:          Salt (THERMODYNAMICS)  max=  3.74610613298098E+01
DEBUG_STATS_RL:          Salt (THERMODYNAMICS) mean=  1.88651599684563E+01
DEBUG_STATS_RL:          Salt (THERMODYNAMICS) S.D.=  1.73006448714080E+01
DEBUG_STATS_RL:         GtNm1 (THERMODYNAMICS)  min= -4.05617561326647E-06
DEBUG_STATS_RL:         GtNm1 (THERMODYNAMICS)  max=  3.07919508259682E-06
DEBUG_STATS_RL:         GtNm1 (THERMODYNAMICS) mean=  3.35860888794137E-09
DEBUG_STATS_RL:         GtNm1 (THERMODYNAMICS) S.D.=  2.42128840065244E-07
DEBUG_STATS_RL:         GsNm1 (THERMODYNAMICS)  min= -1.01002812081754E-06
DEBUG_STATS_RL:         GsNm1 (THERMODYNAMICS)  max=  8.34399375253818E-07
DEBUG_STATS_RL:         GsNm1 (THERMODYNAMICS) mean= -2.56621536758913E-10
DEBUG_STATS_RL:         GsNm1 (THERMODYNAMICS) S.D.=  2.25700253629121E-08
DEBUG_STATS_RL:                EtaN (DYNAMICS)  min= -2.33347068861118E+00
DEBUG_STATS_RL:                EtaN (DYNAMICS)  max=  1.22206132574108E+00
DEBUG_STATS_RL:                EtaN (DYNAMICS) mean= -1.58553417733429E-01
DEBUG_STATS_RL:                EtaN (DYNAMICS) S.D.=  6.51591733128088E-01
DEBUG_STATS_RL:                Uvel (DYNAMICS)  min= -1.30662883332766E-01
DEBUG_STATS_RL:                Uvel (DYNAMICS)  max=  1.65913537844205E-01
DEBUG_STATS_RL:                Uvel (DYNAMICS) mean=  2.47799740199775E-04
DEBUG_STATS_RL:                Uvel (DYNAMICS) S.D.=  2.42601417063389E-02
DEBUG_STATS_RL:                Vvel (DYNAMICS)  min= -1.29489833192030E-01
DEBUG_STATS_RL:                Vvel (DYNAMICS)  max=  1.34501254200226E-01
DEBUG_STATS_RL:                Vvel (DYNAMICS) mean=  2.32688540771203E-03
DEBUG_STATS_RL:                Vvel (DYNAMICS) S.D.=  1.71539124238321E-02
DEBUG_STATS_RL:                Wvel (DYNAMICS)  min= -2.14872518688187E-04
DEBUG_STATS_RL:                Wvel (DYNAMICS)  max=  2.18502978659520E-04
DEBUG_STATS_RL:                Wvel (DYNAMICS) mean=  3.41816280675238E-07
DEBUG_STATS_RL:                Wvel (DYNAMICS) S.D.=  2.09539278557655E-05
DEBUG_STATS_RL:               Theta (DYNAMICS)  min= -2.01605288637056E+00
DEBUG_STATS_RL:               Theta (DYNAMICS)  max=  2.98544483816937E+01
DEBUG_STATS_RL:               Theta (DYNAMICS) mean=  3.22857791325202E+00
DEBUG_STATS_RL:               Theta (DYNAMICS) S.D.=  5.85664991494743E+00
DEBUG_STATS_RL:                Salt (DYNAMICS)  min=  2.00000000000000E-02
DEBUG_STATS_RL:                Salt (DYNAMICS)  max=  3.74610613298098E+01
DEBUG_STATS_RL:                Salt (DYNAMICS) mean=  1.88651599684563E+01
DEBUG_STATS_RL:                Salt (DYNAMICS) S.D.=  1.73006448714080E+01
DEBUG_STATS_RL:                  Gu (DYNAMICS)  min= -1.39546475619166E-01
DEBUG_STATS_RL:                  Gu (DYNAMICS)  max=  1.63121992149192E-01
DEBUG_STATS_RL:                  Gu (DYNAMICS) mean= -1.40635380646659E-04
DEBUG_STATS_RL:                  Gu (DYNAMICS) S.D.=  2.40122200230903E-02
DEBUG_STATS_RL:                  Gv (DYNAMICS)  min= -1.25222590926612E-01
DEBUG_STATS_RL:                  Gv (DYNAMICS)  max=  1.54252195734143E-01
DEBUG_STATS_RL:                  Gv (DYNAMICS) mean=  4.05146678561367E-03
DEBUG_STATS_RL:                  Gv (DYNAMICS) S.D.=  1.91429267445763E-02
DEBUG_STATS_RL:               GuNm1 (DYNAMICS)  min= -6.79489564749439E-06
DEBUG_STATS_RL:               GuNm1 (DYNAMICS)  max=  7.89400977924172E-06
DEBUG_STATS_RL:               GuNm1 (DYNAMICS) mean= -1.19525996288379E-08
DEBUG_STATS_RL:               GuNm1 (DYNAMICS) S.D.=  1.14025309623893E-06
DEBUG_STATS_RL:               GvNm1 (DYNAMICS)  min= -8.83747289084225E-06
DEBUG_STATS_RL:               GvNm1 (DYNAMICS)  max=  1.69985228582067E-05
DEBUG_STATS_RL:               GvNm1 (DYNAMICS) mean=  7.72975686995952E-07
DEBUG_STATS_RL:               GvNm1 (DYNAMICS) S.D.=  2.58908661116486E-06
DEBUG_STATS_RL:               GtNm1 (DYNAMICS)  min= -4.05617561326647E-06
DEBUG_STATS_RL:               GtNm1 (DYNAMICS)  max=  3.07919508259682E-06
DEBUG_STATS_RL:               GtNm1 (DYNAMICS) mean=  3.35860888794137E-09
DEBUG_STATS_RL:               GtNm1 (DYNAMICS) S.D.=  2.42128840065244E-07
DEBUG_STATS_RL:               GsNm1 (DYNAMICS)  min= -1.01002812081754E-06
DEBUG_STATS_RL:               GsNm1 (DYNAMICS)  max=  8.34399375253818E-07
DEBUG_STATS_RL:               GsNm1 (DYNAMICS) mean= -2.56621536758913E-10
DEBUG_STATS_RL:               GsNm1 (DYNAMICS) S.D.=  2.25700253629121E-08
DEBUG_STATS_RL:    cg2d_b (SOLVE_FOR_PRESSURE)  min= -2.15187453636848E+04
DEBUG_STATS_RL:    cg2d_b (SOLVE_FOR_PRESSURE)  max=  1.72794180635212E+04
DEBUG_STATS_RL:    cg2d_b (SOLVE_FOR_PRESSURE) mean=  1.38359112933173E+00
DEBUG_STATS_RL:    cg2d_b (SOLVE_FOR_PRESSURE) S.D.=  3.53275821485011E+03
 cg2d: Sum(rhs),rhsMax =   1.48847593587273E-01  1.41340881032894E+00
(PID.TID 0000.0001)  cg2d: iter=     1 ; resid.=  4.14574335349414E-01
(PID.TID 0000.0001)  cg2d: iter=     2 ; resid.=  3.81419421627144E-01
(PID.TID 0000.0001)  cg2d: iter=     3 ; resid.=  3.60455297893054E-01
(PID.TID 0000.0001)  cg2d: iter=     4 ; resid.=  3.52798716179039E-01
(PID.TID 0000.0001)  cg2d: iter=     5 ; resid.=  2.92015099182074E-01
(PID.TID 0000.0001)  cg2d: iter=     6 ; resid.=  2.27565540648040E-01
(PID.TID 0000.0001)  cg2d: iter=     7 ; resid.=  2.37170305824723E-01
(PID.TID 0000.0001)  cg2d: iter=     8 ; resid.=  2.10714301427226E-01
(PID.TID 0000.0001)  cg2d: iter=     9 ; resid.=  1.68646535188364E-01
(PID.TID 0000.0001)  cg2d: iter=    10 ; resid.=  1.45992748287075E-01
(PID.TID 0000.0001)  cg2d: iter=    11 ; resid.=  1.11571150719976E-01
(PID.TID 0000.0001)  cg2d: iter=    12 ; resid.=  8.20194113667725E-02
(PID.TID 0000.0001)  cg2d: iter=    13 ; resid.=  6.18661314603605E-02
(PID.TID 0000.0001)  cg2d: iter=    14 ; resid.=  5.84515025684838E-02
(PID.TID 0000.0001)  cg2d: iter=    15 ; resid.=  4.93127554972062E-02
(PID.TID 0000.0001)  cg2d: iter=    16 ; resid.=  4.61213429117018E-02
(PID.TID 0000.0001)  cg2d: iter=    17 ; resid.=  4.27320863940416E-02
(PID.TID 0000.0001)  cg2d: iter=    18 ; resid.=  3.23828315794454E-02
(PID.TID 0000.0001)  cg2d: iter=    19 ; resid.=  2.51559641079628E-02
(PID.TID 0000.0001)  cg2d: iter=    20 ; resid.=  2.17024022564439E-02
(PID.TID 0000.0001)  cg2d: iter=    21 ; resid.=  1.77635650569391E-02
(PID.TID 0000.0001)  cg2d: iter=    22 ; resid.=  1.53317456946528E-02
(PID.TID 0000.0001)  cg2d: iter=    23 ; resid.=  1.42783519754824E-02
(PID.TID 0000.0001)  cg2d: iter=    24 ; resid.=  1.30932988707392E-02
(PID.TID 0000.0001)  cg2d: iter=    25 ; resid.=  9.29743663048123E-03
(PID.TID 0000.0001)  cg2d: iter=    26 ; resid.=  7.66216325179691E-03
(PID.TID 0000.0001)  cg2d: iter=    27 ; resid.=  6.40054059047976E-03
(PID.TID 0000.0001)  cg2d: iter=    28 ; resid.=  5.55272530293039E-03
(PID.TID 0000.0001)  cg2d: iter=    29 ; resid.=  4.29507456809623E-03
(PID.TID 0000.0001)  cg2d: iter=    30 ; resid.=  3.93848352492021E-03
(PID.TID 0000.0001)  cg2d: iter=    31 ; resid.=  3.40091985104946E-03
(PID.TID 0000.0001)  cg2d: iter=    32 ; resid.=  2.72128588901846E-03
(PID.TID 0000.0001)  cg2d: iter=    33 ; resid.=  2.40674662598430E-03
(PID.TID 0000.0001)  cg2d: iter=    34 ; resid.=  2.03679963834087E-03
(PID.TID 0000.0001)  cg2d: iter=    35 ; resid.=  1.54724700614512E-03
(PID.TID 0000.0001)  cg2d: iter=    36 ; resid.=  1.24137614095063E-03
(PID.TID 0000.0001)  cg2d: iter=    37 ; resid.=  1.03134277560450E-03
(PID.TID 0000.0001)  cg2d: iter=    38 ; resid.=  9.07051190103159E-04
(PID.TID 0000.0001)  cg2d: iter=    39 ; resid.=  8.34421334227864E-04
(PID.TID 0000.0001)  cg2d: iter=    40 ; resid.=  7.26091950050077E-04
(PID.TID 0000.0001)  cg2d: iter=    41 ; resid.=  5.40942466849904E-04
(PID.TID 0000.0001)  cg2d: iter=    42 ; resid.=  4.29182725481615E-04
(PID.TID 0000.0001)  cg2d: iter=    43 ; resid.=  3.29352034007804E-04
(PID.TID 0000.0001)  cg2d: iter=    44 ; resid.=  2.55291630590835E-04
(PID.TID 0000.0001)  cg2d: iter=    45 ; resid.=  1.95417506745025E-04
(PID.TID 0000.0001)  cg2d: iter=    46 ; resid.=  1.65850782456196E-04
(PID.TID 0000.0001)  cg2d: iter=    47 ; resid.=  1.48957229290655E-04
(PID.TID 0000.0001)  cg2d: iter=    48 ; resid.=  1.18272813568039E-04
(PID.TID 0000.0001)  cg2d: iter=    49 ; resid.=  1.04195365265903E-04
(PID.TID 0000.0001)  cg2d: iter=    50 ; resid.=  9.10770024305393E-05
(PID.TID 0000.0001)  cg2d: iter=    51 ; resid.=  7.00823259237769E-05
(PID.TID 0000.0001)  cg2d: iter=    52 ; resid.=  5.30885403728794E-05
(PID.TID 0000.0001)  cg2d: iter=    53 ; resid.=  4.22487687629843E-05
(PID.TID 0000.0001)  cg2d: iter=    54 ; resid.=  3.55623831859572E-05
(PID.TID 0000.0001)  cg2d: iter=    55 ; resid.=  3.06301321480524E-05
(PID.TID 0000.0001)  cg2d: iter=    56 ; resid.=  2.51923845044082E-05
(PID.TID 0000.0001)  cg2d: iter=    57 ; resid.=  1.97693529224804E-05
(PID.TID 0000.0001)  cg2d: iter=    58 ; resid.=  1.50804575195895E-05
(PID.TID 0000.0001)  cg2d: iter=    59 ; resid.=  1.26428100048538E-05
(PID.TID 0000.0001)  cg2d: iter=    60 ; resid.=  1.03901287162685E-05
(PID.TID 0000.0001)  cg2d: iter=    61 ; resid.=  8.80526476672858E-06
(PID.TID 0000.0001)  cg2d: iter=    62 ; resid.=  7.21587939143694E-06
(PID.TID 0000.0001)  cg2d: iter=    63 ; resid.=  6.21626154864239E-06
(PID.TID 0000.0001)  cg2d: iter=    64 ; resid.=  5.05252962016588E-06
(PID.TID 0000.0001)  cg2d: iter=    65 ; resid.=  4.12715604721341E-06
(PID.TID 0000.0001)  cg2d: iter=    66 ; resid.=  3.36965946253787E-06
(PID.TID 0000.0001)  cg2d: iter=    67 ; resid.=  2.93824247475633E-06
(PID.TID 0000.0001)  cg2d: iter=    68 ; resid.=  2.28117090337498E-06
(PID.TID 0000.0001)  cg2d: iter=    69 ; resid.=  1.81970645225411E-06
(PID.TID 0000.0001)  cg2d: iter=    70 ; resid.=  1.46454064035567E-06
(PID.TID 0000.0001)  cg2d: iter=    71 ; resid.=  1.26095486587580E-06
(PID.TID 0000.0001)  cg2d: iter=    72 ; resid.=  1.17124680584475E-06
(PID.TID 0000.0001)  cg2d: iter=    73 ; resid.=  1.05890376965765E-06
(PID.TID 0000.0001)  cg2d: iter=    74 ; resid.=  9.38057747295500E-07
(PID.TID 0000.0001)  cg2d: iter=    75 ; resid.=  7.67717144802370E-07
(PID.TID 0000.0001)  cg2d: iter=    76 ; resid.=  6.36890393836619E-07
(PID.TID 0000.0001)  cg2d: iter=    77 ; resid.=  5.21747685441302E-07
(PID.TID 0000.0001)  cg2d: iter=    78 ; resid.=  4.22417783788653E-07
(PID.TID 0000.0001)  cg2d: iter=    79 ; resid.=  3.24171483560869E-07
(PID.TID 0000.0001)  cg2d: iter=    80 ; resid.=  2.12612819587809E-07
(PID.TID 0000.0001)  cg2d: iter=    81 ; resid.=  1.53459782566980E-07
(PID.TID 0000.0001)  cg2d: iter=    82 ; resid.=  1.14100591751466E-07
(PID.TID 0000.0001)  cg2d: iter=    83 ; resid.=  8.64363869682291E-08
(PID.TID 0000.0001)  cg2d: iter=    84 ; resid.=  7.04211735907666E-08
(PID.TID 0000.0001)  cg2d: iter=    85 ; resid.=  5.77044890576227E-08
(PID.TID 0000.0001)  cg2d: iter=    86 ; resid.=  4.65097778498143E-08
(PID.TID 0000.0001)  cg2d: iter=    87 ; resid.=  3.98559391092123E-08
(PID.TID 0000.0001)  cg2d: iter=    88 ; resid.=  3.17518418680358E-08
(PID.TID 0000.0001)  cg2d: iter=    89 ; resid.=  2.59514452971156E-08
(PID.TID 0000.0001)  cg2d: iter=    90 ; resid.=  1.97997644173410E-08
(PID.TID 0000.0001)  cg2d: iter=    91 ; resid.=  1.56023806028215E-08
(PID.TID 0000.0001)  cg2d: iter=    92 ; resid.=  1.12357501297137E-08
(PID.TID 0000.0001)  cg2d: iter=    93 ; resid.=  7.37719650934816E-09
(PID.TID 0000.0001)  cg2d: iter=    94 ; resid.=  6.01326779967563E-09
(PID.TID 0000.0001)  cg2d: iter=    95 ; resid.=  5.37164828984218E-09
(PID.TID 0000.0001)  cg2d: iter=    96 ; resid.=  4.47218301638406E-09
(PID.TID 0000.0001)  cg2d: iter=    97 ; resid.=  3.55915098539717E-09
(PID.TID 0000.0001)  cg2d: iter=    98 ; resid.=  2.90138354835390E-09
(PID.TID 0000.0001)  cg2d: iter=    99 ; resid.=  2.51937168894258E-09
(PID.TID 0000.0001)  cg2d: iter=   100 ; resid.=  2.20164571376740E-09
(PID.TID 0000.0001)  cg2d: iter=   101 ; resid.=  1.83218040941643E-09
(PID.TID 0000.0001)  cg2d: iter=   102 ; resid.=  1.47952096566473E-09
(PID.TID 0000.0001)  cg2d: iter=   103 ; resid.=  1.23595278728552E-09
(PID.TID 0000.0001)  cg2d: iter=   104 ; resid.=  9.49827480958238E-10
(PID.TID 0000.0001)  cg2d: iter=   105 ; resid.=  7.25438821091444E-10
(PID.TID 0000.0001)  cg2d: iter=   106 ; resid.=  5.48110803437364E-10
(PID.TID 0000.0001)  cg2d: iter=   107 ; resid.=  3.77313835020943E-10
(PID.TID 0000.0001)  cg2d: iter=   108 ; resid.=  2.71881160162725E-10
(PID.TID 0000.0001)  cg2d: iter=   109 ; resid.=  1.95202226335844E-10
(PID.TID 0000.0001)  cg2d: iter=   110 ; resid.=  1.49865216312562E-10
(PID.TID 0000.0001)  cg2d: iter=   111 ; resid.=  1.26319247839911E-10
(PID.TID 0000.0001)  cg2d: iter=   112 ; resid.=  9.48438806349624E-11
(PID.TID 0000.0001)  cg2d: iter=   113 ; resid.=  6.57492293932227E-11
(PID.TID 0000.0001)  cg2d: iter=   114 ; resid.=  4.83686545666696E-11
(PID.TID 0000.0001)  cg2d: iter=   115 ; resid.=  3.42381050451617E-11
(PID.TID 0000.0001)  cg2d: iter=   116 ; resid.=  2.44617254120835E-11
(PID.TID 0000.0001)  cg2d: iter=   117 ; resid.=  2.05886205832830E-11
(PID.TID 0000.0001)  cg2d: iter=   118 ; resid.=  1.62484975785118E-11
(PID.TID 0000.0001)  cg2d: iter=   119 ; resid.=  1.21478208846043E-11
(PID.TID 0000.0001)  cg2d: iter=   120 ; resid.=  9.33418246176742E-12
(PID.TID 0000.0001)  cg2d: iter=   121 ; resid.=  7.66204672065284E-12
(PID.TID 0000.0001)  cg2d: iter=   122 ; resid.=  6.44095974631088E-12
(PID.TID 0000.0001)  cg2d: iter=   123 ; resid.=  4.84266277132974E-12
(PID.TID 0000.0001)  cg2d: iter=   124 ; resid.=  3.52429245821515E-12
(PID.TID 0000.0001)  cg2d: iter=   125 ; resid.=  2.47399388546725E-12
(PID.TID 0000.0001)  cg2d: iter=   126 ; resid.=  1.87680537861208E-12
(PID.TID 0000.0001)  cg2d: iter=   127 ; resid.=  1.30191956618491E-12
(PID.TID 0000.0001)  cg2d: iter=   128 ; resid.=  8.92129848672921E-13
(PID.TID 0000.0001)  cg2d: iter=   129 ; resid.=  6.63537708652297E-13
(PID.TID 0000.0001)  cg2d: iter=   130 ; resid.=  4.95483382345747E-13
(PID.TID 0000.0001)  cg2d: iter=   131 ; resid.=  3.90654563647263E-13
(PID.TID 0000.0001)  cg2d: iter=   132 ; resid.=  2.86984919915324E-13
(PID.TID 0000.0001)  cg2d: iter=   133 ; resid.=  1.95463554445586E-13
(PID.TID 0000.0001)  cg2d: iter=   134 ; resid.=  1.39092298024054E-13
(PID.TID 0000.0001)  cg2d: iter=   135 ; resid.=  9.75031847852321E-14
DEBUG_STATS_RL:    cg2d_x (SOLVE_FOR_PRESSURE)  min= -2.21818399024927E+01
DEBUG_STATS_RL:    cg2d_x (SOLVE_FOR_PRESSURE)  max=  1.20725796358300E+01
DEBUG_STATS_RL:    cg2d_x (SOLVE_FOR_PRESSURE) mean= -1.52497722371699E+00
DEBUG_STATS_RL:    cg2d_x (SOLVE_FOR_PRESSURE) S.D.=  6.30939670471536E+00
(PID.TID 0000.0001)      cg2d_init_res =   5.99269950943515E-01
(PID.TID 0000.0001)      cg2d_iters(min,last) =      -1     135
(PID.TID 0000.0001)      cg2d_last_res =   9.75031847852321E-14
(PID.TID 0000.0001) // =======================================================
(PID.TID 0000.0001) // Begin MONITOR dynamic field statistics
(PID.TID 0000.0001) // =======================================================
(PID.TID 0000.0001) %MON time_tsnumber                =                    20
(PID.TID 0000.0001) %MON time_secondsf                =   1.7280000000000E+06
(PID.TID 0000.0001) %MON dynstat_eta_max              =   1.2306401259766E+00
(PID.TID 0000.0001) %MON dynstat_eta_min              =  -2.2611457596833E+00
(PID.TID 0000.0001) %MON dynstat_eta_mean             =  -1.4436057838205E-03
(PID.TID 0000.0001) %MON dynstat_eta_sd               =   5.6880281395772E-01
(PID.TID 0000.0001) %MON dynstat_eta_del2             =   1.8755383134502E-03
(PID.TID 0000.0001) %MON dynstat_uvel_max             =   1.6281160290599E-01
(PID.TID 0000.0001) %MON dynstat_uvel_min             =  -1.3747394611645E-01
(PID.TID 0000.0001) %MON dynstat_uvel_mean            =  -2.8780251138600E-03
(PID.TID 0000.0001) %MON dynstat_uvel_sd              =   1.7960541515828E-02
(PID.TID 0000.0001) %MON dynstat_uvel_del2            =   1.0308395222510E-04
(PID.TID 0000.0001) %MON dynstat_vvel_max             =   1.3631776844740E-01
(PID.TID 0000.0001) %MON dynstat_vvel_min             =  -1.2827058552803E-01
(PID.TID 0000.0001) %MON dynstat_vvel_mean            =   7.6952233985269E-04
(PID.TID 0000.0001) %MON dynstat_vvel_sd              =   1.1222442537306E-02
(PID.TID 0000.0001) %MON dynstat_vvel_del2            =   9.9115484245859E-05
(PID.TID 0000.0001) %MON dynstat_wvel_max             =   2.0135810158792E-04
(PID.TID 0000.0001) %MON dynstat_wvel_min             =  -1.9759948050420E-04
(PID.TID 0000.0001) %MON dynstat_wvel_mean            =  -1.9599600603758E-23
(PID.TID 0000.0001) %MON dynstat_wvel_sd              =   2.2654074949318E-05
(PID.TID 0000.0001) %MON dynstat_wvel_del2            =   2.5299728870220E-07
(PID.TID 0000.0001) %MON dynstat_theta_max            =   2.9854448381694E+01
(PID.TID 0000.0001) %MON dynstat_theta_min            =  -2.0160528863706E+00
(PID.TID 0000.0001) %MON dynstat_theta_mean           =   3.6401349467581E+00
(PID.TID 0000.0001) %MON dynstat_theta_sd             =   4.4157909709965E+00
(PID.TID 0000.0001) %MON dynstat_theta_del2           =   4.8680411904449E-03
(PID.TID 0000.0001) %MON dynstat_salt_max             =   3.7461061329810E+01
(PID.TID 0000.0001) %MON dynstat_salt_min             =   2.9774664756437E+01
(PID.TID 0000.0001) %MON dynstat_salt_mean            =   3.4737951554683E+01
(PID.TID 0000.0001) %MON dynstat_salt_sd              =   2.9622660571721E-01
(PID.TID 0000.0001) %MON dynstat_salt_del2            =   1.0114833314899E-03
(PID.TID 0000.0001) %MON dynstat_sst_max              =   2.9854448381694E+01
(PID.TID 0000.0001) %MON dynstat_sst_min              =  -2.0160528863706E+00
(PID.TID 0000.0001) %MON dynstat_sst_mean             =   1.8703580469317E+01
(PID.TID 0000.0001) %MON dynstat_sst_sd               =   9.0579356749714E+00
(PID.TID 0000.0001) %MON dynstat_sst_del2             =   2.6369562992956E-02
(PID.TID 0000.0001) %MON dynstat_sss_max              =   3.7449657931720E+01
(PID.TID 0000.0001) %MON dynstat_sss_min              =   2.9774664756437E+01
(PID.TID 0000.0001) %MON dynstat_sss_mean             =   3.4872893431280E+01
(PID.TID 0000.0001) %MON dynstat_sss_sd               =   9.7223610620593E-01
(PID.TID 0000.0001) %MON dynstat_sss_del2             =   7.9791769373451E-03
(PID.TID 0000.0001) %MON forcing_qnet_max             =   4.2833727010091E+02
(PID.TID 0000.0001) %MON forcing_qnet_min             =  -1.7906146952311E+02
(PID.TID 0000.0001) %MON forcing_qnet_mean            =  -1.6172889331431E+01
(PID.TID 0000.0001) %MON forcing_qnet_sd              =   1.0557973223763E+02
(PID.TID 0000.0001) %MON forcing_qnet_del2            =   1.0083982826333E+00
(PID.TID 0000.0001) %MON forcing_qsw_max              =   0.0000000000000E+00
(PID.TID 0000.0001) %MON forcing_qsw_min              =   0.0000000000000E+00
(PID.TID 0000.0001) %MON forcing_qsw_mean             =   0.0000000000000E+00
(PID.TID 0000.0001) %MON forcing_qsw_sd               =   0.0000000000000E+00
(PID.TID 0000.0001) %MON forcing_qsw_del2             =   0.0000000000000E+00
(PID.TID 0000.0001) %MON forcing_empmr_max            =   8.0917880040943E-05
(PID.TID 0000.0001) %MON forcing_empmr_min            =  -7.6474533254138E-05
(PID.TID 0000.0001) %MON forcing_empmr_mean           =   9.2566665115046E-07
(PID.TID 0000.0001) %MON forcing_empmr_sd             =   2.8597523558275E-05
(PID.TID 0000.0001) %MON forcing_empmr_del2           =   3.6295745305298E-07
(PID.TID 0000.0001) %MON forcing_fu_max               =   2.7799457907677E-01
(PID.TID 0000.0001) %MON forcing_fu_min               =  -1.7257433235645E-01
(PID.TID 0000.0001) %MON forcing_fu_mean              =   1.6218936014442E-02
(PID.TID 0000.0001) %MON forcing_fu_sd                =   9.0419897423294E-02
(PID.TID 0000.0001) %MON forcing_fu_del2              =   6.9713620396268E-04
(PID.TID 0000.0001) %MON forcing_fv_max               =   2.2028753260771E-01
(PID.TID 0000.0001) %MON forcing_fv_min               =  -1.7417170107365E-01
(PID.TID 0000.0001) %MON forcing_fv_mean              =  -5.5199413663658E-03
(PID.TID 0000.0001) %MON forcing_fv_sd                =   4.7048267643353E-02
(PID.TID 0000.0001) %MON forcing_fv_del2              =   4.7981650683968E-04
(PID.TID 0000.0001) %MON trAdv_CFL_u_max              =   5.9210935223269E-02
(PID.TID 0000.0001) %MON trAdv_CFL_v_max              =   2.6348249068359E-02
(PID.TID 0000.0001) %MON trAdv_CFL_w_max              =   6.6681952209408E-02
(PID.TID 0000.0001) %MON advcfl_uvel_max              =   5.1565668314423E-02
(PID.TID 0000.0001) %MON advcfl_vvel_max              =   2.6484356135171E-02
(PID.TID 0000.0001) %MON advcfl_wvel_max              =   5.6545886544821E-02
(PID.TID 0000.0001) %MON advcfl_W_hf_max              =   6.3986134774403E-02
(PID.TID 0000.0001) %MON pe_b_mean                    =   4.1400679588559E-04
(PID.TID 0000.0001) %MON ke_max                       =   1.4322861248167E-02
(PID.TID 0000.0001) %MON ke_mean                      =   2.0712383812969E-04
(PID.TID 0000.0001) %MON ke_vol                       =   1.3226782436723E+18
(PID.TID 0000.0001) %MON vort_r_min                   =  -4.1597994252707E-07
(PID.TID 0000.0001) %MON vort_r_max                   =   5.3669299009004E-07
(PID.TID 0000.0001) %MON vort_a_mean                  =  -2.5274807194746E-05
(PID.TID 0000.0001) %MON vort_a_sd                    =   7.3603919241819E-05
(PID.TID 0000.0001) %MON vort_p_mean                  =  -3.1845655544068E-05
(PID.TID 0000.0001) %MON vort_p_sd                    =   1.3162300741156E-04
(PID.TID 0000.0001) %MON surfExpan_theta_mean         =   6.8295174805199E-08
(PID.TID 0000.0001) %MON surfExpan_salt_mean          =   1.9503302101059E-07
(PID.TID 0000.0001) // =======================================================
(PID.TID 0000.0001) // End MONITOR dynamic field statistics
(PID.TID 0000.0001) // =======================================================
(PID.TID 0000.0001) // =======================================================
(PID.TID 0000.0001) // Field Current uVel   at iteration         20
(PID.TID 0000.0001) // CMIN =         -1.374739461164524E-01
(PID.TID 0000.0001) // CMAX =          1.628116029059926E-01
(PID.TID 0000.0001) // CINT =          1.112168700083129E-02
(PID.TID 0000.0001) // SYMBOLS (CMIN->CMAX): -abcdefghijklmnopqrstuvwxyz+
(PID.TID 0000.0001) //                  0.0: .
(PID.TID 0000.0001) // RANGE I (Lo:Hi:Step):(     1:    90:     1)
(PID.TID 0000.0001) // RANGE J (Lo:Hi:Step):(    40:     1:    -1)
(PID.TID 0000.0001) // RANGE K (Lo:Hi:Step):(   1:   1:   1)
(PID.TID 0000.0001) // =======================================================
(PID.TID 0000.0001) K =   1
(PID.TID 0000.0001)                I=10      I=20      I=30      I=40      I=50      I=60      I=70      I=80      I=90
(PID.TID 0000.0001) |--J--|123456789|123456789|123456789|123456789|123456789|123456789|123456789|123456789|123456789|
(PID.TID 0000.0001)     40 klmll..lmmmnoqqppon...................................................................kjjk
(PID.TID 0000.0001)     39 mnoqsrsrrqpppn....m......................................................lll.........jjkkl
(PID.TID 0000.0001)     38 noppnnnnnnnnm............................................................llll.......lmnnnn
(PID.TID 0000.0001)     37 oon...................................................................l....kl....lmmm..noo
(PID.TID 0000.0001)     36 on..........................................llm.....................lkihgggilk..kmmnppqssp
(PID.TID 0000.0001)     35 nm..................................lll...lmmnol....klmn............kk.....lkkllmnoppoprrp
(PID.TID 0000.0001)     34 ....................................kll..mlllmnm..kklnpqp...................mmnppqssrrqo..
(PID.TID 0000.0001)     33 .....................................kkjkkklmnoonnnoprssrpn..................pqrstuutrpnm.
(PID.TID 0000.0001)     32 .....................................kjkklmnnpqppqqrstuutrp.................ruuvvuutromml.
(PID.TID 0000.0001)     31 .....................................ooooopqpqqqrsttuvvvurp...............nvyz+yvttrpnmm..
(PID.TID 0000.0001)     30 ....................................suvutuutssstuvvuuuuusqo.............ntwyxxwvusrqponm..
(PID.TID 0000.0001)     29 ..................................qtwvwwwwwwwvuttutttttrponn............tutsrqpppoonnmmn..
(PID.TID 0000.0001)     28 ................................moprrqrsssttsssrqqrrsrqpnmmmm..........ppoonnnmlkkkkkkll..
(PID.TID 0000.0001)     27 ...............m...............kjjjkkklnoopooooonnnoponmlkjjkl....kjk..nnnnnnmlkiiijij....
(PID.TID 0000.0001)     26 ...............lk............icefffffggjkkllkkkkjjjjkjjjihihikll..kiijkklmlmlkkjhhhhgg....
(PID.TID 0000.0001)     25 ...............jih....lm....hccdcaabdedeffgggggffeeffeeeddffgijkk....ighjiiihggffffeee....
(PID.TID 0000.0001)     24 .............ighhgi..ihk....fg..ha-accbaabdccdefeedeedccdbcdegghijij..ihgigfgffeeeffgh....
(PID.TID 0000.0001)     23 .............heeffh..igj....eh...ffffeedeeffgghijjiijjiiiggghihhihggh.....ijjihfehhikl....
(PID.TID 0000.0001)     22 m............hfffegjjkjj....j..nmmlkkjkkjijjklkkllllmnmmljkklmmmkkiijm.......kjggjkkkmjklm
(PID.TID 0000.0001)     21 kik.........iijiiiikllmlk......mpqnmmnonllllmnlklmmlmolmnmljlnnmllkkln.........jillkklllmm
(PID.TID 0000.0001)     20 kil........kllnnmkkmnnnlk.........mnopppnonnonmloonmnnlmomljmonmkljkln..........jkkklkllmm
(PID.TID 0000.0001)     19 kij........noopsokklmmmlkil....lo......pqpopppooppmnonmnomkkmnlkkkjikm............kkkkllmn
(PID.TID 0000.0001)     18 jhj........pllmojhhijijkjjlllorkl....loopopqqpppponnnonnnkjkljjjkjhhkmm...........kkkkmkkk
(PID.TID 0000.0001)     17 hij..........hghffeeghiijjklmnn......lmmmmmnnmmmmnnmmnnmljjjjiiiihghjmm..........mlkjjligh
(PID.TID 0000.0001)     16 ggh.......n..jiihgefhlkjijllmm........klmllmlklmnmmmnmnmkjjjjiijiihijkkm.........mmkiiiggg
(PID.TID 0000.0001)     15 gffh.....mk..nnoolmlknmkjkllm..........llllmmmmooonoooonlkkljjklljiijihij.......onnlkjihhh
(PID.TID 0000.0001)     14 hfee.....jhimppqqoqpoolkkjjij..........nlkmnoooppqqrsrppqoonlkmmlkjjjihhj......noonnmmkiii
(PID.TID 0000.0001)     13 kigg.....nllnonnnmnpoljllljhg..........onnnooooppqqrrrrrtsrrqpoommmmlkkjk.....mnoonoonmmll
(PID.TID 0000.0001)     12 omljigdnpsponmkkllllmmmnnmkjjkklll.....ppomkllmnoopooppqqrrrsrqonnoonmlk......oqpqpqqpqppp
(PID.TID 0000.0001)     11 qponnontwyxusspopqqpnpppponnnnnnmll...nqpom..mmmmmmmmnmmmnopppoonnoppnll.....pqsttsssrrrqq
(PID.TID 0000.0001)     10 rrrqruvwwwxvvzyxwvvusrrssrrqqqonnmkk..pppol..omllkkklmmlkklnnnnooonooonl...kmsqrsuututstts
(PID.TID 0000.0001)      9 tssssuvutrsrrtwwutttttrrrstsssrqppnkklnoon..jmnnnmlllmnonmllmmmnnnnmnnnk..jimqrqrrstttrsuu
(PID.TID 0000.0001)      8 ssssssssqppqpppppqoprssqqqrrsssssstssssqonkjlnpppqqqppqpqqpnnnnonmnnmmmk..mkkmnnopqrrrpops
(PID.TID 0000.0001)      7 oooppooppomnoponmnmmnppppooopqrrsrqqtuusrpmkmnoooprrsttrqqqnnooppoooonmlilonlkklllmoopnmmn
(PID.TID 0000.0001)      6 lllmmlmmnnnmmmnmmllkklmmmnnnnoooppolmoppqqponnoonnonoprrqqpnnoppppppppoonmmnnmkkklllnnmmll
(PID.TID 0000.0001)      5 lllllmmmmmmmlllllkkjjkllllmmmnnnmmmlkkllmoppponmmmmlllmnopponopppoppppoonnlkiijkklllmmmlll
(PID.TID 0000.0001)      4 llklllmmmmmmlmllllllllmmnoonnnnmmmmmmlkjklmnnnmlkkllllmmnnoonnooonnnnnnnnm...lklllllllllll
(PID.TID 0000.0001)      3 lllllmmmmm.............................mmmmmmnmmlllllmmmmmmmmmmmmmmmmmlll...lmnmmlllllmllm
(PID.TID 0000.0001)      2 ...........................................mmmmmmmmmmmmlllllllml...lll......mmmmmmlllll...
(PID.TID 0000.0001)      1 ..........................................................................................
(PID.TID 0000.0001) // =======================================================
(PID.TID 0000.0001) // END OF FIELD                                          =
(PID.TID 0000.0001) // =======================================================
(PID.TID 0000.0001) 
(PID.TID 0000.0001) // =======================================================
(PID.TID 0000.0001) // Field Current vVel   at iteration         20
(PID.TID 0000.0001) // CMIN =         -1.282705855280333E-01
(PID.TID 0000.0001) // CMAX =          1.363177684474038E-01
(PID.TID 0000.0001) // CINT =          9.799568665756930E-03
(PID.TID 0000.0001) // SYMBOLS (CMIN->CMAX): -abcdefghijklmnopqrstuvwxyz+
(PID.TID 0000.0001) //                  0.0: .
(PID.TID 0000.0001) // RANGE I (Lo:Hi:Step):(     1:    90:     1)
(PID.TID 0000.0001) // RANGE J (Lo:Hi:Step):(    40:     1:    -1)
(PID.TID 0000.0001) // RANGE K (Lo:Hi:Step):(   1:   1:   1)
(PID.TID 0000.0001) // =======================================================
(PID.TID 0000.0001) K =   1
(PID.TID 0000.0001)                I=10      I=20      I=30      I=40      I=50      I=60      I=70      I=80      I=90
(PID.TID 0000.0001) |--J--|123456789|123456789|123456789|123456789|123456789|123456789|123456789|123456789|123456789|
(PID.TID 0000.0001)     40 mopqp.ppppqqqp...ii..................................................................kkllm
(PID.TID 0000.0001)     39 nnnnnlllllmnn...........................................................mmmn........klmnnn
(PID.TID 0000.0001)     38 nnn.......................................................................mnn......po.noon
(PID.TID 0000.0001)     37 mn...................................................................no...knn...mnoon.qpnm
(PID.TID 0000.0001)     36 mn.........................................pqpn....................mlj....jjmn.kkmmmlkkmnn
(PID.TID 0000.0001)     35 ...................................mmnn..noppqpo...klnpp...................iihiijjjjjijn..
(PID.TID 0000.0001)     34 ....................................lkm.nonnnnnm.ljjklmnn...................ifhhffggffij..
(PID.TID 0000.0001)     33 ....................................miijlllkllkjjihhhhijjkm.................ljjhecdeeefhk.
(PID.TID 0000.0001)     32 ....................................nigfhiiiijhghggggghhhhk................tokhigefgfffi..
(PID.TID 0000.0001)     31 ....................................jgfeeeffggfeffffghijhhj..............ljheeefggghgghl..
(PID.TID 0000.0001)     30 ...................................kgdccccbbceeeeffgiijkjhi............nhijihhhhijjjjjkl..
(PID.TID 0000.0001)     29 .................................mlkhecbdeddeffghhhiklllkjhi...........mkkkkjijklkkllllm..
(PID.TID 0000.0001)     28 ...............................nmkklkiggijihijijlllmnnnnmlkjj.........nlmllmmlmoonnonm....
(PID.TID 0000.0001)     27 ..............ml..............nnnmmnmllmnnmmlllmnnnnoppoonmlkl...mnqs.nnnnonnnopppppon....
(PID.TID 0000.0001)     26 ..............mmn...........korpmlmmllmnonnnmlmmmnmmmnnnnnlmnnnn....sppnmonnonopqqoonl....
(PID.TID 0000.0001)     25 ..............mnqq...lll...lmo.mgghhhjklllkkjjjkkkkjjjjjijkmnnoon....mljkjkmlklnpommkj....
(PID.TID 0000.0001)     24 ............nmnprtr.mlml...jmp..-cddefgiihiiiijlmmlkiihhjklmllkjiilm.....gjiijlnomlkkn....
(PID.TID 0000.0001)     23 ............klmnoom.kjii...ko...eghijkkklllmnnpqrsrrrsstuutsqpnmmnopo.......knqrpoopsu....
(PID.TID 0000.0001)     22 p...........jllmkhgfdfhl......npmlnoommmlklmmnopqqrrssttspopponopppnlk........mmnnprstqonn
(PID.TID 0000.0001)     21 lkj........kjllihhiiikmoo......k.lmmnmnmmllmnoooonopopqqqpoonllmmmnnml.........jloppooonlk
(PID.TID 0000.0001)     20 jkm.......mkkjjgfikmnopom......n......mmlllllmmlmnppqrrqrqrqpqpqpooqrq...........pqpppoonk
(PID.TID 0000.0001)     19 lkl.......sqsttsqooqrtsqnlm...kjl.....mnmmlkkkkklllnpqoppqqqqsrqonnopo...........ponnmlmoo
(PID.TID 0000.0001)     18 olm.......s.xxy+xtqpqqrqonmllot.....mmnnnnonmmmmmlklnoooonopqrrrqomnqpm..........qppppnnpq
(PID.TID 0000.0001)     17 qoo.......q.vtstrpnnmklmlklmmn.......nmmnnnnopnmmmlklnnnmmnopppppnmmopn.........lnnoprsqqr
(PID.TID 0000.0001)     16 qqq......rp.nnlllgdhiggjkkkkl.........nlkklkkmmkjjjjkmlkklnmmnopmmmmoqqo........nmmmoqrrpq
(PID.TID 0000.0001)     15 pqrp....osr.kljjjffmleegillkk.........mmkjhhijjihghhijjihjljjnonmlmmnprro......nmmnlmnoppo
(PID.TID 0000.0001)     14 pqqp....klnllkjjigjnmigjmnmln.........lmlkjijjkjhiihhijiijjilpommlmnnnqqn.....mmlmnlkmnoqp
(PID.TID 0000.0001)     13 qqpp....gloollmmmllmmkknpomlm.........lnmmlllmllkkkiiikkkkkknpmmonnonnpo.....lonmnommnnpqq
(PID.TID 0000.0001)     12 srqolihmmnppmlppppoooopqrqponnnnmn....npomj.nnnopomlllmnnmnnonmnrrpooopn.....nponpqooopqrs
(PID.TID 0000.0001)     11 uusqqrrrqrsurrtuwwvvututtttsqpqqqqp..mpqqok.lmoqqponoonpqqqrrpnptusrqqpn....lpssrrsrrsrrst
(PID.TID 0000.0001)     10 vvvvuvvtsqprstwz+zywwwwwwvuutsrrqprs.lprro..fjmopqqqqqoprstusrqsvwvsrrqn..kmostuttvutuvutu
(PID.TID 0000.0001)      9 vwxyyywvurprstvusqstvwwxwvvvuttutsvvrqrsqn.llnoqrsrrsrrsuvwwusrsvvutssqp.ijlptuwxxxwvwxvuu
(PID.TID 0000.0001)      8 tuwvvvutsrrstttqnkkptuvvuuttsstttuxyvtutroooopqtvwvwwuuvwvwwusrsuuttttss.jgjossrsuuttuvtrr
(PID.TID 0000.0001)      7 qqqpppppppoopqqqpmkklnprrqpppqrsssttrqrqppqrrrsuvuuvussssrrsrqqqrsttttssrrrsutrqppppqrssqq
(PID.TID 0000.0001)      6 nnmlmmmnoonooonooomkjlnonmnoppqqppqpooonmnprrrsutsssqommnnprqppprrssssttttsqppppoonnopqqoo
(PID.TID 0000.0001)      5 llkklllmmmlllllmnnmllkkjiijlmmnnnnnnonnmmmoppqrrqppomlkklmoppooopqqqqqrpnm..mmnonnmmmnnmll
(PID.TID 0000.0001)      4 kjjjkkkkkk............................kkllmmmmnnmmmllkllmnnonnnnnooonnmlk...kmmmmmmmllkkkk
(PID.TID 0000.0001)      3 ..........................................kllllllllkkkklmmmmllll..mmll.....lmnnmmllllkk...
(PID.TID 0000.0001)      2 ..........................................................................................
(PID.TID 0000.0001)      1 ..........................................................................................
(PID.TID 0000.0001) // =======================================================
(PID.TID 0000.0001) // END OF FIELD                                          =
(PID.TID 0000.0001) // =======================================================
(PID.TID 0000.0001) 
(PID.TID 0000.0001) // =======================================================
(PID.TID 0000.0001) // Field Current theta  at iteration         20
(PID.TID 0000.0001) // CMIN =         -2.016052886370559E+00
(PID.TID 0000.0001) // CMAX =          2.985444838169367E+01
(PID.TID 0000.0001) // CINT =          1.180388935854231E+00
(PID.TID 0000.0001) // SYMBOLS (CMIN->CMAX): -abcdefghijklmnopqrstuvwxyz+
(PID.TID 0000.0001) //                  0.0: .
(PID.TID 0000.0001) // RANGE I (Lo:Hi:Step):(     1:    90:     1)
(PID.TID 0000.0001) // RANGE J (Lo:Hi:Step):(    40:     1:    -1)
(PID.TID 0000.0001) // RANGE K (Lo:Hi:Step):(   1:   1:   1)
(PID.TID 0000.0001) // =======================================================
(PID.TID 0000.0001) K =   1
(PID.TID 0000.0001)                I=10      I=20      I=30      I=40      I=50      I=60      I=70      I=80      I=90
(PID.TID 0000.0001) |--J--|123456789|123456789|123456789|123456789|123456789|123456789|123456789|123456789|123456789|
(PID.TID 0000.0001)     40 aabcdbbaa----abcdddbbbbbbbbbbbbbbbbbbbbbbbbbbbbbbbbbbbbbbbbbbbbbbbbbbbbbbbbbbbbbbbbbbbbaaa
(PID.TID 0000.0001)     39 bccddccbba----bbbedbbbbbbbbbbbbbbbbbbbbbbbbbbbbbbbbbbbbbbbbbbbbbbbbbbbbb----bbbbbbbbbbaaab
(PID.TID 0000.0001)     38 effeeeddddbbbbbbbbbbbbbbbbbbbbbbbbbbbbbbbbbbbbbbbbbbbbbbbbbbbbbbbbbbbbbb-----bbbbbbcaaabdd
(PID.TID 0000.0001)     37 gghbbbbbbbbbbbbbbbbbbbbbbbbbbbbbbbbbbbbbbbbbbbbbbbbbbbbbbbbbbbbbbbbbbbcbbbbabbbbdccdfbdeef
(PID.TID 0000.0001)     36 hhbbbbbbbbbbbbbbbbbbbbbbbbbbbbbbbbbbbbbbbbbcbaabbbbbbbbbbbbbbbbbbbbdcccbbbbccdbddfgghhhhhh
(PID.TID 0000.0001)     35 ggbbbbbbbbbbbbbbbbbbbbbbbbbbbbbbbbba--abbbccddcbbbbeeffgbbbbbbbbbbbbbbbbbbcceeeeefghijjiih
(PID.TID 0000.0001)     34 bbbbbbbbbbbbbbbbbbbbbbbbbbbbbbbbbbb---abcdddddddbeeeffgggbbbbbbbbbbbbbbbbbbcbceffghijjjjbb
(PID.TID 0000.0001)     33 bbbbbbbbbbbbbbbbbbbbbbbbbbbbbbbbbbbb-abbccdeeeeeeffffggghhibbbbbbbbbbbbbbbbbbbehjjkkkkkkkb
(PID.TID 0000.0001)     32 bbbbbbbbbbbbbbbbbbbbbbbbbbbbbbbbbbbbabccdeeffffgghhhhhiiiijbbbbbbbbbbbbbbbbccceklmmmmlllkb
(PID.TID 0000.0001)     31 bbbbbbbbbbbbbbbbbbbbbbbbbbbbbbbbbbbbefghhhiiiiijjjjjkkkklkkbbbbbbbbbbbbbbhilkilnoonnnmmmbb
(PID.TID 0000.0001)     30 bbbbbbbbbbbbbbbbbbbbbbbbbbbbbbbbbbbmlllllmmmmmlllmmmmnnnnmlbbbbbbbbbbbblnpqqqqqqqpppooonbb
(PID.TID 0000.0001)     29 bbbbbbbbbbbbbbbbbbbbbbbbbbbbbbbbbppppppoooooooooooooppppoonmbbbbbbbbbbbrrrrrrrrqqqqqppppbb
(PID.TID 0000.0001)     28 bbbbbbbbbbbbbbbbbbbbbbbbbbbbbbboqrqrqqqqrrrrrrrqqrrrrrrqqppoobbbbbbbbbtsssssssrrrrrrqqqpbb
(PID.TID 0000.0001)     27 bbbbbbbbbbbbbbvvbbbbbbbbbbbbbbrsssstttttttttttttttttttssrrqqqqbbbsstubuuuuuuuuttttsssrbbbb
(PID.TID 0000.0001)     26 bbbbbbbbbbbbbbvuubbbbbbbbbbbutuuuuuvvvvvvvvvvvvvvvvuutttssrrrstvbtuvwwvvvvvvvvvuuttsrrbbbb
(PID.TID 0000.0001)     25 bbbbbbbbbbbbbbvvvxbbbwwxbbbuuvwwwwwxxxxxxwwwwwwvwvvvuuuuutttuuvwxbbbxwwwwwwvvvvvvuttrqbbbb
(PID.TID 0000.0001)     24 bbbbbbbbbbbbwwwwxyybwwxxbbbwwwbxxxyyyxxxxxxwwwwwwwwvvvvvvvvvvwwxxwvwbxwwwwwwwwwvvvuutrbbbb
(PID.TID 0000.0001)     23 bbbbbbbbbbbbxwxxyyzbxxyybbbxxxbbyyyyyyyyxxxxxxxxxxxxxxxxxwwxxxxwwxwwwbbbbwwxxxwwwwwvvvbbbb
(PID.TID 0000.0001)     22 wbbbbbbbbbbbxxyyyyyyyyyybbbxxbyyzzzzzzzzzzzzyyyyyyyyyyxwwwwxxxxwwwwwxwbbbbbbyxxxxxxxxxxxxw
(PID.TID 0000.0001)     21 xwxbbbbbbbbxxxxyyzzyzzz++bbbbbzyzzzzzzz++zzzzzyyyyyyyyxxwwwwwwvvwvvvvvbbbbbbbbyyyyyyyyyyxx
(PID.TID 0000.0001)     20 xwwbbbbbbbyyyyyyyzzzzzzz+bbbbbbzbzzzzz++++zzzzzzzyyyyyxxxwwxxwvvwvvvvubbbbbbbbbyyyyyyyyxwx
(PID.TID 0000.0001)     19 wvvbbbbbbbyzzyyxxyyzzzzzzzzbbbzzzbbbbb++++++z++z+zzzyyyyxxxxxwwwwwwwvvbbbbbbbbbbbyyyxxwwwx
(PID.TID 0000.0001)     18 vutbbbbbbbzzzyyyxyyzyyzzzzzzzz+zzbbb++++++++++++++++zzzyyyyxxwwwvvwvvuubbbbbbbbbbyyxxwvvww
(PID.TID 0000.0001)     17 uutbbbbbbbzbzyyyyyyyyyyyyyyyyzzbbbbbzzzzzzzzzzzzzzzzzzyyyyyxxwwvvuvuuuubbbbbbbbbyyyyxwuuvu
(PID.TID 0000.0001)     16 uusbbbbbbzybzyyyyxxxxxxxwxxxxybbbbbbbyyyyyyyyyyzzyyyyyyyyyyyyxwwvvvuutttbbbbbbbbyyyyywvuvu
(PID.TID 0000.0001)     15 utsrbbbbxyybxxxxxwwwwwwwvvwwxbbbbbbbbbxxxxxxxxxxxxxxyyxxxyyyyxwwwvuuutsssbbbbbbxxxxxxxwwvu
(PID.TID 0000.0001)     14 utsqbbbbxyxxxxwwwxwvvuuuuuuuubbbbbbbbbwwwwwwwwwwwwwwwwwwxxxxxwwwvvuutssssbbbbbvwxwwwxwwwvu
(PID.TID 0000.0001)     13 tttsbbbbwxwvvvuuuvvvuuuttttttbbbbbbbbbvvvvvvvvvuuuuuuvvvvvwwwwvvvuuutsssqbbbbvwwwvvvwwvvvu
(PID.TID 0000.0001)     12 sstsststuuttttssssssstsrrssssrqrrqbbbbuuuttttsssssssssssstuuuttttsstssrqbbbbbuvvutttuutttt
(PID.TID 0000.0001)     11 qpqrssssrrrrrrrqqppoprqppqpppqqqpqqbbtttsssbrrqqqrrrrqqqqrrrqqqrrrrrrrqpbbbbprtsrrrrrqqqqq
(PID.TID 0000.0001)     10 mmmmopppooooooooonnnnnnmmmmmmnnnoooobqrqqqqbpqpppqpoppppppponooopoopppoobbonopppoonoooonnm
(PID.TID 0000.0001)      9 jiiijjjjiijjijjjjijjjjiiijjjijkllmnmmnoooobnnnnnooonnnnnnnmmllmmmmllmmmmbmmmmmmmllkjkkkjij
(PID.TID 0000.0001)      8 ffffffggffgghhgggfgghhgggghhhiijjjkkjklllllkkllllllmmllllkkjjjkkkkkjkkljbkkkjjjiihhgggffef
(PID.TID 0000.0001)      7 ddddeeeffeeefgeeeeeeeeeeeffffggghgghhhijjjjjjjkkjiiihhiiiiiihhiiiiiiijiiijjihhgffeeeeedddd
(PID.TID 0000.0001)      6 cccddddeeddddeedeeedeeeeeeeddeeeeeeffffghhhhhhiihffeeefffgfffffghhhhhhhhhhhgffeedccccccccc
(PID.TID 0000.0001)      5 cccdddddddddddddddddddddccddddeeeeeeeeeeefffeeefedccccccddddddeeeeffffeeeeeeddcccccccbcbbc
(PID.TID 0000.0001)      4 cccdcccbbccbbccccccccbbbbbbbccccccbbcccccccccccccccccccccccccccccccddcccccbbaaabbbcccbbbcc
(PID.TID 0000.0001)      3 bbbbbaaaaabbbbbbbbbbbbbbbbbbbbbbbbbbbbbbbbbbbbbbbbbbbbbbbaaabbbbbbbbbbbbbbbbaaaaabbcccbbbb
(PID.TID 0000.0001)      2 bbbbbbbbbbbbbbbbbbbbbbbbbbbbbbbbbbbbbbbbbbbbbbbbbbbaaaaaaaaaaaaabbaaaabbbbbaaaaaabbbbbbbbb
(PID.TID 0000.0001)      1 bbbbbbbbbbbbbbbbbbbbbbbbbbbbbbbbbbbbbbbbbbbbbbbbbbbbbbbbbbbbbbbbbbbbbbbbbbbbbbbbbbbbbbbbbb
(PID.TID 0000.0001) // =======================================================
(PID.TID 0000.0001) // END OF FIELD                                          =
(PID.TID 0000.0001) // =======================================================
(PID.TID 0000.0001) 
(PID.TID 0000.0001) // =======================================================
(PID.TID 0000.0001) // Field Current etaN   at iteration         20
(PID.TID 0000.0001) // CMIN =         -2.261145759683318E+00
(PID.TID 0000.0001) // CMAX =          1.230640125976550E+00
(PID.TID 0000.0001) // CINT =          1.293254031725877E-01
(PID.TID 0000.0001) // SYMBOLS (CMIN->CMAX): -abcdefghijklmnopqrstuvwxyz+
(PID.TID 0000.0001) //                  0.0: .
(PID.TID 0000.0001) // RANGE I (Lo:Hi:Step):(    -1:    92:     1)
(PID.TID 0000.0001) // RANGE J (Lo:Hi:Step):(    42:    -1:    -1)
(PID.TID 0000.0001) // RANGE K (Lo:Hi:Step):(   1:   1:   1)
(PID.TID 0000.0001) // =======================================================
(PID.TID 0000.0001) K =   1
(PID.TID 0000.0001)                I=8       I=18      I=28      I=38      I=48      I=58      I=68      I=78      I=88
(PID.TID 0000.0001) |--J--|101234567|901234567|901234567|901234567|901234567|901234567|901234567|901234567|901234567|9012
(PID.TID 0000.0001)     42 ............................................fffeeeeffffffffeeeeeee..ffff.....hhhhhhhhhhhh.....
(PID.TID 0000.0001)     41 ..............................................................................................
(PID.TID 0000.0001)     40 lllllmm.ppppppqqqrrrr..................................................................lllllll
(PID.TID 0000.0001)     39 klllmmnoppppqqrr...rr.....................................................----........kkkkklll
(PID.TID 0000.0001)     38 klmmnnooppqqrrs...........................................................aaaab......jjjjkklmm
(PID.TID 0000.0001)     37 lmmnn..................................................................dd...bbc...hhhhi.kllmmn
(PID.TID 0000.0001)     36 mmnn.........................................iijj....................ddefeedcddd.ffggijkklmmnn
(PID.TID 0000.0001)     35 mnno.................................gggg..iiijjjj...mmmnn...........eef....dccddeffgijkllmnno
(PID.TID 0000.0001)     34 .....................................gghh.ijjjjkkk.llllmnop..................eeeeffghjkllo....
(PID.TID 0000.0001)     33 o.....................................iiiijjkkkklllllmmnnoppq.................effhiijklmnno...
(PID.TID 0000.0001)     32 o.....................................jjjjjkklllmmmmnnnoopppp................fghijkllmnnnno...
(PID.TID 0000.0001)     31 ......................................kkkklllmmnnnnooooppqqqq..............kklllllmmnnnnno....
(PID.TID 0000.0001)     30 .....................................nmnnnnnnnooopppppqqqrrrq............llmmnoooooooooooo....
(PID.TID 0000.0001)     29 ...................................rrqqqqqpqqqqqqqqqqqrrrrrrrq...........ooppppppppppppppp....
(PID.TID 0000.0001)     28 .................................uuttssssrrrrrrrrrrrrrrrrrrrrqq.........rqqqqqqqppqqpppppq....
(PID.TID 0000.0001)     27 ................tt..............wvvuuutttsssssssssssssssssrrrrqq...ttss.ssrrrrrqqqqqqqqp......
(PID.TID 0000.0001)     26 ................ttt...........yxxwvvvuuuuuttttttssssssssssrrrrqqqq.ttsttttssssrrrqqqqqqq......
(PID.TID 0000.0001)     25 ................uttu...vvv...zyxxwwvvuuuuuuutttttsssssssssrrrrqqqqq...ttttttsssrrrrqqqqp......
(PID.TID 0000.0001)     24 ..............uuutuuv.vvvv...zyy.xwvuuuuuttutttttttsssssrrrrqqqqqqqqpp.utttsstssrrrrrqqq......
(PID.TID 0000.0001)     23 ..............utuuuvv.vvvv...zzy..vvuuuuuuuuuutttttssssrrrqrqqqqqqqpppp....sstssrrrrrrqr......
(PID.TID 0000.0001)     22 rrr...........uuuuuvvvvvvu...+z.vvvuuuutuuuuuuttttttssssrrrrrrqqqpppppqp......ssssssrrrrssrrr.
(PID.TID 0000.0001)     21 rrsss........uuuuuvvvvuvuvv.....vuuutttttttttttttttttsssrrrrrqqqqppppppp........sssssssrssrrss
(PID.TID 0000.0001)     20 rrrrs.......vuuuuuuuuvuuuvv......v.uuuuuuuuuuuututtuttttsssrrrqqqppppppp.........sssssssssrrrr
(PID.TID 0000.0001)     19 rrrrr.......vvvuuuuuuvvvvvvvv...vvw.....uuuuuuuuuuuutttttssrrrrqqppppppp...........tttsssrrrrr
(PID.TID 0000.0001)     18 rrqrr.......wvwvvvuvvvvvvvvvvvvvvvw...wwvvvuuuuuuuuuuuutttsssrrqqqpppppoo..........utttssrrrqr
(PID.TID 0000.0001)     17 rrrrr.......x.xxwwwwwwwvvvvvvvvvv.....vwvvvvvuuuuuuuuuutttssssrrqqpppppoo.........vvuutssrrrrr
(PID.TID 0000.0001)     16 ssrrr......yx.yyxxwwwwwwwvvvvvvv.......wwvvvuuuuuvuuuutttttssssrrqqqpppoon........wvvuuttsssrr
(PID.TID 0000.0001)     15 ttssrr....+zy.yyxxxwwvwwvvvvuuu.........wvvvvuuuvvuuuutttttttsssrrqqqppoonn......yxwvvvuutttss
(PID.TID 0000.0001)     14 uttssr....+zyyyyxxwwwvvvvvuuutt.........wvuuuuuuuuutttttttttssssrrqqqqpponn.....yyxwvvvvuuutts
(PID.TID 0000.0001)     13 uuttss....zzyyxxwwwvvvvuvvuuttt.........vvuuutuuuttsssssssssssssrrrqqqppoon....yyxxwvvvvvvuutt
(PID.TID 0000.0001)     12 uutttssuwxyyxxwxwwvvvvvvvuuttttsssrr....vuttttttttssrrrrrrrrrrrrrrrqqqppon.....yxxwwvvvuuuuutt
(PID.TID 0000.0001)     11 uttttttvvwwwwwwxwwvvvvuuuuutttsssrrqq..uttsss.tttssrrrrrrrqqqqqqqrqqpppoon....wwwvvvuuuttuuttt
(PID.TID 0000.0001)     10 sssssssssssttttuvvuutttttttsssrrrrqqqp.ssrrrq.tsssrrrrrqrrqqqpppqqqpoooonn..stuuutssssssssssss
(PID.TID 0000.0001)      9 qqqqqqqqppppqrqqrrrrqrrrrqqqqqqqqqqrrqqqqqqp.pqrrrrrrqqqqrrqpppppppoonnnnm.qrrsssrrqqpqqppqqqq
(PID.TID 0000.0001)      8 mnnnnnnnnnnnooooonoooopppoooooooopopppppppooooopqqqqqqqppppppoooooonnnnmmn.opppppooonnnnnmmnnn
(PID.TID 0000.0001)      7 llllkkkllllmmmmmmmllmmllmmmmmmmmmmmmlkkllmmnnnnnonnmmmmmmnmmmmmmmnnnnmmmmnmmnoonmmmmllllllllll
(PID.TID 0000.0001)      6 jjjjjjkkkkkklllkkkkkjkkklkkklllkkkkjjiiijjklmmllllkjjiiiijkklkkkklllllllllllllllkkkkkkkkkkjjjj
(PID.TID 0000.0001)      5 jjjjjjjjkkkjkkkkkkkjjjjjkjjjjjjjjiiiiiiihhiijjjjiihhhgggghiijjiiijjjjjjjjjjiiijjjjjjjjjjjjjjjj
(PID.TID 0000.0001)      4 iiiiijjjjjjjkkkkkkkkkkkkkkkkjjjiiiiihhhhhhhhhhhhgggffffgggghhhgghhhhhhhhgghi..kjjjjiiiiiiiiiii
(PID.TID 0000.0001)      3 iiijjjjjjjjj............................iihhgggggffffffffffffffffffffffffgg..jjiiiiiiiiiiiiiij
(PID.TID 0000.0001)      2 ............................................fffeeeeffffffffeeeeeee..ffff.....hhhhhhhhhhhh.....
(PID.TID 0000.0001)      1 ..............................................................................................
(PID.TID 0000.0001)      0 lllllmm.ppppppqqqrrrr..................................................................lllllll
(PID.TID 0000.0001)     -1 klllmmnoppppqqrr...rr.....................................................----........kkkkklll
(PID.TID 0000.0001) // =======================================================
(PID.TID 0000.0001) // END OF FIELD                                          =
(PID.TID 0000.0001) // =======================================================
(PID.TID 0000.0001) 
(PID.TID 0000.0001)  MDS_WRITE_FIELD: it,rec,kS,kL,kH=      20     1  15   1  15 file=U.0000000020
(PID.TID 0000.0001)  MDS_WRITE_FIELD: it,rec,kS,kL,kH=      20     1  15   1  15 file=V.0000000020
(PID.TID 0000.0001)  MDS_WRITE_FIELD: it,rec,kS,kL,kH=      20     1  15   1  15 file=T.0000000020
(PID.TID 0000.0001)  MDS_WRITE_FIELD: it,rec,kS,kL,kH=      20     1  15   1  15 file=S.0000000020
(PID.TID 0000.0001)  MDS_WRITE_FIELD: it,rec,kS,kL,kH=      20     1   1   1   1 file=Eta.0000000020
(PID.TID 0000.0001)  MDS_WRITE_FIELD: it,rec,kS,kL,kH=      20     1  15   1  15 file=W.0000000020
(PID.TID 0000.0001)  MDS_WRITE_FIELD: it,rec,kS,kL,kH=      20     1  15   1  15 file=PH.0000000020
(PID.TID 0000.0001)  MDS_WRITE_FIELD: it,rec,kS,kL,kH=      20     1   1   1   1 file=PHL.0000000020
(PID.TID 0000.0001)  MDS_WRITE_FIELD: it,rec,kS,kL,kH=      20     1   1   1   1 file=ETAtave.0000000020
(PID.TID 0000.0001)  MDS_WRITE_FIELD: it,rec,kS,kL,kH=      20     1  15   1  15 file=Ttave.0000000020
(PID.TID 0000.0001)  MDS_WRITE_FIELD: it,rec,kS,kL,kH=      20     1  15   1  15 file=Stave.0000000020
(PID.TID 0000.0001)  MDS_WRITE_FIELD: it,rec,kS,kL,kH=      20     1  15   1  15 file=uVeltave.0000000020
(PID.TID 0000.0001)  MDS_WRITE_FIELD: it,rec,kS,kL,kH=      20     1  15   1  15 file=vVeltave.0000000020
(PID.TID 0000.0001)  MDS_WRITE_FIELD: it,rec,kS,kL,kH=      20     1  15   1  15 file=wVeltave.0000000020
(PID.TID 0000.0001)  MDS_WRITE_FIELD: it,rec,kS,kL,kH=      20     1   1   1   1 file=Eta2tave.0000000020
(PID.TID 0000.0001)  MDS_WRITE_FIELD: it,rec,kS,kL,kH=      20     1  15   1  15 file=UTtave.0000000020
(PID.TID 0000.0001)  MDS_WRITE_FIELD: it,rec,kS,kL,kH=      20     1  15   1  15 file=VTtave.0000000020
(PID.TID 0000.0001)  MDS_WRITE_FIELD: it,rec,kS,kL,kH=      20     1  15   1  15 file=WTtave.0000000020
(PID.TID 0000.0001)  MDS_WRITE_FIELD: it,rec,kS,kL,kH=      20     1  15   1  15 file=UStave.0000000020
(PID.TID 0000.0001)  MDS_WRITE_FIELD: it,rec,kS,kL,kH=      20     1  15   1  15 file=VStave.0000000020
(PID.TID 0000.0001)  MDS_WRITE_FIELD: it,rec,kS,kL,kH=      20     1  15   1  15 file=WStave.0000000020
(PID.TID 0000.0001)  MDS_WRITE_FIELD: it,rec,kS,kL,kH=      20     1  15   1  15 file=TTtave.0000000020
(PID.TID 0000.0001)  MDS_WRITE_FIELD: it,rec,kS,kL,kH=      20     1  15   1  15 file=UUtave.0000000020
(PID.TID 0000.0001)  MDS_WRITE_FIELD: it,rec,kS,kL,kH=      20     1  15   1  15 file=VVtave.0000000020
(PID.TID 0000.0001)  MDS_WRITE_FIELD: it,rec,kS,kL,kH=      20     1  15   1  15 file=UVtave.0000000020
(PID.TID 0000.0001)  MDS_WRITE_FIELD: it,rec,kS,kL,kH=      20     1  15   1  15 file=Tdiftave.0000000020
(PID.TID 0000.0001)  MDS_WRITE_FIELD: it,rec,kS,kL,kH=      20     1  15   1  15 file=PhHytave.0000000020
(PID.TID 0000.0001)  MDS_WRITE_FIELD: it,rec,kS,kL,kH=      20     1   1   1   1 file=PHLtave.0000000020
(PID.TID 0000.0001)  MDS_WRITE_FIELD: it,rec,kS,kL,kH=      20     1   1   1   1 file=uFluxtave.0000000020
(PID.TID 0000.0001)  MDS_WRITE_FIELD: it,rec,kS,kL,kH=      20     1   1   1   1 file=vFluxtave.0000000020
(PID.TID 0000.0001)  MDS_WRITE_FIELD: it,rec,kS,kL,kH=      20     1   1   1   1 file=tFluxtave.0000000020
(PID.TID 0000.0001)  MDS_WRITE_FIELD: it,rec,kS,kL,kH=      20     1   1   1   1 file=sFluxtave.0000000020
(PID.TID 0000.0001)  MDS_WRITE_FIELD: it,rec,kS,kL,kH=      20     1   1   1   1 file=PHL2tave.0000000020
(PID.TID 0000.0001)  MDS_WRITE_FIELD: it,rec,kS,kL,kH=      20     1  15   1  15 file=Convtave.0000000020
(PID.TID 0000.0001) // Time-average data written, t-step        20
(PID.TID 0000.0001) 
(PID.TID 0000.0001)  MDS_WRITE_FIELD: it,rec,kS,kL,kH=      20     1  15   1  15 file=GM_Kwx-T.0000000020
(PID.TID 0000.0001)  MDS_WRITE_FIELD: it,rec,kS,kL,kH=      20     1  15   1  15 file=GM_Kwy-T.0000000020
(PID.TID 0000.0001)  MDS_WRITE_FIELD: it,rec,kS,kL,kH=      20     1  15   1  15 file=GM_Kwz-T.0000000020
(PID.TID 0000.0001)  MDS_WRITE_FIELD: it,rec,kS,kL,kH=      20     1  15   1  15 file=pickup_cd.0000000020
(PID.TID 0000.0001)  MDS_WRITE_FIELD: it,rec,kS,kL,kH=      20     2  15   1  15 file=pickup_cd.0000000020
(PID.TID 0000.0001)  MDS_WRITE_FIELD: it,rec,kS,kL,kH=      20     3  15   1  15 file=pickup_cd.0000000020
(PID.TID 0000.0001)  MDS_WRITE_FIELD: it,rec,kS,kL,kH=      20     4  15   1  15 file=pickup_cd.0000000020
(PID.TID 0000.0001)  MDS_WRITE_FIELD: it,rec,kS,kL,kH=      20    61   1   1   1 file=pickup_cd.0000000020
(PID.TID 0000.0001)  MDS_WRITE_FIELD: it,rec,kS,kL,kH=      20    -1  15   1  15 file=pickup.0000000020
(PID.TID 0000.0001)  MDS_WRITE_FIELD: it,rec,kS,kL,kH=      20    -2  15   1  15 file=pickup.0000000020
(PID.TID 0000.0001)  MDS_WRITE_FIELD: it,rec,kS,kL,kH=      20    -3  15   1  15 file=pickup.0000000020
(PID.TID 0000.0001)  MDS_WRITE_FIELD: it,rec,kS,kL,kH=      20    -4  15   1  15 file=pickup.0000000020
(PID.TID 0000.0001)  MDS_WRITE_FIELD: it,rec,kS,kL,kH=      20    -5  15   1  15 file=pickup.0000000020
(PID.TID 0000.0001)  MDS_WRITE_FIELD: it,rec,kS,kL,kH=      20    -6  15   1  15 file=pickup.0000000020
(PID.TID 0000.0001)  MDS_WRITE_FIELD: it,rec,kS,kL,kH=      20    -7  15   1  15 file=pickup.0000000020
(PID.TID 0000.0001)  MDS_WRITE_FIELD: it,rec,kS,kL,kH=      20    -8  15   1  15 file=pickup.0000000020
(PID.TID 0000.0001)  MDS_WRITE_FIELD: it,rec,kS,kL,kH=      20  -121   1   1   1 file=pickup.0000000020
(PID.TID 0000.0001)  MDS_WRITE_FIELD: it,rec,kS,kL,kH=      20  -122   1   1   1 file=pickup.0000000020
(PID.TID 0000.0001)  MDS_WRITE_FIELD: it,rec,kS,kL,kH=      20  -123   1   1   1 file=pickup.0000000020
(PID.TID 0000.0001) %CHECKPOINT        20 0000000020
 EXTERNAL_FIELDS_LOAD,        20 : iP,iLd,i0,i1=    1    2    1    2 ; Wght=  0.8333333333  0.1666666667
 EXTERNAL_FIELDS_LOAD: (fu0,1),fu,fv= -3.5633E-02 -1.4435E-02 -3.2100E-02 -5.0653E-02
 EXTERNAL_FIELDS_LOAD: SST,SSS,Q,E-P=  7.1005E-01  3.4666E+01  2.6156E+02  1.1093E-05
DEBUG_STATS_RL:          Uvel (THERMODYNAMICS)  min= -1.37473946116452E-01
DEBUG_STATS_RL:          Uvel (THERMODYNAMICS)  max=  1.62811602905993E-01
DEBUG_STATS_RL:          Uvel (THERMODYNAMICS) mean=  2.03862881954486E-04
DEBUG_STATS_RL:          Uvel (THERMODYNAMICS) S.D.=  2.35531804216586E-02
DEBUG_STATS_RL:          Vvel (THERMODYNAMICS)  min= -1.28270585528033E-01
DEBUG_STATS_RL:          Vvel (THERMODYNAMICS)  max=  1.36317768447404E-01
DEBUG_STATS_RL:          Vvel (THERMODYNAMICS) mean=  2.50419264913217E-03
DEBUG_STATS_RL:          Vvel (THERMODYNAMICS) S.D.=  1.75159645215325E-02
DEBUG_STATS_RL:          Wvel (THERMODYNAMICS)  min= -1.97599480504202E-04
DEBUG_STATS_RL:          Wvel (THERMODYNAMICS)  max=  2.01358101587921E-04
DEBUG_STATS_RL:          Wvel (THERMODYNAMICS) mean=  3.77725387561463E-07
DEBUG_STATS_RL:          Wvel (THERMODYNAMICS) S.D.=  2.04659773859650E-05
DEBUG_STATS_RL:         Theta (THERMODYNAMICS)  min= -2.01379340383998E+00
DEBUG_STATS_RL:         Theta (THERMODYNAMICS)  max=  2.98623744237157E+01
DEBUG_STATS_RL:         Theta (THERMODYNAMICS) mean=  3.22860937017774E+00
DEBUG_STATS_RL:         Theta (THERMODYNAMICS) S.D.=  5.85689896108789E+00
DEBUG_STATS_RL:          Salt (THERMODYNAMICS)  min=  2.00000000000000E-02
DEBUG_STATS_RL:          Salt (THERMODYNAMICS)  max=  3.74617612533618E+01
DEBUG_STATS_RL:          Salt (THERMODYNAMICS) mean=  1.88651448890799E+01
DEBUG_STATS_RL:          Salt (THERMODYNAMICS) S.D.=  1.73006308912125E+01
DEBUG_STATS_RL:         GtNm1 (THERMODYNAMICS)  min= -4.26001330790175E-06
DEBUG_STATS_RL:         GtNm1 (THERMODYNAMICS)  max=  3.16516275232916E-06
DEBUG_STATS_RL:         GtNm1 (THERMODYNAMICS) mean=  1.77240814312419E-09
DEBUG_STATS_RL:         GtNm1 (THERMODYNAMICS) S.D.=  2.41950342882958E-07
DEBUG_STATS_RL:         GsNm1 (THERMODYNAMICS)  min= -1.05483245565883E-06
DEBUG_STATS_RL:         GsNm1 (THERMODYNAMICS)  max=  8.53978276943231E-07
DEBUG_STATS_RL:         GsNm1 (THERMODYNAMICS) mean= -3.57160003889566E-10
DEBUG_STATS_RL:         GsNm1 (THERMODYNAMICS) S.D.=  2.29100136781996E-08
DEBUG_STATS_RL:                EtaN (DYNAMICS)  min= -2.26114575968332E+00
DEBUG_STATS_RL:                EtaN (DYNAMICS)  max=  1.23064012597655E+00
DEBUG_STATS_RL:                EtaN (DYNAMICS) mean= -1.55451297014985E-01
DEBUG_STATS_RL:                EtaN (DYNAMICS) S.D.=  6.43159704863954E-01
DEBUG_STATS_RL:                Uvel (DYNAMICS)  min= -1.37473946116452E-01
DEBUG_STATS_RL:                Uvel (DYNAMICS)  max=  1.62811602905993E-01
DEBUG_STATS_RL:                Uvel (DYNAMICS) mean=  2.03862881954486E-04
DEBUG_STATS_RL:                Uvel (DYNAMICS) S.D.=  2.35531804216586E-02
DEBUG_STATS_RL:                Vvel (DYNAMICS)  min= -1.28270585528033E-01
DEBUG_STATS_RL:                Vvel (DYNAMICS)  max=  1.36317768447404E-01
DEBUG_STATS_RL:                Vvel (DYNAMICS) mean=  2.50419264913217E-03
DEBUG_STATS_RL:                Vvel (DYNAMICS) S.D.=  1.75159645215325E-02
DEBUG_STATS_RL:                Wvel (DYNAMICS)  min= -1.97599480504202E-04
DEBUG_STATS_RL:                Wvel (DYNAMICS)  max=  2.01358101587921E-04
DEBUG_STATS_RL:                Wvel (DYNAMICS) mean=  3.77725387561463E-07
DEBUG_STATS_RL:                Wvel (DYNAMICS) S.D.=  2.04659773859650E-05
DEBUG_STATS_RL:               Theta (DYNAMICS)  min= -2.01379340383998E+00
DEBUG_STATS_RL:               Theta (DYNAMICS)  max=  2.98623744237157E+01
DEBUG_STATS_RL:               Theta (DYNAMICS) mean=  3.22860937017774E+00
DEBUG_STATS_RL:               Theta (DYNAMICS) S.D.=  5.85689896108789E+00
DEBUG_STATS_RL:                Salt (DYNAMICS)  min=  2.00000000000000E-02
DEBUG_STATS_RL:                Salt (DYNAMICS)  max=  3.74617612533618E+01
DEBUG_STATS_RL:                Salt (DYNAMICS) mean=  1.88651448890799E+01
DEBUG_STATS_RL:                Salt (DYNAMICS) S.D.=  1.73006308912125E+01
DEBUG_STATS_RL:                  Gu (DYNAMICS)  min= -1.45945789274869E-01
DEBUG_STATS_RL:                  Gu (DYNAMICS)  max=  1.58737141365775E-01
DEBUG_STATS_RL:                  Gu (DYNAMICS) mean=  3.85085012320140E-05
DEBUG_STATS_RL:                  Gu (DYNAMICS) S.D.=  2.33873895905305E-02
DEBUG_STATS_RL:                  Gv (DYNAMICS)  min= -1.29057137990713E-01
DEBUG_STATS_RL:                  Gv (DYNAMICS)  max=  1.60515236725391E-01
DEBUG_STATS_RL:                  Gv (DYNAMICS) mean=  4.29190609897597E-03
DEBUG_STATS_RL:                  Gv (DYNAMICS) S.D.=  1.94351099206484E-02
DEBUG_STATS_RL:               GuNm1 (DYNAMICS)  min= -6.86405611349993E-06
DEBUG_STATS_RL:               GuNm1 (DYNAMICS)  max=  7.98474444044127E-06
DEBUG_STATS_RL:               GuNm1 (DYNAMICS) mean= -9.92009987117376E-09
DEBUG_STATS_RL:               GuNm1 (DYNAMICS) S.D.=  1.15115610433546E-06
DEBUG_STATS_RL:               GvNm1 (DYNAMICS)  min= -9.06743032813178E-06
DEBUG_STATS_RL:               GvNm1 (DYNAMICS)  max=  1.70094313165113E-05
DEBUG_STATS_RL:               GvNm1 (DYNAMICS) mean=  7.73854466545961E-07
DEBUG_STATS_RL:               GvNm1 (DYNAMICS) S.D.=  2.59708142352171E-06
DEBUG_STATS_RL:               GtNm1 (DYNAMICS)  min= -4.26001330790175E-06
DEBUG_STATS_RL:               GtNm1 (DYNAMICS)  max=  3.16516275232916E-06
DEBUG_STATS_RL:               GtNm1 (DYNAMICS) mean=  1.77240814312419E-09
DEBUG_STATS_RL:               GtNm1 (DYNAMICS) S.D.=  2.41950342882958E-07
DEBUG_STATS_RL:               GsNm1 (DYNAMICS)  min= -1.05483245565883E-06
DEBUG_STATS_RL:               GsNm1 (DYNAMICS)  max=  8.53978276943231E-07
DEBUG_STATS_RL:               GsNm1 (DYNAMICS) mean= -3.57160003889566E-10
DEBUG_STATS_RL:               GsNm1 (DYNAMICS) S.D.=  2.29100136781996E-08
DEBUG_STATS_RL:    cg2d_b (SOLVE_FOR_PRESSURE)  min= -2.23475645571972E+04
DEBUG_STATS_RL:    cg2d_b (SOLVE_FOR_PRESSURE)  max=  1.79129811567074E+04
DEBUG_STATS_RL:    cg2d_b (SOLVE_FOR_PRESSURE) mean=  1.45770631620134E+00
DEBUG_STATS_RL:    cg2d_b (SOLVE_FOR_PRESSURE) S.D.=  3.59697558881802E+03
 cg2d: Sum(rhs),rhsMax =   1.51004827097347E-01  1.46784787406065E+00
(PID.TID 0000.0001)  cg2d: iter=     1 ; resid.=  3.81376760188564E-01
(PID.TID 0000.0001)  cg2d: iter=     2 ; resid.=  3.43888829457242E-01
(PID.TID 0000.0001)  cg2d: iter=     3 ; resid.=  3.34391494688433E-01
(PID.TID 0000.0001)  cg2d: iter=     4 ; resid.=  3.44052478673290E-01
(PID.TID 0000.0001)  cg2d: iter=     5 ; resid.=  2.90532060046222E-01
(PID.TID 0000.0001)  cg2d: iter=     6 ; resid.=  2.19106192991014E-01
(PID.TID 0000.0001)  cg2d: iter=     7 ; resid.=  2.15959710907884E-01
(PID.TID 0000.0001)  cg2d: iter=     8 ; resid.=  1.80457638809285E-01
(PID.TID 0000.0001)  cg2d: iter=     9 ; resid.=  1.38172052614208E-01
(PID.TID 0000.0001)  cg2d: iter=    10 ; resid.=  1.18965376746217E-01
(PID.TID 0000.0001)  cg2d: iter=    11 ; resid.=  1.00810800105120E-01
(PID.TID 0000.0001)  cg2d: iter=    12 ; resid.=  7.81429248537858E-02
(PID.TID 0000.0001)  cg2d: iter=    13 ; resid.=  6.04644855536925E-02
(PID.TID 0000.0001)  cg2d: iter=    14 ; resid.=  5.43406325397084E-02
(PID.TID 0000.0001)  cg2d: iter=    15 ; resid.=  4.41409369080439E-02
(PID.TID 0000.0001)  cg2d: iter=    16 ; resid.=  4.16880892801835E-02
(PID.TID 0000.0001)  cg2d: iter=    17 ; resid.=  3.95568839906307E-02
(PID.TID 0000.0001)  cg2d: iter=    18 ; resid.=  3.03290530744908E-02
(PID.TID 0000.0001)  cg2d: iter=    19 ; resid.=  2.44552820401719E-02
(PID.TID 0000.0001)  cg2d: iter=    20 ; resid.=  2.16638473053621E-02
(PID.TID 0000.0001)  cg2d: iter=    21 ; resid.=  1.76753924645532E-02
(PID.TID 0000.0001)  cg2d: iter=    22 ; resid.=  1.46613538359627E-02
(PID.TID 0000.0001)  cg2d: iter=    23 ; resid.=  1.35230623623045E-02
(PID.TID 0000.0001)  cg2d: iter=    24 ; resid.=  1.21090075498467E-02
(PID.TID 0000.0001)  cg2d: iter=    25 ; resid.=  8.86875734944431E-03
(PID.TID 0000.0001)  cg2d: iter=    26 ; resid.=  7.19473864232499E-03
(PID.TID 0000.0001)  cg2d: iter=    27 ; resid.=  6.06823873316077E-03
(PID.TID 0000.0001)  cg2d: iter=    28 ; resid.=  5.18384755857057E-03
(PID.TID 0000.0001)  cg2d: iter=    29 ; resid.=  4.11967007332226E-03
(PID.TID 0000.0001)  cg2d: iter=    30 ; resid.=  3.73189486216113E-03
(PID.TID 0000.0001)  cg2d: iter=    31 ; resid.=  3.16324619534964E-03
(PID.TID 0000.0001)  cg2d: iter=    32 ; resid.=  2.55160545552764E-03
(PID.TID 0000.0001)  cg2d: iter=    33 ; resid.=  2.23014830759250E-03
(PID.TID 0000.0001)  cg2d: iter=    34 ; resid.=  1.85582788166437E-03
(PID.TID 0000.0001)  cg2d: iter=    35 ; resid.=  1.42064073830226E-03
(PID.TID 0000.0001)  cg2d: iter=    36 ; resid.=  1.16858841961606E-03
(PID.TID 0000.0001)  cg2d: iter=    37 ; resid.=  1.00658120647673E-03
(PID.TID 0000.0001)  cg2d: iter=    38 ; resid.=  9.03297496229824E-04
(PID.TID 0000.0001)  cg2d: iter=    39 ; resid.=  7.99617606863179E-04
(PID.TID 0000.0001)  cg2d: iter=    40 ; resid.=  6.65904017184851E-04
(PID.TID 0000.0001)  cg2d: iter=    41 ; resid.=  4.90332036229413E-04
(PID.TID 0000.0001)  cg2d: iter=    42 ; resid.=  4.01307672458717E-04
(PID.TID 0000.0001)  cg2d: iter=    43 ; resid.=  3.16376491087957E-04
(PID.TID 0000.0001)  cg2d: iter=    44 ; resid.=  2.44006613231462E-04
(PID.TID 0000.0001)  cg2d: iter=    45 ; resid.=  1.81443151914207E-04
(PID.TID 0000.0001)  cg2d: iter=    46 ; resid.=  1.51556909885333E-04
(PID.TID 0000.0001)  cg2d: iter=    47 ; resid.=  1.34300304570092E-04
(PID.TID 0000.0001)  cg2d: iter=    48 ; resid.=  1.06644391068635E-04
(PID.TID 0000.0001)  cg2d: iter=    49 ; resid.=  9.23355141901986E-05
(PID.TID 0000.0001)  cg2d: iter=    50 ; resid.=  8.01758074209099E-05
(PID.TID 0000.0001)  cg2d: iter=    51 ; resid.=  6.32784913039860E-05
(PID.TID 0000.0001)  cg2d: iter=    52 ; resid.=  4.98110919594949E-05
(PID.TID 0000.0001)  cg2d: iter=    53 ; resid.=  4.07823299981526E-05
(PID.TID 0000.0001)  cg2d: iter=    54 ; resid.=  3.43863928469068E-05
(PID.TID 0000.0001)  cg2d: iter=    55 ; resid.=  2.86823125954495E-05
(PID.TID 0000.0001)  cg2d: iter=    56 ; resid.=  2.34468013241964E-05
(PID.TID 0000.0001)  cg2d: iter=    57 ; resid.=  1.82636547556186E-05
(PID.TID 0000.0001)  cg2d: iter=    58 ; resid.=  1.37592486668816E-05
(PID.TID 0000.0001)  cg2d: iter=    59 ; resid.=  1.12725558780795E-05
(PID.TID 0000.0001)  cg2d: iter=    60 ; resid.=  8.79147505021600E-06
(PID.TID 0000.0001)  cg2d: iter=    61 ; resid.=  6.98879306646702E-06
(PID.TID 0000.0001)  cg2d: iter=    62 ; resid.=  5.57481748959537E-06
(PID.TID 0000.0001)  cg2d: iter=    63 ; resid.=  4.82854149238880E-06
(PID.TID 0000.0001)  cg2d: iter=    64 ; resid.=  3.84744645322615E-06
(PID.TID 0000.0001)  cg2d: iter=    65 ; resid.=  3.04431742054195E-06
(PID.TID 0000.0001)  cg2d: iter=    66 ; resid.=  2.31963318360768E-06
(PID.TID 0000.0001)  cg2d: iter=    67 ; resid.=  1.93757006205744E-06
(PID.TID 0000.0001)  cg2d: iter=    68 ; resid.=  1.42520219176520E-06
(PID.TID 0000.0001)  cg2d: iter=    69 ; resid.=  1.06510812950052E-06
(PID.TID 0000.0001)  cg2d: iter=    70 ; resid.=  7.81536185476417E-07
(PID.TID 0000.0001)  cg2d: iter=    71 ; resid.=  5.97210140543156E-07
(PID.TID 0000.0001)  cg2d: iter=    72 ; resid.=  4.89485114921016E-07
(PID.TID 0000.0001)  cg2d: iter=    73 ; resid.=  4.15521928590129E-07
(PID.TID 0000.0001)  cg2d: iter=    74 ; resid.=  3.50167923732431E-07
(PID.TID 0000.0001)  cg2d: iter=    75 ; resid.=  2.89309397264406E-07
(PID.TID 0000.0001)  cg2d: iter=    76 ; resid.=  2.52219103247458E-07
(PID.TID 0000.0001)  cg2d: iter=    77 ; resid.=  2.24886345197298E-07
(PID.TID 0000.0001)  cg2d: iter=    78 ; resid.=  2.04842804450710E-07
(PID.TID 0000.0001)  cg2d: iter=    79 ; resid.=  1.91513258724000E-07
(PID.TID 0000.0001)  cg2d: iter=    80 ; resid.=  1.49438256358795E-07
(PID.TID 0000.0001)  cg2d: iter=    81 ; resid.=  1.20363681921013E-07
(PID.TID 0000.0001)  cg2d: iter=    82 ; resid.=  9.79153123126160E-08
(PID.TID 0000.0001)  cg2d: iter=    83 ; resid.=  7.83576759810861E-08
(PID.TID 0000.0001)  cg2d: iter=    84 ; resid.=  6.72296610424535E-08
(PID.TID 0000.0001)  cg2d: iter=    85 ; resid.=  5.44821146684532E-08
(PID.TID 0000.0001)  cg2d: iter=    86 ; resid.=  4.39548371832829E-08
(PID.TID 0000.0001)  cg2d: iter=    87 ; resid.=  3.79859032418538E-08
(PID.TID 0000.0001)  cg2d: iter=    88 ; resid.=  3.16598555130076E-08
(PID.TID 0000.0001)  cg2d: iter=    89 ; resid.=  2.61119242926304E-08
(PID.TID 0000.0001)  cg2d: iter=    90 ; resid.=  1.97180216235281E-08
(PID.TID 0000.0001)  cg2d: iter=    91 ; resid.=  1.54534302328616E-08
(PID.TID 0000.0001)  cg2d: iter=    92 ; resid.=  1.15263074323322E-08
(PID.TID 0000.0001)  cg2d: iter=    93 ; resid.=  7.76400736189699E-09
(PID.TID 0000.0001)  cg2d: iter=    94 ; resid.=  6.12192105092906E-09
(PID.TID 0000.0001)  cg2d: iter=    95 ; resid.=  5.01059234344369E-09
(PID.TID 0000.0001)  cg2d: iter=    96 ; resid.=  4.03213856089824E-09
(PID.TID 0000.0001)  cg2d: iter=    97 ; resid.=  3.30242422370505E-09
(PID.TID 0000.0001)  cg2d: iter=    98 ; resid.=  2.85307516191567E-09
(PID.TID 0000.0001)  cg2d: iter=    99 ; resid.=  2.56564316824972E-09
(PID.TID 0000.0001)  cg2d: iter=   100 ; resid.=  2.28326131863461E-09
(PID.TID 0000.0001)  cg2d: iter=   101 ; resid.=  1.90971301230917E-09
(PID.TID 0000.0001)  cg2d: iter=   102 ; resid.=  1.56095403307372E-09
(PID.TID 0000.0001)  cg2d: iter=   103 ; resid.=  1.31161801466199E-09
(PID.TID 0000.0001)  cg2d: iter=   104 ; resid.=  9.68375244683935E-10
(PID.TID 0000.0001)  cg2d: iter=   105 ; resid.=  6.75644051189994E-10
(PID.TID 0000.0001)  cg2d: iter=   106 ; resid.=  4.83845205549925E-10
(PID.TID 0000.0001)  cg2d: iter=   107 ; resid.=  3.25351858890605E-10
(PID.TID 0000.0001)  cg2d: iter=   108 ; resid.=  2.30790099328992E-10
(PID.TID 0000.0001)  cg2d: iter=   109 ; resid.=  1.70637054864352E-10
(PID.TID 0000.0001)  cg2d: iter=   110 ; resid.=  1.32735898038446E-10
(PID.TID 0000.0001)  cg2d: iter=   111 ; resid.=  1.12716059126382E-10
(PID.TID 0000.0001)  cg2d: iter=   112 ; resid.=  8.87485810334256E-11
(PID.TID 0000.0001)  cg2d: iter=   113 ; resid.=  6.71318669833748E-11
(PID.TID 0000.0001)  cg2d: iter=   114 ; resid.=  5.57133788723059E-11
(PID.TID 0000.0001)  cg2d: iter=   115 ; resid.=  4.20217475785273E-11
(PID.TID 0000.0001)  cg2d: iter=   116 ; resid.=  3.00423617772648E-11
(PID.TID 0000.0001)  cg2d: iter=   117 ; resid.=  2.43195006643378E-11
(PID.TID 0000.0001)  cg2d: iter=   118 ; resid.=  1.82198831725810E-11
(PID.TID 0000.0001)  cg2d: iter=   119 ; resid.=  1.39697288055842E-11
(PID.TID 0000.0001)  cg2d: iter=   120 ; resid.=  1.06677094439238E-11
(PID.TID 0000.0001)  cg2d: iter=   121 ; resid.=  8.11064509479373E-12
(PID.TID 0000.0001)  cg2d: iter=   122 ; resid.=  6.16156427078460E-12
(PID.TID 0000.0001)  cg2d: iter=   123 ; resid.=  4.30667333059296E-12
(PID.TID 0000.0001)  cg2d: iter=   124 ; resid.=  2.99097796755428E-12
(PID.TID 0000.0001)  cg2d: iter=   125 ; resid.=  2.06999231146636E-12
(PID.TID 0000.0001)  cg2d: iter=   126 ; resid.=  1.50715357479129E-12
(PID.TID 0000.0001)  cg2d: iter=   127 ; resid.=  1.00064053298374E-12
(PID.TID 0000.0001)  cg2d: iter=   128 ; resid.=  6.68811000744719E-13
(PID.TID 0000.0001)  cg2d: iter=   129 ; resid.=  4.97037232631193E-13
(PID.TID 0000.0001)  cg2d: iter=   130 ; resid.=  3.75964719481232E-13
(PID.TID 0000.0001)  cg2d: iter=   131 ; resid.=  3.08431642174006E-13
(PID.TID 0000.0001)  cg2d: iter=   132 ; resid.=  2.50629114243791E-13
(PID.TID 0000.0001)  cg2d: iter=   133 ; resid.=  2.00606000758230E-13
(PID.TID 0000.0001)  cg2d: iter=   134 ; resid.=  1.63007974036033E-13
(PID.TID 0000.0001)  cg2d: iter=   135 ; resid.=  1.28696016555177E-13
(PID.TID 0000.0001)  cg2d: iter=   136 ; resid.=  8.61921307718831E-14
DEBUG_STATS_RL:    cg2d_x (SOLVE_FOR_PRESSURE)  min= -2.06226254294408E+01
DEBUG_STATS_RL:    cg2d_x (SOLVE_FOR_PRESSURE)  max=  1.19263464213050E+01
DEBUG_STATS_RL:    cg2d_x (SOLVE_FOR_PRESSURE) mean= -1.50303603889486E+00
DEBUG_STATS_RL:    cg2d_x (SOLVE_FOR_PRESSURE) S.D.=  6.29667740018587E+00
(PID.TID 0000.0001)      cg2d_init_res =   5.73056668831009E-01
(PID.TID 0000.0001)      cg2d_iters(min,last) =      -1     136
(PID.TID 0000.0001)      cg2d_last_res =   8.61921307718831E-14
(PID.TID 0000.0001) // =======================================================
(PID.TID 0000.0001) // Begin MONITOR dynamic field statistics
(PID.TID 0000.0001) // =======================================================
(PID.TID 0000.0001) %MON time_tsnumber                =                    21
(PID.TID 0000.0001) %MON time_secondsf                =   1.8144000000000E+06
(PID.TID 0000.0001) %MON dynstat_eta_max              =   1.2157335801534E+00
(PID.TID 0000.0001) %MON dynstat_eta_min              =  -2.1022044270582E+00
(PID.TID 0000.0001) %MON dynstat_eta_mean             =  -1.5209357913402E-03
(PID.TID 0000.0001) %MON dynstat_eta_sd               =   5.6224199512256E-01
(PID.TID 0000.0001) %MON dynstat_eta_del2             =   1.9049824917687E-03
(PID.TID 0000.0001) %MON dynstat_uvel_max             =   1.5785818884457E-01
(PID.TID 0000.0001) %MON dynstat_uvel_min             =  -1.4393480787817E-01
(PID.TID 0000.0001) %MON dynstat_uvel_mean            =  -2.5528993586353E-03
(PID.TID 0000.0001) %MON dynstat_uvel_sd              =   1.7508104286248E-02
(PID.TID 0000.0001) %MON dynstat_uvel_del2            =   1.0038185868790E-04
(PID.TID 0000.0001) %MON dynstat_vvel_max             =   1.4230695245252E-01
(PID.TID 0000.0001) %MON dynstat_vvel_min             =  -1.2610184800944E-01
(PID.TID 0000.0001) %MON dynstat_vvel_mean            =   7.6711486510308E-04
(PID.TID 0000.0001) %MON dynstat_vvel_sd              =   1.1393896045595E-02
(PID.TID 0000.0001) %MON dynstat_vvel_del2            =   9.8741154300776E-05
(PID.TID 0000.0001) %MON dynstat_wvel_max             =   1.8083868338738E-04
(PID.TID 0000.0001) %MON dynstat_wvel_min             =  -1.7503385363413E-04
(PID.TID 0000.0001) %MON dynstat_wvel_mean            =   3.3247069719306E-22
(PID.TID 0000.0001) %MON dynstat_wvel_sd              =   2.1895988448734E-05
(PID.TID 0000.0001) %MON dynstat_wvel_del2            =   2.4225042794269E-07
(PID.TID 0000.0001) %MON dynstat_theta_max            =   2.9862374423716E+01
(PID.TID 0000.0001) %MON dynstat_theta_min            =  -2.0137934038400E+00
(PID.TID 0000.0001) %MON dynstat_theta_mean           =   3.6402222336951E+00
(PID.TID 0000.0001) %MON dynstat_theta_sd             =   4.4159160839396E+00
(PID.TID 0000.0001) %MON dynstat_theta_del2           =   4.8646433011137E-03
(PID.TID 0000.0001) %MON dynstat_salt_max             =   3.7461761253362E+01
(PID.TID 0000.0001) %MON dynstat_salt_min             =   2.9786285381906E+01
(PID.TID 0000.0001) %MON dynstat_salt_mean            =   3.4737947969232E+01
(PID.TID 0000.0001) %MON dynstat_salt_sd              =   2.9621355690195E-01
(PID.TID 0000.0001) %MON dynstat_salt_del2            =   1.0106827840908E-03
(PID.TID 0000.0001) %MON dynstat_sst_max              =   2.9862374423716E+01
(PID.TID 0000.0001) %MON dynstat_sst_min              =  -2.0137934038400E+00
(PID.TID 0000.0001) %MON dynstat_sst_mean             =   1.8708068912669E+01
(PID.TID 0000.0001) %MON dynstat_sst_sd               =   9.0585814680919E+00
(PID.TID 0000.0001) %MON dynstat_sst_del2             =   2.6377598231615E-02
(PID.TID 0000.0001) %MON dynstat_sss_max              =   3.7449778627378E+01
(PID.TID 0000.0001) %MON dynstat_sss_min              =   2.9786285381906E+01
(PID.TID 0000.0001) %MON dynstat_sss_mean             =   3.4872283510950E+01
(PID.TID 0000.0001) %MON dynstat_sss_sd               =   9.7261592374002E-01
(PID.TID 0000.0001) %MON dynstat_sss_del2             =   7.9745339555100E-03
(PID.TID 0000.0001) %MON forcing_qnet_max             =   4.2501818339030E+02
(PID.TID 0000.0001) %MON forcing_qnet_min             =  -1.7882195027669E+02
(PID.TID 0000.0001) %MON forcing_qnet_mean            =  -1.6087980164027E+01
(PID.TID 0000.0001) %MON forcing_qnet_sd              =   1.0451573706380E+02
(PID.TID 0000.0001) %MON forcing_qnet_del2            =   1.0046269814196E+00
(PID.TID 0000.0001) %MON forcing_qsw_max              =   0.0000000000000E+00
(PID.TID 0000.0001) %MON forcing_qsw_min              =   0.0000000000000E+00
(PID.TID 0000.0001) %MON forcing_qsw_mean             =   0.0000000000000E+00
(PID.TID 0000.0001) %MON forcing_qsw_sd               =   0.0000000000000E+00
(PID.TID 0000.0001) %MON forcing_qsw_del2             =   0.0000000000000E+00
(PID.TID 0000.0001) %MON forcing_empmr_max            =   8.0603790308942E-05
(PID.TID 0000.0001) %MON forcing_empmr_min            =  -7.6554177515694E-05
(PID.TID 0000.0001) %MON forcing_empmr_mean           =   9.2634904841042E-07
(PID.TID 0000.0001) %MON forcing_empmr_sd             =   2.8551238028456E-05
(PID.TID 0000.0001) %MON forcing_empmr_del2           =   3.6194392674950E-07
(PID.TID 0000.0001) %MON forcing_fu_max               =   2.7779850363731E-01
(PID.TID 0000.0001) %MON forcing_fu_min               =  -1.7423425614834E-01
(PID.TID 0000.0001) %MON forcing_fu_mean              =   1.6273236229911E-02
(PID.TID 0000.0001) %MON forcing_fu_sd                =   9.0302370992227E-02
(PID.TID 0000.0001) %MON forcing_fu_del2              =   6.9156155412209E-04
(PID.TID 0000.0001) %MON forcing_fv_max               =   2.1707908560832E-01
(PID.TID 0000.0001) %MON forcing_fv_min               =  -1.7318040132523E-01
(PID.TID 0000.0001) %MON forcing_fv_mean              =  -5.5852022730810E-03
(PID.TID 0000.0001) %MON forcing_fv_sd                =   4.6781725511238E-02
(PID.TID 0000.0001) %MON forcing_fv_del2              =   4.7604155407923E-04
(PID.TID 0000.0001) %MON trAdv_CFL_u_max              =   5.1576141670461E-02
(PID.TID 0000.0001) %MON trAdv_CFL_v_max              =   2.7430923904665E-02
(PID.TID 0000.0001) %MON trAdv_CFL_w_max              =   6.3986134774403E-02
(PID.TID 0000.0001) %MON advcfl_uvel_max              =   4.2552424273174E-02
(PID.TID 0000.0001) %MON advcfl_vvel_max              =   2.7647958532403E-02
(PID.TID 0000.0001) %MON advcfl_wvel_max              =   5.1727436095846E-02
(PID.TID 0000.0001) %MON advcfl_W_hf_max              =   5.9430205112598E-02
(PID.TID 0000.0001) %MON pe_b_mean                    =   4.0451156259146E-04
(PID.TID 0000.0001) %MON ke_max                       =   1.4278327749863E-02
(PID.TID 0000.0001) %MON ke_mean                      =   2.0077027775607E-04
(PID.TID 0000.0001) %MON ke_vol                       =   1.3226782436723E+18
(PID.TID 0000.0001) %MON vort_r_min                   =  -3.5106906690775E-07
(PID.TID 0000.0001) %MON vort_r_max                   =   5.4095915803771E-07
(PID.TID 0000.0001) %MON vort_a_mean                  =  -2.5274806911902E-05
(PID.TID 0000.0001) %MON vort_a_sd                    =   7.3603947164564E-05
(PID.TID 0000.0001) %MON vort_p_mean                  =  -3.1845655187692E-05
(PID.TID 0000.0001) %MON vort_p_sd                    =   1.3162379163238E-04
(PID.TID 0000.0001) %MON surfExpan_theta_mean         =  -4.2382853030487E-08
(PID.TID 0000.0001) %MON surfExpan_salt_mean          =   1.9498561095255E-07
(PID.TID 0000.0001) // =======================================================
(PID.TID 0000.0001) // End MONITOR dynamic field statistics
(PID.TID 0000.0001) // =======================================================
 EXTERNAL_FIELDS_LOAD,        21 : iP,iLd,i0,i1=    1    2    1    2 ; Wght=  0.8000000000  0.2000000000
 EXTERNAL_FIELDS_LOAD: (fu0,1),fu,fv= -3.5633E-02 -1.4435E-02 -3.1393E-02 -4.9332E-02
 EXTERNAL_FIELDS_LOAD: SST,SSS,Q,E-P=  6.6037E-01  3.4656E+01  2.6071E+02  1.0985E-05
DEBUG_STATS_RL:          Uvel (THERMODYNAMICS)  min= -1.43934807878166E-01
DEBUG_STATS_RL:          Uvel (THERMODYNAMICS)  max=  1.57858188844568E-01
DEBUG_STATS_RL:          Uvel (THERMODYNAMICS) mean=  3.08994871275676E-04
DEBUG_STATS_RL:          Uvel (THERMODYNAMICS) S.D.=  2.28769788845326E-02
DEBUG_STATS_RL:          Vvel (THERMODYNAMICS)  min= -1.26101848009443E-01
DEBUG_STATS_RL:          Vvel (THERMODYNAMICS)  max=  1.42306952452522E-01
DEBUG_STATS_RL:          Vvel (THERMODYNAMICS) mean=  2.54234567952091E-03
DEBUG_STATS_RL:          Vvel (THERMODYNAMICS) S.D.=  1.77454707976386E-02
DEBUG_STATS_RL:          Wvel (THERMODYNAMICS)  min= -1.75033853634127E-04
DEBUG_STATS_RL:          Wvel (THERMODYNAMICS)  max=  1.80838683387380E-04
DEBUG_STATS_RL:          Wvel (THERMODYNAMICS) mean=  3.99486583754220E-07
DEBUG_STATS_RL:          Wvel (THERMODYNAMICS) S.D.=  1.97724836911552E-05
DEBUG_STATS_RL:         Theta (THERMODYNAMICS)  min= -2.01207122619908E+00
DEBUG_STATS_RL:         Theta (THERMODYNAMICS)  max=  2.98718782560529E+01
DEBUG_STATS_RL:         Theta (THERMODYNAMICS) mean=  3.22860702763703E+00
DEBUG_STATS_RL:         Theta (THERMODYNAMICS) S.D.=  5.85712249314344E+00
DEBUG_STATS_RL:          Salt (THERMODYNAMICS)  min=  2.00000000000000E-02
DEBUG_STATS_RL:          Salt (THERMODYNAMICS)  max=  3.74624878746750E+01
DEBUG_STATS_RL:          Salt (THERMODYNAMICS) mean=  1.88651272675549E+01
DEBUG_STATS_RL:          Salt (THERMODYNAMICS) S.D.=  1.73006145129455E+01
DEBUG_STATS_RL:         GtNm1 (THERMODYNAMICS)  min= -4.50898638406772E-06
DEBUG_STATS_RL:         GtNm1 (THERMODYNAMICS)  max=  3.28180409760135E-06
DEBUG_STATS_RL:         GtNm1 (THERMODYNAMICS) mean=  6.06677489292400E-10
DEBUG_STATS_RL:         GtNm1 (THERMODYNAMICS) S.D.=  2.44135864067739E-07
DEBUG_STATS_RL:         GsNm1 (THERMODYNAMICS)  min= -1.11175889617674E-06
DEBUG_STATS_RL:         GsNm1 (THERMODYNAMICS)  max=  8.82129178090283E-07
DEBUG_STATS_RL:         GsNm1 (THERMODYNAMICS) mean= -4.43402920181951E-10
DEBUG_STATS_RL:         GsNm1 (THERMODYNAMICS) S.D.=  2.34150889062130E-08
DEBUG_STATS_RL:                EtaN (DYNAMICS)  min= -2.10220442705821E+00
DEBUG_STATS_RL:                EtaN (DYNAMICS)  max=  1.21573358015341E+00
DEBUG_STATS_RL:                EtaN (DYNAMICS) mean= -1.53214682863900E-01
DEBUG_STATS_RL:                EtaN (DYNAMICS) S.D.=  6.41863139672364E-01
DEBUG_STATS_RL:                Uvel (DYNAMICS)  min= -1.43934807878166E-01
DEBUG_STATS_RL:                Uvel (DYNAMICS)  max=  1.57858188844568E-01
DEBUG_STATS_RL:                Uvel (DYNAMICS) mean=  3.08994871275676E-04
DEBUG_STATS_RL:                Uvel (DYNAMICS) S.D.=  2.28769788845326E-02
DEBUG_STATS_RL:                Vvel (DYNAMICS)  min= -1.26101848009443E-01
DEBUG_STATS_RL:                Vvel (DYNAMICS)  max=  1.42306952452522E-01
DEBUG_STATS_RL:                Vvel (DYNAMICS) mean=  2.54234567952091E-03
DEBUG_STATS_RL:                Vvel (DYNAMICS) S.D.=  1.77454707976386E-02
DEBUG_STATS_RL:                Wvel (DYNAMICS)  min= -1.75033853634127E-04
DEBUG_STATS_RL:                Wvel (DYNAMICS)  max=  1.80838683387380E-04
DEBUG_STATS_RL:                Wvel (DYNAMICS) mean=  3.99486583754220E-07
DEBUG_STATS_RL:                Wvel (DYNAMICS) S.D.=  1.97724836911552E-05
DEBUG_STATS_RL:               Theta (DYNAMICS)  min= -2.01207122619908E+00
DEBUG_STATS_RL:               Theta (DYNAMICS)  max=  2.98718782560529E+01
DEBUG_STATS_RL:               Theta (DYNAMICS) mean=  3.22860702763703E+00
DEBUG_STATS_RL:               Theta (DYNAMICS) S.D.=  5.85712249314344E+00
DEBUG_STATS_RL:                Salt (DYNAMICS)  min=  2.00000000000000E-02
DEBUG_STATS_RL:                Salt (DYNAMICS)  max=  3.74624878746750E+01
DEBUG_STATS_RL:                Salt (DYNAMICS) mean=  1.88651272675549E+01
DEBUG_STATS_RL:                Salt (DYNAMICS) S.D.=  1.73006145129455E+01
DEBUG_STATS_RL:                  Gu (DYNAMICS)  min= -1.51945313042271E-01
DEBUG_STATS_RL:                  Gu (DYNAMICS)  max=  1.52646559723116E-01
DEBUG_STATS_RL:                  Gu (DYNAMICS) mean=  3.44653370866996E-04
DEBUG_STATS_RL:                  Gu (DYNAMICS) S.D.=  2.28604588296886E-02
DEBUG_STATS_RL:                  Gv (DYNAMICS)  min= -1.34906955478886E-01
DEBUG_STATS_RL:                  Gv (DYNAMICS)  max=  1.63350809287630E-01
DEBUG_STATS_RL:                  Gv (DYNAMICS) mean=  4.39065080261057E-03
DEBUG_STATS_RL:                  Gv (DYNAMICS) S.D.=  1.95344012870699E-02
DEBUG_STATS_RL:               GuNm1 (DYNAMICS)  min= -6.90134351066796E-06
DEBUG_STATS_RL:               GuNm1 (DYNAMICS)  max=  8.04855602826513E-06
DEBUG_STATS_RL:               GuNm1 (DYNAMICS) mean= -8.45622913042891E-09
DEBUG_STATS_RL:               GuNm1 (DYNAMICS) S.D.=  1.16222361937519E-06
DEBUG_STATS_RL:               GvNm1 (DYNAMICS)  min= -9.31406647197461E-06
DEBUG_STATS_RL:               GvNm1 (DYNAMICS)  max=  1.70603263337683E-05
DEBUG_STATS_RL:               GvNm1 (DYNAMICS) mean=  7.74563594228563E-07
DEBUG_STATS_RL:               GvNm1 (DYNAMICS) S.D.=  2.60636957899586E-06
DEBUG_STATS_RL:               GtNm1 (DYNAMICS)  min= -4.50898638406772E-06
DEBUG_STATS_RL:               GtNm1 (DYNAMICS)  max=  3.28180409760135E-06
DEBUG_STATS_RL:               GtNm1 (DYNAMICS) mean=  6.06677489292400E-10
DEBUG_STATS_RL:               GtNm1 (DYNAMICS) S.D.=  2.44135864067739E-07
DEBUG_STATS_RL:               GsNm1 (DYNAMICS)  min= -1.11175889617674E-06
DEBUG_STATS_RL:               GsNm1 (DYNAMICS)  max=  8.82129178090283E-07
DEBUG_STATS_RL:               GsNm1 (DYNAMICS) mean= -4.43402920181951E-10
DEBUG_STATS_RL:               GsNm1 (DYNAMICS) S.D.=  2.34150889062130E-08
DEBUG_STATS_RL:    cg2d_b (SOLVE_FOR_PRESSURE)  min= -2.30382552842053E+04
DEBUG_STATS_RL:    cg2d_b (SOLVE_FOR_PRESSURE)  max=  1.84860753682864E+04
DEBUG_STATS_RL:    cg2d_b (SOLVE_FOR_PRESSURE) mean=  1.53187610020340E+00
DEBUG_STATS_RL:    cg2d_b (SOLVE_FOR_PRESSURE) S.D.=  3.66137045938921E+03
 cg2d: Sum(rhs),rhsMax =   1.53930630953692E-01  1.51321429028365E+00
(PID.TID 0000.0001)  cg2d: iter=     1 ; resid.=  3.56521007539939E-01
(PID.TID 0000.0001)  cg2d: iter=     2 ; resid.=  3.20558236785343E-01
(PID.TID 0000.0001)  cg2d: iter=     3 ; resid.=  3.11741212955772E-01
(PID.TID 0000.0001)  cg2d: iter=     4 ; resid.=  3.22864298926461E-01
(PID.TID 0000.0001)  cg2d: iter=     5 ; resid.=  2.73294460584118E-01
(PID.TID 0000.0001)  cg2d: iter=     6 ; resid.=  2.03935272584312E-01
(PID.TID 0000.0001)  cg2d: iter=     7 ; resid.=  1.91321879222156E-01
(PID.TID 0000.0001)  cg2d: iter=     8 ; resid.=  1.56040075042600E-01
(PID.TID 0000.0001)  cg2d: iter=     9 ; resid.=  1.17758821165607E-01
(PID.TID 0000.0001)  cg2d: iter=    10 ; resid.=  1.02157587376319E-01
(PID.TID 0000.0001)  cg2d: iter=    11 ; resid.=  9.27876006210144E-02
(PID.TID 0000.0001)  cg2d: iter=    12 ; resid.=  7.47322700189123E-02
(PID.TID 0000.0001)  cg2d: iter=    13 ; resid.=  5.87017914295965E-02
(PID.TID 0000.0001)  cg2d: iter=    14 ; resid.=  5.00666039820456E-02
(PID.TID 0000.0001)  cg2d: iter=    15 ; resid.=  3.89864743100483E-02
(PID.TID 0000.0001)  cg2d: iter=    16 ; resid.=  3.60232378310990E-02
(PID.TID 0000.0001)  cg2d: iter=    17 ; resid.=  3.46408358910101E-02
(PID.TID 0000.0001)  cg2d: iter=    18 ; resid.=  2.74183479410576E-02
(PID.TID 0000.0001)  cg2d: iter=    19 ; resid.=  2.29916705794094E-02
(PID.TID 0000.0001)  cg2d: iter=    20 ; resid.=  2.04532202677239E-02
(PID.TID 0000.0001)  cg2d: iter=    21 ; resid.=  1.67924153502328E-02
(PID.TID 0000.0001)  cg2d: iter=    22 ; resid.=  1.34209358603880E-02
(PID.TID 0000.0001)  cg2d: iter=    23 ; resid.=  1.18957294414277E-02
(PID.TID 0000.0001)  cg2d: iter=    24 ; resid.=  1.04178554925780E-02
(PID.TID 0000.0001)  cg2d: iter=    25 ; resid.=  7.96930815817240E-03
(PID.TID 0000.0001)  cg2d: iter=    26 ; resid.=  6.60868212996318E-03
(PID.TID 0000.0001)  cg2d: iter=    27 ; resid.=  5.82297924756750E-03
(PID.TID 0000.0001)  cg2d: iter=    28 ; resid.=  4.87617467767251E-03
(PID.TID 0000.0001)  cg2d: iter=    29 ; resid.=  3.91376293572078E-03
(PID.TID 0000.0001)  cg2d: iter=    30 ; resid.=  3.45994739045783E-03
(PID.TID 0000.0001)  cg2d: iter=    31 ; resid.=  2.85972027242517E-03
(PID.TID 0000.0001)  cg2d: iter=    32 ; resid.=  2.25048885849487E-03
(PID.TID 0000.0001)  cg2d: iter=    33 ; resid.=  1.96466555692473E-03
(PID.TID 0000.0001)  cg2d: iter=    34 ; resid.=  1.65192879718112E-03
(PID.TID 0000.0001)  cg2d: iter=    35 ; resid.=  1.30982272955758E-03
(PID.TID 0000.0001)  cg2d: iter=    36 ; resid.=  1.10070410120128E-03
(PID.TID 0000.0001)  cg2d: iter=    37 ; resid.=  9.66460516307246E-04
(PID.TID 0000.0001)  cg2d: iter=    38 ; resid.=  8.73980920826367E-04
(PID.TID 0000.0001)  cg2d: iter=    39 ; resid.=  7.61035829149957E-04
(PID.TID 0000.0001)  cg2d: iter=    40 ; resid.=  6.20658220736535E-04
(PID.TID 0000.0001)  cg2d: iter=    41 ; resid.=  4.59569860430931E-04
(PID.TID 0000.0001)  cg2d: iter=    42 ; resid.=  3.87803196891595E-04
(PID.TID 0000.0001)  cg2d: iter=    43 ; resid.=  3.18016491365651E-04
(PID.TID 0000.0001)  cg2d: iter=    44 ; resid.=  2.48610137345604E-04
(PID.TID 0000.0001)  cg2d: iter=    45 ; resid.=  1.81399214102318E-04
(PID.TID 0000.0001)  cg2d: iter=    46 ; resid.=  1.47135532071039E-04
(PID.TID 0000.0001)  cg2d: iter=    47 ; resid.=  1.25951044821164E-04
(PID.TID 0000.0001)  cg2d: iter=    48 ; resid.=  9.81253632052319E-05
(PID.TID 0000.0001)  cg2d: iter=    49 ; resid.=  8.15019415924492E-05
(PID.TID 0000.0001)  cg2d: iter=    50 ; resid.=  7.09847674700122E-05
(PID.TID 0000.0001)  cg2d: iter=    51 ; resid.=  5.86292319044273E-05
(PID.TID 0000.0001)  cg2d: iter=    52 ; resid.=  4.91706855450050E-05
(PID.TID 0000.0001)  cg2d: iter=    53 ; resid.=  4.18732631724812E-05
(PID.TID 0000.0001)  cg2d: iter=    54 ; resid.=  3.53066132284545E-05
(PID.TID 0000.0001)  cg2d: iter=    55 ; resid.=  2.89050857011284E-05
(PID.TID 0000.0001)  cg2d: iter=    56 ; resid.=  2.44249532934348E-05
(PID.TID 0000.0001)  cg2d: iter=    57 ; resid.=  1.93140917028844E-05
(PID.TID 0000.0001)  cg2d: iter=    58 ; resid.=  1.45126985152609E-05
(PID.TID 0000.0001)  cg2d: iter=    59 ; resid.=  1.18099487096067E-05
(PID.TID 0000.0001)  cg2d: iter=    60 ; resid.=  9.23160664673888E-06
(PID.TID 0000.0001)  cg2d: iter=    61 ; resid.=  7.29126083918003E-06
(PID.TID 0000.0001)  cg2d: iter=    62 ; resid.=  5.87460602096470E-06
(PID.TID 0000.0001)  cg2d: iter=    63 ; resid.=  5.08538475136004E-06
(PID.TID 0000.0001)  cg2d: iter=    64 ; resid.=  4.10397113450144E-06
(PID.TID 0000.0001)  cg2d: iter=    65 ; resid.=  3.33819333806247E-06
(PID.TID 0000.0001)  cg2d: iter=    66 ; resid.=  2.59464804196578E-06
(PID.TID 0000.0001)  cg2d: iter=    67 ; resid.=  2.18811436545903E-06
(PID.TID 0000.0001)  cg2d: iter=    68 ; resid.=  1.65121460375741E-06
(PID.TID 0000.0001)  cg2d: iter=    69 ; resid.=  1.32698319518372E-06
(PID.TID 0000.0001)  cg2d: iter=    70 ; resid.=  1.08748602932761E-06
(PID.TID 0000.0001)  cg2d: iter=    71 ; resid.=  9.16769282200959E-07
(PID.TID 0000.0001)  cg2d: iter=    72 ; resid.=  8.24567528056793E-07
(PID.TID 0000.0001)  cg2d: iter=    73 ; resid.=  7.58869536362318E-07
(PID.TID 0000.0001)  cg2d: iter=    74 ; resid.=  6.51158523673490E-07
(PID.TID 0000.0001)  cg2d: iter=    75 ; resid.=  5.34933590552965E-07
(PID.TID 0000.0001)  cg2d: iter=    76 ; resid.=  4.64230829537204E-07
(PID.TID 0000.0001)  cg2d: iter=    77 ; resid.=  3.94735504427841E-07
(PID.TID 0000.0001)  cg2d: iter=    78 ; resid.=  3.34416116611527E-07
(PID.TID 0000.0001)  cg2d: iter=    79 ; resid.=  2.91462496651571E-07
(PID.TID 0000.0001)  cg2d: iter=    80 ; resid.=  2.14788829168661E-07
(PID.TID 0000.0001)  cg2d: iter=    81 ; resid.=  1.67695567439099E-07
(PID.TID 0000.0001)  cg2d: iter=    82 ; resid.=  1.32590612884819E-07
(PID.TID 0000.0001)  cg2d: iter=    83 ; resid.=  1.02621676684991E-07
(PID.TID 0000.0001)  cg2d: iter=    84 ; resid.=  8.29416815666358E-08
(PID.TID 0000.0001)  cg2d: iter=    85 ; resid.=  6.32288665664345E-08
(PID.TID 0000.0001)  cg2d: iter=    86 ; resid.=  4.99957578364532E-08
(PID.TID 0000.0001)  cg2d: iter=    87 ; resid.=  4.22616606131770E-08
(PID.TID 0000.0001)  cg2d: iter=    88 ; resid.=  3.49418242082493E-08
(PID.TID 0000.0001)  cg2d: iter=    89 ; resid.=  2.84440522783178E-08
(PID.TID 0000.0001)  cg2d: iter=    90 ; resid.=  2.12812039728419E-08
(PID.TID 0000.0001)  cg2d: iter=    91 ; resid.=  1.63327622441307E-08
(PID.TID 0000.0001)  cg2d: iter=    92 ; resid.=  1.18691182830986E-08
(PID.TID 0000.0001)  cg2d: iter=    93 ; resid.=  7.70594451937709E-09
(PID.TID 0000.0001)  cg2d: iter=    94 ; resid.=  5.61238887094031E-09
(PID.TID 0000.0001)  cg2d: iter=    95 ; resid.=  4.33609097144027E-09
(PID.TID 0000.0001)  cg2d: iter=    96 ; resid.=  3.43022181320669E-09
(PID.TID 0000.0001)  cg2d: iter=    97 ; resid.=  2.77996174801715E-09
(PID.TID 0000.0001)  cg2d: iter=    98 ; resid.=  2.36767423179038E-09
(PID.TID 0000.0001)  cg2d: iter=    99 ; resid.=  2.09548861219426E-09
(PID.TID 0000.0001)  cg2d: iter=   100 ; resid.=  1.91607962733135E-09
(PID.TID 0000.0001)  cg2d: iter=   101 ; resid.=  1.66425515373643E-09
(PID.TID 0000.0001)  cg2d: iter=   102 ; resid.=  1.39515202529024E-09
(PID.TID 0000.0001)  cg2d: iter=   103 ; resid.=  1.17028370198936E-09
(PID.TID 0000.0001)  cg2d: iter=   104 ; resid.=  8.72877288607780E-10
(PID.TID 0000.0001)  cg2d: iter=   105 ; resid.=  6.12032405406640E-10
(PID.TID 0000.0001)  cg2d: iter=   106 ; resid.=  4.59395797728567E-10
(PID.TID 0000.0001)  cg2d: iter=   107 ; resid.=  3.21546223510172E-10
(PID.TID 0000.0001)  cg2d: iter=   108 ; resid.=  2.29065404900728E-10
(PID.TID 0000.0001)  cg2d: iter=   109 ; resid.=  1.72324490983659E-10
(PID.TID 0000.0001)  cg2d: iter=   110 ; resid.=  1.34279528433053E-10
(PID.TID 0000.0001)  cg2d: iter=   111 ; resid.=  1.10329752504735E-10
(PID.TID 0000.0001)  cg2d: iter=   112 ; resid.=  8.53137814243678E-11
(PID.TID 0000.0001)  cg2d: iter=   113 ; resid.=  6.46678157649768E-11
(PID.TID 0000.0001)  cg2d: iter=   114 ; resid.=  5.30710906863009E-11
(PID.TID 0000.0001)  cg2d: iter=   115 ; resid.=  3.90551749798496E-11
(PID.TID 0000.0001)  cg2d: iter=   116 ; resid.=  2.78234204360217E-11
(PID.TID 0000.0001)  cg2d: iter=   117 ; resid.=  2.23454959230943E-11
(PID.TID 0000.0001)  cg2d: iter=   118 ; resid.=  1.67202193308663E-11
(PID.TID 0000.0001)  cg2d: iter=   119 ; resid.=  1.31814131556596E-11
(PID.TID 0000.0001)  cg2d: iter=   120 ; resid.=  1.00800082576234E-11
(PID.TID 0000.0001)  cg2d: iter=   121 ; resid.=  7.55227119857184E-12
(PID.TID 0000.0001)  cg2d: iter=   122 ; resid.=  5.80723722082836E-12
(PID.TID 0000.0001)  cg2d: iter=   123 ; resid.=  4.12253706384547E-12
(PID.TID 0000.0001)  cg2d: iter=   124 ; resid.=  2.82437177293412E-12
(PID.TID 0000.0001)  cg2d: iter=   125 ; resid.=  1.95915185352984E-12
(PID.TID 0000.0001)  cg2d: iter=   126 ; resid.=  1.39175935088304E-12
(PID.TID 0000.0001)  cg2d: iter=   127 ; resid.=  9.31350370548677E-13
(PID.TID 0000.0001)  cg2d: iter=   128 ; resid.=  6.47357941419738E-13
(PID.TID 0000.0001)  cg2d: iter=   129 ; resid.=  4.97985020765379E-13
(PID.TID 0000.0001)  cg2d: iter=   130 ; resid.=  3.73006219285365E-13
(PID.TID 0000.0001)  cg2d: iter=   131 ; resid.=  2.89743309041548E-13
(PID.TID 0000.0001)  cg2d: iter=   132 ; resid.=  2.23773648126916E-13
(PID.TID 0000.0001)  cg2d: iter=   133 ; resid.=  1.81993160420007E-13
(PID.TID 0000.0001)  cg2d: iter=   134 ; resid.=  1.44328217232394E-13
(PID.TID 0000.0001)  cg2d: iter=   135 ; resid.=  1.10998528718566E-13
(PID.TID 0000.0001)  cg2d: iter=   136 ; resid.=  7.31494452680351E-14
DEBUG_STATS_RL:    cg2d_x (SOLVE_FOR_PRESSURE)  min= -1.81851084781946E+01
DEBUG_STATS_RL:    cg2d_x (SOLVE_FOR_PRESSURE)  max=  1.15741028667891E+01
DEBUG_STATS_RL:    cg2d_x (SOLVE_FOR_PRESSURE) mean= -1.48535852571896E+00
DEBUG_STATS_RL:    cg2d_x (SOLVE_FOR_PRESSURE) S.D.=  6.31545089628543E+00
(PID.TID 0000.0001)      cg2d_init_res =   5.48838114598410E-01
(PID.TID 0000.0001)      cg2d_iters(min,last) =      -1     136
(PID.TID 0000.0001)      cg2d_last_res =   7.31494452680351E-14
(PID.TID 0000.0001) // =======================================================
(PID.TID 0000.0001) // Begin MONITOR dynamic field statistics
(PID.TID 0000.0001) // =======================================================
(PID.TID 0000.0001) %MON time_tsnumber                =                    22
(PID.TID 0000.0001) %MON time_secondsf                =   1.9008000000000E+06
(PID.TID 0000.0001) %MON dynstat_eta_max              =   1.1798269996727E+00
(PID.TID 0000.0001) %MON dynstat_eta_min              =  -1.8537317510901E+00
(PID.TID 0000.0001) %MON dynstat_eta_mean             =  -1.5983227641960E-03
(PID.TID 0000.0001) %MON dynstat_eta_sd               =   5.5798681623988E-01
(PID.TID 0000.0001) %MON dynstat_eta_del2             =   1.9334890796122E-03
(PID.TID 0000.0001) %MON dynstat_uvel_max             =   1.5123585759734E-01
(PID.TID 0000.0001) %MON dynstat_uvel_min             =  -1.5005060929479E-01
(PID.TID 0000.0001) %MON dynstat_uvel_mean            =  -2.1018478589058E-03
(PID.TID 0000.0001) %MON dynstat_uvel_sd              =   1.7107949013415E-02
(PID.TID 0000.0001) %MON dynstat_uvel_del2            =   9.7876390208957E-05
(PID.TID 0000.0001) %MON dynstat_vvel_max             =   1.4483796437324E-01
(PID.TID 0000.0001) %MON dynstat_vvel_min             =  -1.2365965580845E-01
(PID.TID 0000.0001) %MON dynstat_vvel_mean            =   7.0014128067869E-04
(PID.TID 0000.0001) %MON dynstat_vvel_sd              =   1.1491512380654E-02
(PID.TID 0000.0001) %MON dynstat_vvel_del2            =   9.7604749379020E-05
(PID.TID 0000.0001) %MON dynstat_wvel_max             =   1.5744455165967E-04
(PID.TID 0000.0001) %MON dynstat_wvel_min             =  -1.4873077907364E-04
(PID.TID 0000.0001) %MON dynstat_wvel_mean            =  -2.5957715627001E-22
(PID.TID 0000.0001) %MON dynstat_wvel_sd              =   2.0990415586716E-05
(PID.TID 0000.0001) %MON dynstat_wvel_del2            =   2.2963444239269E-07
(PID.TID 0000.0001) %MON dynstat_theta_max            =   2.9871878256053E+01
(PID.TID 0000.0001) %MON dynstat_theta_min            =  -2.0120712261991E+00
(PID.TID 0000.0001) %MON dynstat_theta_mean           =   3.6403133862848E+00
(PID.TID 0000.0001) %MON dynstat_theta_sd             =   4.4160614809114E+00
(PID.TID 0000.0001) %MON dynstat_theta_del2           =   4.8631227458701E-03
(PID.TID 0000.0001) %MON dynstat_salt_max             =   3.7462487874675E+01
(PID.TID 0000.0001) %MON dynstat_salt_min             =   2.9798122956179E+01
(PID.TID 0000.0001) %MON dynstat_salt_mean            =   3.4737944551658E+01
(PID.TID 0000.0001) %MON dynstat_salt_sd              =   2.9619950255613E-01
(PID.TID 0000.0001) %MON dynstat_salt_del2            =   1.0096762599843E-03
(PID.TID 0000.0001) %MON dynstat_sst_max              =   2.9871878256053E+01
(PID.TID 0000.0001) %MON dynstat_sst_min              =  -2.0120712261991E+00
(PID.TID 0000.0001) %MON dynstat_sst_mean             =   1.8712708958597E+01
(PID.TID 0000.0001) %MON dynstat_sst_sd               =   9.0588214250802E+00
(PID.TID 0000.0001) %MON dynstat_sst_del2             =   2.6385652651755E-02
(PID.TID 0000.0001) %MON dynstat_sss_max              =   3.7449893943837E+01
(PID.TID 0000.0001) %MON dynstat_sss_min              =   2.9798122956179E+01
(PID.TID 0000.0001) %MON dynstat_sss_mean             =   3.4871675514743E+01
(PID.TID 0000.0001) %MON dynstat_sss_sd               =   9.7296960505601E-01
(PID.TID 0000.0001) %MON dynstat_sss_del2             =   7.9685623070803E-03
(PID.TID 0000.0001) %MON forcing_qnet_max             =   4.2169909667969E+02
(PID.TID 0000.0001) %MON forcing_qnet_min             =  -1.7858243103027E+02
(PID.TID 0000.0001) %MON forcing_qnet_mean            =  -1.6003070996624E+01
(PID.TID 0000.0001) %MON forcing_qnet_sd              =   1.0345568885738E+02
(PID.TID 0000.0001) %MON forcing_qnet_del2            =   1.0009668564957E+00
(PID.TID 0000.0001) %MON forcing_qsw_max              =   0.0000000000000E+00
(PID.TID 0000.0001) %MON forcing_qsw_min              =   0.0000000000000E+00
(PID.TID 0000.0001) %MON forcing_qsw_mean             =   0.0000000000000E+00
(PID.TID 0000.0001) %MON forcing_qsw_sd               =   0.0000000000000E+00
(PID.TID 0000.0001) %MON forcing_qsw_del2             =   0.0000000000000E+00
(PID.TID 0000.0001) %MON forcing_empmr_max            =   8.0289700576941E-05
(PID.TID 0000.0001) %MON forcing_empmr_min            =  -7.6633821777250E-05
(PID.TID 0000.0001) %MON forcing_empmr_mean           =   9.2703144567037E-07
(PID.TID 0000.0001) %MON forcing_empmr_sd             =   2.8506708365835E-05
(PID.TID 0000.0001) %MON forcing_empmr_del2           =   3.6098786833147E-07
(PID.TID 0000.0001) %MON forcing_fu_max               =   2.7760242819786E-01
(PID.TID 0000.0001) %MON forcing_fu_min               =  -1.7589417994022E-01
(PID.TID 0000.0001) %MON forcing_fu_mean              =   1.6327536445380E-02
(PID.TID 0000.0001) %MON forcing_fu_sd                =   9.0202228865328E-02
(PID.TID 0000.0001) %MON forcing_fu_del2              =   6.8655513835804E-04
(PID.TID 0000.0001) %MON forcing_fv_max               =   2.1387063860893E-01
(PID.TID 0000.0001) %MON forcing_fv_min               =  -1.7218910157681E-01
(PID.TID 0000.0001) %MON forcing_fv_mean              =  -5.6504631797962E-03
(PID.TID 0000.0001) %MON forcing_fv_sd                =   4.6529078937274E-02
(PID.TID 0000.0001) %MON forcing_fv_del2              =   4.7274716093950E-04
(PID.TID 0000.0001) %MON trAdv_CFL_u_max              =   4.2561066974884E-02
(PID.TID 0000.0001) %MON trAdv_CFL_v_max              =   2.8636114193257E-02
(PID.TID 0000.0001) %MON trAdv_CFL_w_max              =   5.8533677687405E-02
(PID.TID 0000.0001) %MON advcfl_uvel_max              =   3.9538324956704E-02
(PID.TID 0000.0001) %MON advcfl_vvel_max              =   2.8139693556048E-02
(PID.TID 0000.0001) %MON advcfl_wvel_max              =   4.8725754541741E-02
(PID.TID 0000.0001) %MON advcfl_W_hf_max              =   5.9166987657828E-02
(PID.TID 0000.0001) %MON pe_b_mean                    =   3.9841220961645E-04
(PID.TID 0000.0001) %MON ke_max                       =   1.3965187336336E-02
(PID.TID 0000.0001) %MON ke_mean                      =   1.9448216792463E-04
(PID.TID 0000.0001) %MON ke_vol                       =   1.3226782436723E+18
(PID.TID 0000.0001) %MON vort_r_min                   =  -3.6025898136111E-07
(PID.TID 0000.0001) %MON vort_r_max                   =   5.3696340090965E-07
(PID.TID 0000.0001) %MON vort_a_mean                  =  -2.5274806684144E-05
(PID.TID 0000.0001) %MON vort_a_sd                    =   7.3603997298723E-05
(PID.TID 0000.0001) %MON vort_p_mean                  =  -3.1845654900723E-05
(PID.TID 0000.0001) %MON vort_p_sd                    =   1.3162458481844E-04
(PID.TID 0000.0001) %MON surfExpan_theta_mean         =  -2.0735028955514E-07
(PID.TID 0000.0001) %MON surfExpan_salt_mean          =   1.7984319193895E-07
(PID.TID 0000.0001) // =======================================================
(PID.TID 0000.0001) // End MONITOR dynamic field statistics
(PID.TID 0000.0001) // =======================================================
 EXTERNAL_FIELDS_LOAD,        22 : iP,iLd,i0,i1=    1    2    1    2 ; Wght=  0.7666666667  0.2333333333
 EXTERNAL_FIELDS_LOAD: (fu0,1),fu,fv= -3.5633E-02 -1.4435E-02 -3.0687E-02 -4.8012E-02
 EXTERNAL_FIELDS_LOAD: SST,SSS,Q,E-P=  6.1069E-01  3.4646E+01  2.5987E+02  1.0876E-05
DEBUG_STATS_RL:          Uvel (THERMODYNAMICS)  min= -1.50050609294786E-01
DEBUG_STATS_RL:          Uvel (THERMODYNAMICS)  max=  1.51235857597336E-01
DEBUG_STATS_RL:          Uvel (THERMODYNAMICS) mean=  5.44064125664781E-04
DEBUG_STATS_RL:          Uvel (THERMODYNAMICS) S.D.=  2.23141002912640E-02
DEBUG_STATS_RL:          Vvel (THERMODYNAMICS)  min= -1.23659655808454E-01
DEBUG_STATS_RL:          Vvel (THERMODYNAMICS)  max=  1.44837964373242E-01
DEBUG_STATS_RL:          Vvel (THERMODYNAMICS) mean=  2.46423976515289E-03
DEBUG_STATS_RL:          Vvel (THERMODYNAMICS) S.D.=  1.78141461101972E-02
DEBUG_STATS_RL:          Wvel (THERMODYNAMICS)  min= -1.48730779073635E-04
DEBUG_STATS_RL:          Wvel (THERMODYNAMICS)  max=  1.57444551659667E-04
DEBUG_STATS_RL:          Wvel (THERMODYNAMICS) mean=  4.04989430157128E-07
DEBUG_STATS_RL:          Wvel (THERMODYNAMICS) S.D.=  1.89315401484414E-05
DEBUG_STATS_RL:         Theta (THERMODYNAMICS)  min= -2.01104249803180E+00
DEBUG_STATS_RL:         Theta (THERMODYNAMICS)  max=  2.98827967873720E+01
DEBUG_STATS_RL:         Theta (THERMODYNAMICS) mean=  3.22857717057720E+00
DEBUG_STATS_RL:         Theta (THERMODYNAMICS) S.D.=  5.85732500618308E+00
DEBUG_STATS_RL:          Salt (THERMODYNAMICS)  min=  2.00000000000000E-02
DEBUG_STATS_RL:          Salt (THERMODYNAMICS)  max=  3.74632671937281E+01
DEBUG_STATS_RL:          Salt (THERMODYNAMICS) mean=  1.88651061990501E+01
DEBUG_STATS_RL:          Salt (THERMODYNAMICS) S.D.=  1.73005949292515E+01
DEBUG_STATS_RL:         GtNm1 (THERMODYNAMICS)  min= -4.74104408285734E-06
DEBUG_STATS_RL:         GtNm1 (THERMODYNAMICS)  max=  3.38588783006050E-06
DEBUG_STATS_RL:         GtNm1 (THERMODYNAMICS) mean= -1.36161340595736E-10
DEBUG_STATS_RL:         GtNm1 (THERMODYNAMICS) S.D.=  2.43683488911105E-07
DEBUG_STATS_RL:         GsNm1 (THERMODYNAMICS)  min= -1.16263873481214E-06
DEBUG_STATS_RL:         GsNm1 (THERMODYNAMICS)  max=  9.05889884382871E-07
DEBUG_STATS_RL:         GsNm1 (THERMODYNAMICS) mean= -5.15965789615960E-10
DEBUG_STATS_RL:         GsNm1 (THERMODYNAMICS) S.D.=  2.37560276838410E-08
DEBUG_STATS_RL:                EtaN (DYNAMICS)  min= -1.85373175109011E+00
DEBUG_STATS_RL:                EtaN (DYNAMICS)  max=  1.17982699967269E+00
DEBUG_STATS_RL:                EtaN (DYNAMICS) mean= -1.51412693753206E-01
DEBUG_STATS_RL:                EtaN (DYNAMICS) S.D.=  6.43776849774254E-01
DEBUG_STATS_RL:                Uvel (DYNAMICS)  min= -1.50050609294786E-01
DEBUG_STATS_RL:                Uvel (DYNAMICS)  max=  1.51235857597336E-01
DEBUG_STATS_RL:                Uvel (DYNAMICS) mean=  5.44064125664781E-04
DEBUG_STATS_RL:                Uvel (DYNAMICS) S.D.=  2.23141002912640E-02
DEBUG_STATS_RL:                Vvel (DYNAMICS)  min= -1.23659655808454E-01
DEBUG_STATS_RL:                Vvel (DYNAMICS)  max=  1.44837964373242E-01
DEBUG_STATS_RL:                Vvel (DYNAMICS) mean=  2.46423976515289E-03
DEBUG_STATS_RL:                Vvel (DYNAMICS) S.D.=  1.78141461101972E-02
DEBUG_STATS_RL:                Wvel (DYNAMICS)  min= -1.48730779073635E-04
DEBUG_STATS_RL:                Wvel (DYNAMICS)  max=  1.57444551659667E-04
DEBUG_STATS_RL:                Wvel (DYNAMICS) mean=  4.04989430157128E-07
DEBUG_STATS_RL:                Wvel (DYNAMICS) S.D.=  1.89315401484414E-05
DEBUG_STATS_RL:               Theta (DYNAMICS)  min= -2.01104249803180E+00
DEBUG_STATS_RL:               Theta (DYNAMICS)  max=  2.98827967873720E+01
DEBUG_STATS_RL:               Theta (DYNAMICS) mean=  3.22857717057720E+00
DEBUG_STATS_RL:               Theta (DYNAMICS) S.D.=  5.85732500618308E+00
DEBUG_STATS_RL:                Salt (DYNAMICS)  min=  2.00000000000000E-02
DEBUG_STATS_RL:                Salt (DYNAMICS)  max=  3.74632671937281E+01
DEBUG_STATS_RL:                Salt (DYNAMICS) mean=  1.88651061990501E+01
DEBUG_STATS_RL:                Salt (DYNAMICS) S.D.=  1.73005949292515E+01
DEBUG_STATS_RL:                  Gu (DYNAMICS)  min= -1.57553979645804E-01
DEBUG_STATS_RL:                  Gu (DYNAMICS)  max=  1.48762276549816E-01
DEBUG_STATS_RL:                  Gu (DYNAMICS) mean=  7.51239435423471E-04
DEBUG_STATS_RL:                  Gu (DYNAMICS) S.D.=  2.24923732040058E-02
DEBUG_STATS_RL:                  Gv (DYNAMICS)  min= -1.39079023734138E-01
DEBUG_STATS_RL:                  Gv (DYNAMICS)  max=  1.62785346029939E-01
DEBUG_STATS_RL:                  Gv (DYNAMICS) mean=  4.36977990244276E-03
DEBUG_STATS_RL:                  Gv (DYNAMICS) S.D.=  1.94364779023875E-02
DEBUG_STATS_RL:               GuNm1 (DYNAMICS)  min= -6.90663393994365E-06
DEBUG_STATS_RL:               GuNm1 (DYNAMICS)  max=  8.08399401373633E-06
DEBUG_STATS_RL:               GuNm1 (DYNAMICS) mean= -7.62121398059307E-09
DEBUG_STATS_RL:               GuNm1 (DYNAMICS) S.D.=  1.17285810557886E-06
DEBUG_STATS_RL:               GvNm1 (DYNAMICS)  min= -9.56687723376207E-06
DEBUG_STATS_RL:               GvNm1 (DYNAMICS)  max=  1.70837607159740E-05
DEBUG_STATS_RL:               GvNm1 (DYNAMICS) mean=  7.74999016421805E-07
DEBUG_STATS_RL:               GvNm1 (DYNAMICS) S.D.=  2.61644090066460E-06
DEBUG_STATS_RL:               GtNm1 (DYNAMICS)  min= -4.74104408285734E-06
DEBUG_STATS_RL:               GtNm1 (DYNAMICS)  max=  3.38588783006050E-06
DEBUG_STATS_RL:               GtNm1 (DYNAMICS) mean= -1.36161340595736E-10
DEBUG_STATS_RL:               GtNm1 (DYNAMICS) S.D.=  2.43683488911105E-07
DEBUG_STATS_RL:               GsNm1 (DYNAMICS)  min= -1.16263873481214E-06
DEBUG_STATS_RL:               GsNm1 (DYNAMICS)  max=  9.05889884382871E-07
DEBUG_STATS_RL:               GsNm1 (DYNAMICS) mean= -5.15965789615960E-10
DEBUG_STATS_RL:               GsNm1 (DYNAMICS) S.D.=  2.37560276838410E-08
DEBUG_STATS_RL:    cg2d_b (SOLVE_FOR_PRESSURE)  min= -2.35449148410739E+04
DEBUG_STATS_RL:    cg2d_b (SOLVE_FOR_PRESSURE)  max=  1.89870958127545E+04
DEBUG_STATS_RL:    cg2d_b (SOLVE_FOR_PRESSURE) mean=  1.60610048133520E+00
DEBUG_STATS_RL:    cg2d_b (SOLVE_FOR_PRESSURE) S.D.=  3.72295353591883E+03
 cg2d: Sum(rhs),rhsMax =   1.57916163188003E-01  1.54649304652211E+00
(PID.TID 0000.0001)  cg2d: iter=     1 ; resid.=  3.37856470573454E-01
(PID.TID 0000.0001)  cg2d: iter=     2 ; resid.=  3.05275258000914E-01
(PID.TID 0000.0001)  cg2d: iter=     3 ; resid.=  2.94314031410898E-01
(PID.TID 0000.0001)  cg2d: iter=     4 ; resid.=  2.96508915563089E-01
(PID.TID 0000.0001)  cg2d: iter=     5 ; resid.=  2.44974172290463E-01
(PID.TID 0000.0001)  cg2d: iter=     6 ; resid.=  1.81998244949547E-01
(PID.TID 0000.0001)  cg2d: iter=     7 ; resid.=  1.66734112106789E-01
(PID.TID 0000.0001)  cg2d: iter=     8 ; resid.=  1.39507558440261E-01
(PID.TID 0000.0001)  cg2d: iter=     9 ; resid.=  1.06985718438814E-01
(PID.TID 0000.0001)  cg2d: iter=    10 ; resid.=  9.39913382864535E-02
(PID.TID 0000.0001)  cg2d: iter=    11 ; resid.=  8.65339777866965E-02
(PID.TID 0000.0001)  cg2d: iter=    12 ; resid.=  6.96455992613077E-02
(PID.TID 0000.0001)  cg2d: iter=    13 ; resid.=  5.46564224448941E-02
(PID.TID 0000.0001)  cg2d: iter=    14 ; resid.=  4.55515111667879E-02
(PID.TID 0000.0001)  cg2d: iter=    15 ; resid.=  3.50410366084591E-02
(PID.TID 0000.0001)  cg2d: iter=    16 ; resid.=  3.19733226320003E-02
(PID.TID 0000.0001)  cg2d: iter=    17 ; resid.=  3.07003941411538E-02
(PID.TID 0000.0001)  cg2d: iter=    18 ; resid.=  2.48366505353450E-02
(PID.TID 0000.0001)  cg2d: iter=    19 ; resid.=  2.10603861988629E-02
(PID.TID 0000.0001)  cg2d: iter=    20 ; resid.=  1.83290201153109E-02
(PID.TID 0000.0001)  cg2d: iter=    21 ; resid.=  1.50438731649167E-02
(PID.TID 0000.0001)  cg2d: iter=    22 ; resid.=  1.18380582826056E-02
(PID.TID 0000.0001)  cg2d: iter=    23 ; resid.=  1.02100939920190E-02
(PID.TID 0000.0001)  cg2d: iter=    24 ; resid.=  8.86261981908130E-03
(PID.TID 0000.0001)  cg2d: iter=    25 ; resid.=  6.93920028604994E-03
(PID.TID 0000.0001)  cg2d: iter=    26 ; resid.=  5.86058825312296E-03
(PID.TID 0000.0001)  cg2d: iter=    27 ; resid.=  5.34198246786780E-03
(PID.TID 0000.0001)  cg2d: iter=    28 ; resid.=  4.39387580977488E-03
(PID.TID 0000.0001)  cg2d: iter=    29 ; resid.=  3.50936975016971E-03
(PID.TID 0000.0001)  cg2d: iter=    30 ; resid.=  3.04046567022460E-03
(PID.TID 0000.0001)  cg2d: iter=    31 ; resid.=  2.50712929001880E-03
(PID.TID 0000.0001)  cg2d: iter=    32 ; resid.=  1.94560722516260E-03
(PID.TID 0000.0001)  cg2d: iter=    33 ; resid.=  1.69992283466564E-03
(PID.TID 0000.0001)  cg2d: iter=    34 ; resid.=  1.43901266007817E-03
(PID.TID 0000.0001)  cg2d: iter=    35 ; resid.=  1.17245950962816E-03
(PID.TID 0000.0001)  cg2d: iter=    36 ; resid.=  9.88257042298879E-04
(PID.TID 0000.0001)  cg2d: iter=    37 ; resid.=  8.71594122346869E-04
(PID.TID 0000.0001)  cg2d: iter=    38 ; resid.=  7.87763299791858E-04
(PID.TID 0000.0001)  cg2d: iter=    39 ; resid.=  6.91980184514312E-04
(PID.TID 0000.0001)  cg2d: iter=    40 ; resid.=  5.73995665890837E-04
(PID.TID 0000.0001)  cg2d: iter=    41 ; resid.=  4.38332497893312E-04
(PID.TID 0000.0001)  cg2d: iter=    42 ; resid.=  3.77803622178948E-04
(PID.TID 0000.0001)  cg2d: iter=    43 ; resid.=  3.21270421140996E-04
(PID.TID 0000.0001)  cg2d: iter=    44 ; resid.=  2.54368681189381E-04
(PID.TID 0000.0001)  cg2d: iter=    45 ; resid.=  1.83914674783964E-04
(PID.TID 0000.0001)  cg2d: iter=    46 ; resid.=  1.42866097318279E-04
(PID.TID 0000.0001)  cg2d: iter=    47 ; resid.=  1.19211907015977E-04
(PID.TID 0000.0001)  cg2d: iter=    48 ; resid.=  9.28382577796044E-05
(PID.TID 0000.0001)  cg2d: iter=    49 ; resid.=  7.58399344469002E-05
(PID.TID 0000.0001)  cg2d: iter=    50 ; resid.=  6.60147806999326E-05
(PID.TID 0000.0001)  cg2d: iter=    51 ; resid.=  5.56826872002920E-05
(PID.TID 0000.0001)  cg2d: iter=    52 ; resid.=  4.86409420538723E-05
(PID.TID 0000.0001)  cg2d: iter=    53 ; resid.=  4.25903282340641E-05
(PID.TID 0000.0001)  cg2d: iter=    54 ; resid.=  3.58667318138807E-05
(PID.TID 0000.0001)  cg2d: iter=    55 ; resid.=  2.91323664831166E-05
(PID.TID 0000.0001)  cg2d: iter=    56 ; resid.=  2.51802567782631E-05
(PID.TID 0000.0001)  cg2d: iter=    57 ; resid.=  2.03537559331000E-05
(PID.TID 0000.0001)  cg2d: iter=    58 ; resid.=  1.55585146664147E-05
(PID.TID 0000.0001)  cg2d: iter=    59 ; resid.=  1.26902257689133E-05
(PID.TID 0000.0001)  cg2d: iter=    60 ; resid.=  9.97203784838321E-06
(PID.TID 0000.0001)  cg2d: iter=    61 ; resid.=  7.91739544424263E-06
(PID.TID 0000.0001)  cg2d: iter=    62 ; resid.=  6.48533626709551E-06
(PID.TID 0000.0001)  cg2d: iter=    63 ; resid.=  5.58625315954230E-06
(PID.TID 0000.0001)  cg2d: iter=    64 ; resid.=  4.53884350740759E-06
(PID.TID 0000.0001)  cg2d: iter=    65 ; resid.=  3.77084704802820E-06
(PID.TID 0000.0001)  cg2d: iter=    66 ; resid.=  3.01378106944082E-06
(PID.TID 0000.0001)  cg2d: iter=    67 ; resid.=  2.56482820962186E-06
(PID.TID 0000.0001)  cg2d: iter=    68 ; resid.=  1.98137393567787E-06
(PID.TID 0000.0001)  cg2d: iter=    69 ; resid.=  1.64964439185561E-06
(PID.TID 0000.0001)  cg2d: iter=    70 ; resid.=  1.41186418974836E-06
(PID.TID 0000.0001)  cg2d: iter=    71 ; resid.=  1.18387146277947E-06
(PID.TID 0000.0001)  cg2d: iter=    72 ; resid.=  1.05281337682844E-06
(PID.TID 0000.0001)  cg2d: iter=    73 ; resid.=  9.63822648290086E-07
(PID.TID 0000.0001)  cg2d: iter=    74 ; resid.=  8.02042649601521E-07
(PID.TID 0000.0001)  cg2d: iter=    75 ; resid.=  6.38032848542643E-07
(PID.TID 0000.0001)  cg2d: iter=    76 ; resid.=  5.29584405475487E-07
(PID.TID 0000.0001)  cg2d: iter=    77 ; resid.=  4.37331632785057E-07
(PID.TID 0000.0001)  cg2d: iter=    78 ; resid.=  3.57829740759035E-07
(PID.TID 0000.0001)  cg2d: iter=    79 ; resid.=  3.12035394870592E-07
(PID.TID 0000.0001)  cg2d: iter=    80 ; resid.=  2.28713937177811E-07
(PID.TID 0000.0001)  cg2d: iter=    81 ; resid.=  1.75752815141712E-07
(PID.TID 0000.0001)  cg2d: iter=    82 ; resid.=  1.35149337195839E-07
(PID.TID 0000.0001)  cg2d: iter=    83 ; resid.=  1.01220303033002E-07
(PID.TID 0000.0001)  cg2d: iter=    84 ; resid.=  7.92415752684122E-08
(PID.TID 0000.0001)  cg2d: iter=    85 ; resid.=  5.85635832542116E-08
(PID.TID 0000.0001)  cg2d: iter=    86 ; resid.=  4.62029132947205E-08
(PID.TID 0000.0001)  cg2d: iter=    87 ; resid.=  3.90663561795997E-08
(PID.TID 0000.0001)  cg2d: iter=    88 ; resid.=  3.31138307967591E-08
(PID.TID 0000.0001)  cg2d: iter=    89 ; resid.=  2.76178865344424E-08
(PID.TID 0000.0001)  cg2d: iter=    90 ; resid.=  2.10043985005615E-08
(PID.TID 0000.0001)  cg2d: iter=    91 ; resid.=  1.57470923319176E-08
(PID.TID 0000.0001)  cg2d: iter=    92 ; resid.=  1.09802852918968E-08
(PID.TID 0000.0001)  cg2d: iter=    93 ; resid.=  6.88891537927148E-09
(PID.TID 0000.0001)  cg2d: iter=    94 ; resid.=  4.68462766071268E-09
(PID.TID 0000.0001)  cg2d: iter=    95 ; resid.=  3.49772593062749E-09
(PID.TID 0000.0001)  cg2d: iter=    96 ; resid.=  2.71945812780193E-09
(PID.TID 0000.0001)  cg2d: iter=    97 ; resid.=  2.15863590602615E-09
(PID.TID 0000.0001)  cg2d: iter=    98 ; resid.=  1.79567771822136E-09
(PID.TID 0000.0001)  cg2d: iter=    99 ; resid.=  1.55374790147323E-09
(PID.TID 0000.0001)  cg2d: iter=   100 ; resid.=  1.41071518780766E-09
(PID.TID 0000.0001)  cg2d: iter=   101 ; resid.=  1.22000545083245E-09
(PID.TID 0000.0001)  cg2d: iter=   102 ; resid.=  1.01090927024171E-09
(PID.TID 0000.0001)  cg2d: iter=   103 ; resid.=  8.50390110567005E-10
(PID.TID 0000.0001)  cg2d: iter=   104 ; resid.=  6.69141117550230E-10
(PID.TID 0000.0001)  cg2d: iter=   105 ; resid.=  5.03832493172150E-10
(PID.TID 0000.0001)  cg2d: iter=   106 ; resid.=  4.14472253866704E-10
(PID.TID 0000.0001)  cg2d: iter=   107 ; resid.=  3.19745330927598E-10
(PID.TID 0000.0001)  cg2d: iter=   108 ; resid.=  2.41318107768934E-10
(PID.TID 0000.0001)  cg2d: iter=   109 ; resid.=  1.90135941687101E-10
(PID.TID 0000.0001)  cg2d: iter=   110 ; resid.=  1.47781698875904E-10
(PID.TID 0000.0001)  cg2d: iter=   111 ; resid.=  1.16658806958647E-10
(PID.TID 0000.0001)  cg2d: iter=   112 ; resid.=  8.77590786406513E-11
(PID.TID 0000.0001)  cg2d: iter=   113 ; resid.=  6.64730274909029E-11
(PID.TID 0000.0001)  cg2d: iter=   114 ; resid.=  5.36017732360428E-11
(PID.TID 0000.0001)  cg2d: iter=   115 ; resid.=  3.96569577535419E-11
(PID.TID 0000.0001)  cg2d: iter=   116 ; resid.=  2.95194913196177E-11
(PID.TID 0000.0001)  cg2d: iter=   117 ; resid.=  2.43065581580054E-11
(PID.TID 0000.0001)  cg2d: iter=   118 ; resid.=  1.81361227010283E-11
(PID.TID 0000.0001)  cg2d: iter=   119 ; resid.=  1.42319464647922E-11
(PID.TID 0000.0001)  cg2d: iter=   120 ; resid.=  1.06359306945795E-11
(PID.TID 0000.0001)  cg2d: iter=   121 ; resid.=  7.89965483116249E-12
(PID.TID 0000.0001)  cg2d: iter=   122 ; resid.=  6.14336611451016E-12
(PID.TID 0000.0001)  cg2d: iter=   123 ; resid.=  4.39064916709670E-12
(PID.TID 0000.0001)  cg2d: iter=   124 ; resid.=  3.03576663450736E-12
(PID.TID 0000.0001)  cg2d: iter=   125 ; resid.=  2.19956197776497E-12
(PID.TID 0000.0001)  cg2d: iter=   126 ; resid.=  1.61945029944684E-12
(PID.TID 0000.0001)  cg2d: iter=   127 ; resid.=  1.13858453511661E-12
(PID.TID 0000.0001)  cg2d: iter=   128 ; resid.=  8.32571214713736E-13
(PID.TID 0000.0001)  cg2d: iter=   129 ; resid.=  6.48997565291325E-13
(PID.TID 0000.0001)  cg2d: iter=   130 ; resid.=  4.83670261916956E-13
(PID.TID 0000.0001)  cg2d: iter=   131 ; resid.=  3.67166020182579E-13
(PID.TID 0000.0001)  cg2d: iter=   132 ; resid.=  2.71566897053847E-13
(PID.TID 0000.0001)  cg2d: iter=   133 ; resid.=  2.20380729255855E-13
(PID.TID 0000.0001)  cg2d: iter=   134 ; resid.=  1.66489632092226E-13
(PID.TID 0000.0001)  cg2d: iter=   135 ; resid.=  1.22905226628703E-13
(PID.TID 0000.0001)  cg2d: iter=   136 ; resid.=  8.18680744279944E-14
DEBUG_STATS_RL:    cg2d_x (SOLVE_FOR_PRESSURE)  min= -1.87710290222679E+01
DEBUG_STATS_RL:    cg2d_x (SOLVE_FOR_PRESSURE)  max=  1.11100281416190E+01
DEBUG_STATS_RL:    cg2d_x (SOLVE_FOR_PRESSURE) mean= -1.46985651009762E+00
DEBUG_STATS_RL:    cg2d_x (SOLVE_FOR_PRESSURE) S.D.=  6.35103108501929E+00
(PID.TID 0000.0001)      cg2d_init_res =   5.27377628466232E-01
(PID.TID 0000.0001)      cg2d_iters(min,last) =      -1     136
(PID.TID 0000.0001)      cg2d_last_res =   8.18680744279944E-14
(PID.TID 0000.0001) // =======================================================
(PID.TID 0000.0001) // Begin MONITOR dynamic field statistics
(PID.TID 0000.0001) // =======================================================
(PID.TID 0000.0001) %MON time_tsnumber                =                    23
(PID.TID 0000.0001) %MON time_secondsf                =   1.9872000000000E+06
(PID.TID 0000.0001) %MON dynstat_eta_max              =   1.1325207076064E+00
(PID.TID 0000.0001) %MON dynstat_eta_min              =  -1.9134586159295E+00
(PID.TID 0000.0001) %MON dynstat_eta_mean             =  -1.6757667023884E-03
(PID.TID 0000.0001) %MON dynstat_eta_sd               =   5.5647349263704E-01
(PID.TID 0000.0001) %MON dynstat_eta_del2             =   1.9626853593983E-03
(PID.TID 0000.0001) %MON dynstat_uvel_max             =   1.4694783008608E-01
(PID.TID 0000.0001) %MON dynstat_uvel_min             =  -1.5579472927220E-01
(PID.TID 0000.0001) %MON dynstat_uvel_mean            =  -1.5605173875437E-03
(PID.TID 0000.0001) %MON dynstat_uvel_sd              =   1.6809176597301E-02
(PID.TID 0000.0001) %MON dynstat_uvel_del2            =   9.5790441195602E-05
(PID.TID 0000.0001) %MON dynstat_vvel_max             =   1.4396798599389E-01
(PID.TID 0000.0001) %MON dynstat_vvel_min             =  -1.2794918925012E-01
(PID.TID 0000.0001) %MON dynstat_vvel_mean            =   5.9385279818659E-04
(PID.TID 0000.0001) %MON dynstat_vvel_sd              =   1.1502391377253E-02
(PID.TID 0000.0001) %MON dynstat_vvel_del2            =   9.5796066719387E-05
(PID.TID 0000.0001) %MON dynstat_wvel_max             =   1.4649749426487E-04
(PID.TID 0000.0001) %MON dynstat_wvel_min             =  -1.3572920657434E-04
(PID.TID 0000.0001) %MON dynstat_wvel_mean            =  -5.3374219549379E-23
(PID.TID 0000.0001) %MON dynstat_wvel_sd              =   2.0019870932800E-05
(PID.TID 0000.0001) %MON dynstat_wvel_del2            =   2.1657572138937E-07
(PID.TID 0000.0001) %MON dynstat_theta_max            =   2.9882796787372E+01
(PID.TID 0000.0001) %MON dynstat_theta_min            =  -2.0110424980318E+00
(PID.TID 0000.0001) %MON dynstat_theta_mean           =   3.6404085060750E+00
(PID.TID 0000.0001) %MON dynstat_theta_sd             =   4.4162264235817E+00
(PID.TID 0000.0001) %MON dynstat_theta_del2           =   4.8630123227974E-03
(PID.TID 0000.0001) %MON dynstat_salt_max             =   3.7463267193728E+01
(PID.TID 0000.0001) %MON dynstat_salt_min             =   2.9809469506535E+01
(PID.TID 0000.0001) %MON dynstat_salt_mean            =   3.4737941680402E+01
(PID.TID 0000.0001) %MON dynstat_salt_sd              =   2.9618593975238E-01
(PID.TID 0000.0001) %MON dynstat_salt_del2            =   1.0083518809243E-03
(PID.TID 0000.0001) %MON dynstat_sst_max              =   2.9882796787372E+01
(PID.TID 0000.0001) %MON dynstat_sst_min              =  -2.0110424980318E+00
(PID.TID 0000.0001) %MON dynstat_sst_mean             =   1.8717029901331E+01
(PID.TID 0000.0001) %MON dynstat_sst_sd               =   9.0592877232217E+00
(PID.TID 0000.0001) %MON dynstat_sst_del2             =   2.6393728964099E-02
(PID.TID 0000.0001) %MON dynstat_sss_max              =   3.7450005184167E+01
(PID.TID 0000.0001) %MON dynstat_sss_min              =   2.9809469506535E+01
(PID.TID 0000.0001) %MON dynstat_sss_mean             =   3.4870994358880E+01
(PID.TID 0000.0001) %MON dynstat_sss_sd               =   9.7325205483620E-01
(PID.TID 0000.0001) %MON dynstat_sss_del2             =   7.9564160927330E-03
(PID.TID 0000.0001) %MON forcing_qnet_max             =   4.1838000996908E+02
(PID.TID 0000.0001) %MON forcing_qnet_min             =  -1.7834291178385E+02
(PID.TID 0000.0001) %MON forcing_qnet_mean            =  -1.5918161829221E+01
(PID.TID 0000.0001) %MON forcing_qnet_sd              =   1.0239971019621E+02
(PID.TID 0000.0001) %MON forcing_qnet_del2            =   9.9741913177861E-01
(PID.TID 0000.0001) %MON forcing_qsw_max              =   0.0000000000000E+00
(PID.TID 0000.0001) %MON forcing_qsw_min              =   0.0000000000000E+00
(PID.TID 0000.0001) %MON forcing_qsw_mean             =   0.0000000000000E+00
(PID.TID 0000.0001) %MON forcing_qsw_sd               =   0.0000000000000E+00
(PID.TID 0000.0001) %MON forcing_qsw_del2             =   0.0000000000000E+00
(PID.TID 0000.0001) %MON forcing_empmr_max            =   7.9975610844940E-05
(PID.TID 0000.0001) %MON forcing_empmr_min            =  -7.6713466038806E-05
(PID.TID 0000.0001) %MON forcing_empmr_mean           =   9.2771384293034E-07
(PID.TID 0000.0001) %MON forcing_empmr_sd             =   2.8463942811171E-05
(PID.TID 0000.0001) %MON forcing_empmr_del2           =   3.6008973554056E-07
(PID.TID 0000.0001) %MON forcing_fu_max               =   2.7740635275841E-01
(PID.TID 0000.0001) %MON forcing_fu_min               =  -1.7755410373211E-01
(PID.TID 0000.0001) %MON forcing_fu_mean              =   1.6381836660849E-02
(PID.TID 0000.0001) %MON forcing_fu_sd                =   9.0119528995688E-02
(PID.TID 0000.0001) %MON forcing_fu_del2              =   6.8212946826367E-04
(PID.TID 0000.0001) %MON forcing_fv_max               =   2.1066219160954E-01
(PID.TID 0000.0001) %MON forcing_fv_min               =  -1.7119780182838E-01
(PID.TID 0000.0001) %MON forcing_fv_mean              =  -5.7157240865113E-03
(PID.TID 0000.0001) %MON forcing_fv_sd                =   4.6290555441337E-02
(PID.TID 0000.0001) %MON forcing_fv_del2              =   4.6994343397308E-04
(PID.TID 0000.0001) %MON trAdv_CFL_u_max              =   3.9546355473285E-02
(PID.TID 0000.0001) %MON trAdv_CFL_v_max              =   2.9145424140081E-02
(PID.TID 0000.0001) %MON trAdv_CFL_w_max              =   5.2781161028280E-02
(PID.TID 0000.0001) %MON advcfl_uvel_max              =   3.8417285093163E-02
(PID.TID 0000.0001) %MON advcfl_vvel_max              =   2.7970670709716E-02
(PID.TID 0000.0001) %MON advcfl_wvel_max              =   5.2810645147466E-02
(PID.TID 0000.0001) %MON advcfl_W_hf_max              =   6.2241117495227E-02
(PID.TID 0000.0001) %MON pe_b_mean                    =   3.9625440402618E-04
(PID.TID 0000.0001) %MON ke_max                       =   1.3395224725028E-02
(PID.TID 0000.0001) %MON ke_mean                      =   1.8902821974267E-04
(PID.TID 0000.0001) %MON ke_vol                       =   1.3226782436723E+18
(PID.TID 0000.0001) %MON vort_r_min                   =  -3.6209227007720E-07
(PID.TID 0000.0001) %MON vort_r_max                   =   5.2460143476403E-07
(PID.TID 0000.0001) %MON vort_a_mean                  =  -2.5274806560228E-05
(PID.TID 0000.0001) %MON vort_a_sd                    =   7.3604063223068E-05
(PID.TID 0000.0001) %MON vort_p_mean                  =  -3.1845654744591E-05
(PID.TID 0000.0001) %MON vort_p_sd                    =   1.3162534336748E-04
(PID.TID 0000.0001) %MON surfExpan_theta_mean         =  -3.5619203887312E-07
(PID.TID 0000.0001) %MON surfExpan_salt_mean          =   1.4911447102917E-07
(PID.TID 0000.0001) // =======================================================
(PID.TID 0000.0001) // End MONITOR dynamic field statistics
(PID.TID 0000.0001) // =======================================================
 EXTERNAL_FIELDS_LOAD,        23 : iP,iLd,i0,i1=    1    2    1    2 ; Wght=  0.7333333333  0.2666666667
 EXTERNAL_FIELDS_LOAD: (fu0,1),fu,fv= -3.5633E-02 -1.4435E-02 -2.9980E-02 -4.6691E-02
 EXTERNAL_FIELDS_LOAD: SST,SSS,Q,E-P=  5.6102E-01  3.4636E+01  2.5903E+02  1.0767E-05
DEBUG_STATS_RL:          Uvel (THERMODYNAMICS)  min= -1.55794729272202E-01
DEBUG_STATS_RL:          Uvel (THERMODYNAMICS)  max=  1.46947830086079E-01
DEBUG_STATS_RL:          Uvel (THERMODYNAMICS) mean=  8.83425463095922E-04
DEBUG_STATS_RL:          Uvel (THERMODYNAMICS) S.D.=  2.19202581010691E-02
DEBUG_STATS_RL:          Vvel (THERMODYNAMICS)  min= -1.27949189250119E-01
DEBUG_STATS_RL:          Vvel (THERMODYNAMICS)  max=  1.43967985993893E-01
DEBUG_STATS_RL:          Vvel (THERMODYNAMICS) mean=  2.29851894152881E-03
DEBUG_STATS_RL:          Vvel (THERMODYNAMICS) S.D.=  1.77115515709858E-02
DEBUG_STATS_RL:          Wvel (THERMODYNAMICS)  min= -1.35729206574341E-04
DEBUG_STATS_RL:          Wvel (THERMODYNAMICS)  max=  1.46497494264873E-04
DEBUG_STATS_RL:          Wvel (THERMODYNAMICS) mean=  3.92753032825508E-07
DEBUG_STATS_RL:          Wvel (THERMODYNAMICS) S.D.=  1.80257568560038E-05
DEBUG_STATS_RL:         Theta (THERMODYNAMICS)  min= -2.01048050794253E+00
DEBUG_STATS_RL:         Theta (THERMODYNAMICS)  max=  2.98949928570787E+01
DEBUG_STATS_RL:         Theta (THERMODYNAMICS) mean=  3.22853846960267E+00
DEBUG_STATS_RL:         Theta (THERMODYNAMICS) S.D.=  5.85751103249727E+00
DEBUG_STATS_RL:          Salt (THERMODYNAMICS)  min=  2.00000000000000E-02
DEBUG_STATS_RL:          Salt (THERMODYNAMICS)  max=  3.74641185031196E+01
DEBUG_STATS_RL:          Salt (THERMODYNAMICS) mean=  1.88650830603564E+01
DEBUG_STATS_RL:          Salt (THERMODYNAMICS) S.D.=  1.73005735020870E+01
DEBUG_STATS_RL:         GtNm1 (THERMODYNAMICS)  min= -5.04542269367756E-06
DEBUG_STATS_RL:         GtNm1 (THERMODYNAMICS)  max=  3.53765584610306E-06
DEBUG_STATS_RL:         GtNm1 (THERMODYNAMICS) mean= -4.91137633446979E-10
DEBUG_STATS_RL:         GtNm1 (THERMODYNAMICS) S.D.=  2.43349725042649E-07
DEBUG_STATS_RL:         GsNm1 (THERMODYNAMICS)  min= -1.23383747972367E-06
DEBUG_STATS_RL:         GsNm1 (THERMODYNAMICS)  max=  9.42997926152288E-07
DEBUG_STATS_RL:         GsNm1 (THERMODYNAMICS) mean= -5.73642755805148E-10
DEBUG_STATS_RL:         GsNm1 (THERMODYNAMICS) S.D.=  2.40434381317990E-08
DEBUG_STATS_RL:                EtaN (DYNAMICS)  min= -1.91345861592953E+00
DEBUG_STATS_RL:                EtaN (DYNAMICS)  max=  1.13252070760643E+00
DEBUG_STATS_RL:                EtaN (DYNAMICS) mean= -1.49832467899859E-01
DEBUG_STATS_RL:                EtaN (DYNAMICS) S.D.=  6.47403780328164E-01
DEBUG_STATS_RL:                Uvel (DYNAMICS)  min= -1.55794729272202E-01
DEBUG_STATS_RL:                Uvel (DYNAMICS)  max=  1.46947830086079E-01
DEBUG_STATS_RL:                Uvel (DYNAMICS) mean=  8.83425463095922E-04
DEBUG_STATS_RL:                Uvel (DYNAMICS) S.D.=  2.19202581010691E-02
DEBUG_STATS_RL:                Vvel (DYNAMICS)  min= -1.27949189250119E-01
DEBUG_STATS_RL:                Vvel (DYNAMICS)  max=  1.43967985993893E-01
DEBUG_STATS_RL:                Vvel (DYNAMICS) mean=  2.29851894152881E-03
DEBUG_STATS_RL:                Vvel (DYNAMICS) S.D.=  1.77115515709858E-02
DEBUG_STATS_RL:                Wvel (DYNAMICS)  min= -1.35729206574341E-04
DEBUG_STATS_RL:                Wvel (DYNAMICS)  max=  1.46497494264873E-04
DEBUG_STATS_RL:                Wvel (DYNAMICS) mean=  3.92753032825508E-07
DEBUG_STATS_RL:                Wvel (DYNAMICS) S.D.=  1.80257568560038E-05
DEBUG_STATS_RL:               Theta (DYNAMICS)  min= -2.01048050794253E+00
DEBUG_STATS_RL:               Theta (DYNAMICS)  max=  2.98949928570787E+01
DEBUG_STATS_RL:               Theta (DYNAMICS) mean=  3.22853846960267E+00
DEBUG_STATS_RL:               Theta (DYNAMICS) S.D.=  5.85751103249727E+00
DEBUG_STATS_RL:                Salt (DYNAMICS)  min=  2.00000000000000E-02
DEBUG_STATS_RL:                Salt (DYNAMICS)  max=  3.74641185031196E+01
DEBUG_STATS_RL:                Salt (DYNAMICS) mean=  1.88650830603564E+01
DEBUG_STATS_RL:                Salt (DYNAMICS) S.D.=  1.73005735020870E+01
DEBUG_STATS_RL:                  Gu (DYNAMICS)  min= -1.62749900414522E-01
DEBUG_STATS_RL:                  Gu (DYNAMICS)  max=  1.47957225288189E-01
DEBUG_STATS_RL:                  Gu (DYNAMICS) mean=  1.22709458955797E-03
DEBUG_STATS_RL:                  Gu (DYNAMICS) S.D.=  2.23094038707248E-02
DEBUG_STATS_RL:                  Gv (DYNAMICS)  min= -1.41477342909601E-01
DEBUG_STATS_RL:                  Gv (DYNAMICS)  max=  1.58972411105673E-01
DEBUG_STATS_RL:                  Gv (DYNAMICS) mean=  4.25754938965192E-03
DEBUG_STATS_RL:                  Gv (DYNAMICS) S.D.=  1.91525650780441E-02
DEBUG_STATS_RL:               GuNm1 (DYNAMICS)  min= -7.04176847614162E-06
DEBUG_STATS_RL:               GuNm1 (DYNAMICS)  max=  8.09080319933823E-06
DEBUG_STATS_RL:               GuNm1 (DYNAMICS) mean= -7.42533110586749E-09
DEBUG_STATS_RL:               GuNm1 (DYNAMICS) S.D.=  1.18252393948568E-06
DEBUG_STATS_RL:               GvNm1 (DYNAMICS)  min= -9.81629316294387E-06
DEBUG_STATS_RL:               GvNm1 (DYNAMICS)  max=  1.70750794674866E-05
DEBUG_STATS_RL:               GvNm1 (DYNAMICS) mean=  7.75082051906528E-07
DEBUG_STATS_RL:               GvNm1 (DYNAMICS) S.D.=  2.62664983832625E-06
DEBUG_STATS_RL:               GtNm1 (DYNAMICS)  min= -5.04542269367756E-06
DEBUG_STATS_RL:               GtNm1 (DYNAMICS)  max=  3.53765584610306E-06
DEBUG_STATS_RL:               GtNm1 (DYNAMICS) mean= -4.91137633446979E-10
DEBUG_STATS_RL:               GtNm1 (DYNAMICS) S.D.=  2.43349725042649E-07
DEBUG_STATS_RL:               GsNm1 (DYNAMICS)  min= -1.23383747972367E-06
DEBUG_STATS_RL:               GsNm1 (DYNAMICS)  max=  9.42997926152288E-07
DEBUG_STATS_RL:               GsNm1 (DYNAMICS) mean= -5.73642755805148E-10
DEBUG_STATS_RL:               GsNm1 (DYNAMICS) S.D.=  2.40434381317990E-08
DEBUG_STATS_RL:    cg2d_b (SOLVE_FOR_PRESSURE)  min= -2.38332662167912E+04
DEBUG_STATS_RL:    cg2d_b (SOLVE_FOR_PRESSURE)  max=  1.94054854315784E+04
DEBUG_STATS_RL:    cg2d_b (SOLVE_FOR_PRESSURE) mean=  1.68037945959901E+00
DEBUG_STATS_RL:    cg2d_b (SOLVE_FOR_PRESSURE) S.D.=  3.77906643947268E+03
 cg2d: Sum(rhs),rhsMax =   1.63220534423968E-01  1.56543273691861E+00
(PID.TID 0000.0001)  cg2d: iter=     1 ; resid.=  3.18569009445246E-01
(PID.TID 0000.0001)  cg2d: iter=     2 ; resid.=  2.88425222257823E-01
(PID.TID 0000.0001)  cg2d: iter=     3 ; resid.=  2.74601624591933E-01
(PID.TID 0000.0001)  cg2d: iter=     4 ; resid.=  2.64729691069444E-01
(PID.TID 0000.0001)  cg2d: iter=     5 ; resid.=  2.11580415250524E-01
(PID.TID 0000.0001)  cg2d: iter=     6 ; resid.=  1.56918813976847E-01
(PID.TID 0000.0001)  cg2d: iter=     7 ; resid.=  1.42168324580153E-01
(PID.TID 0000.0001)  cg2d: iter=     8 ; resid.=  1.24962052573448E-01
(PID.TID 0000.0001)  cg2d: iter=     9 ; resid.=  9.85667580482537E-02
(PID.TID 0000.0001)  cg2d: iter=    10 ; resid.=  8.70821958365910E-02
(PID.TID 0000.0001)  cg2d: iter=    11 ; resid.=  7.91039425881991E-02
(PID.TID 0000.0001)  cg2d: iter=    12 ; resid.=  6.28149467551037E-02
(PID.TID 0000.0001)  cg2d: iter=    13 ; resid.=  4.94354251483148E-02
(PID.TID 0000.0001)  cg2d: iter=    14 ; resid.=  4.11688839777185E-02
(PID.TID 0000.0001)  cg2d: iter=    15 ; resid.=  3.19370572676691E-02
(PID.TID 0000.0001)  cg2d: iter=    16 ; resid.=  2.89196641616686E-02
(PID.TID 0000.0001)  cg2d: iter=    17 ; resid.=  2.73188456621164E-02
(PID.TID 0000.0001)  cg2d: iter=    18 ; resid.=  2.22039485962066E-02
(PID.TID 0000.0001)  cg2d: iter=    19 ; resid.=  1.86208468028813E-02
(PID.TID 0000.0001)  cg2d: iter=    20 ; resid.=  1.58159016995214E-02
(PID.TID 0000.0001)  cg2d: iter=    21 ; resid.=  1.30224980609777E-02
(PID.TID 0000.0001)  cg2d: iter=    22 ; resid.=  1.02941480137594E-02
(PID.TID 0000.0001)  cg2d: iter=    23 ; resid.=  8.76839770431800E-03
(PID.TID 0000.0001)  cg2d: iter=    24 ; resid.=  7.55215561659856E-03
(PID.TID 0000.0001)  cg2d: iter=    25 ; resid.=  5.87673533859286E-03
(PID.TID 0000.0001)  cg2d: iter=    26 ; resid.=  4.92618638863189E-03
(PID.TID 0000.0001)  cg2d: iter=    27 ; resid.=  4.52609609094416E-03
(PID.TID 0000.0001)  cg2d: iter=    28 ; resid.=  3.70008204172577E-03
(PID.TID 0000.0001)  cg2d: iter=    29 ; resid.=  2.95928723014698E-03
(PID.TID 0000.0001)  cg2d: iter=    30 ; resid.=  2.56304812077439E-03
(PID.TID 0000.0001)  cg2d: iter=    31 ; resid.=  2.15545905034864E-03
(PID.TID 0000.0001)  cg2d: iter=    32 ; resid.=  1.67573823040822E-03
(PID.TID 0000.0001)  cg2d: iter=    33 ; resid.=  1.43942422485869E-03
(PID.TID 0000.0001)  cg2d: iter=    34 ; resid.=  1.20069603148313E-03
(PID.TID 0000.0001)  cg2d: iter=    35 ; resid.=  9.75358349892004E-04
(PID.TID 0000.0001)  cg2d: iter=    36 ; resid.=  8.12776076245439E-04
(PID.TID 0000.0001)  cg2d: iter=    37 ; resid.=  7.20938912134745E-04
(PID.TID 0000.0001)  cg2d: iter=    38 ; resid.=  6.54622162460506E-04
(PID.TID 0000.0001)  cg2d: iter=    39 ; resid.=  5.80245064277349E-04
(PID.TID 0000.0001)  cg2d: iter=    40 ; resid.=  4.95878512974576E-04
(PID.TID 0000.0001)  cg2d: iter=    41 ; resid.=  3.93194522091287E-04
(PID.TID 0000.0001)  cg2d: iter=    42 ; resid.=  3.42807303687422E-04
(PID.TID 0000.0001)  cg2d: iter=    43 ; resid.=  2.99847193441932E-04
(PID.TID 0000.0001)  cg2d: iter=    44 ; resid.=  2.43461624234905E-04
(PID.TID 0000.0001)  cg2d: iter=    45 ; resid.=  1.79298357591107E-04
(PID.TID 0000.0001)  cg2d: iter=    46 ; resid.=  1.35917656766973E-04
(PID.TID 0000.0001)  cg2d: iter=    47 ; resid.=  1.13019890057283E-04
(PID.TID 0000.0001)  cg2d: iter=    48 ; resid.=  8.81549947497451E-05
(PID.TID 0000.0001)  cg2d: iter=    49 ; resid.=  7.01727842288167E-05
(PID.TID 0000.0001)  cg2d: iter=    50 ; resid.=  5.89863145025603E-05
(PID.TID 0000.0001)  cg2d: iter=    51 ; resid.=  4.91813645346354E-05
(PID.TID 0000.0001)  cg2d: iter=    52 ; resid.=  4.35614075221300E-05
(PID.TID 0000.0001)  cg2d: iter=    53 ; resid.=  3.92315124396769E-05
(PID.TID 0000.0001)  cg2d: iter=    54 ; resid.=  3.34844113939059E-05
(PID.TID 0000.0001)  cg2d: iter=    55 ; resid.=  2.76186345571644E-05
(PID.TID 0000.0001)  cg2d: iter=    56 ; resid.=  2.41433822095120E-05
(PID.TID 0000.0001)  cg2d: iter=    57 ; resid.=  1.96657795267782E-05
(PID.TID 0000.0001)  cg2d: iter=    58 ; resid.=  1.51825692548065E-05
(PID.TID 0000.0001)  cg2d: iter=    59 ; resid.=  1.22668377236299E-05
(PID.TID 0000.0001)  cg2d: iter=    60 ; resid.=  9.59334102770436E-06
(PID.TID 0000.0001)  cg2d: iter=    61 ; resid.=  7.65808430596945E-06
(PID.TID 0000.0001)  cg2d: iter=    62 ; resid.=  6.38051583364365E-06
(PID.TID 0000.0001)  cg2d: iter=    63 ; resid.=  5.50553682277232E-06
(PID.TID 0000.0001)  cg2d: iter=    64 ; resid.=  4.46973594965424E-06
(PID.TID 0000.0001)  cg2d: iter=    65 ; resid.=  3.62941234351905E-06
(PID.TID 0000.0001)  cg2d: iter=    66 ; resid.=  2.85683773271381E-06
(PID.TID 0000.0001)  cg2d: iter=    67 ; resid.=  2.42240605918432E-06
(PID.TID 0000.0001)  cg2d: iter=    68 ; resid.=  1.90930982587488E-06
(PID.TID 0000.0001)  cg2d: iter=    69 ; resid.=  1.59587902094147E-06
(PID.TID 0000.0001)  cg2d: iter=    70 ; resid.=  1.37594848847047E-06
(PID.TID 0000.0001)  cg2d: iter=    71 ; resid.=  1.11697737995098E-06
(PID.TID 0000.0001)  cg2d: iter=    72 ; resid.=  9.65178465489516E-07
(PID.TID 0000.0001)  cg2d: iter=    73 ; resid.=  8.77375483526663E-07
(PID.TID 0000.0001)  cg2d: iter=    74 ; resid.=  7.22961330926875E-07
(PID.TID 0000.0001)  cg2d: iter=    75 ; resid.=  5.68467180950858E-07
(PID.TID 0000.0001)  cg2d: iter=    76 ; resid.=  4.81002775660917E-07
(PID.TID 0000.0001)  cg2d: iter=    77 ; resid.=  4.07232549563794E-07
(PID.TID 0000.0001)  cg2d: iter=    78 ; resid.=  3.36091658231638E-07
(PID.TID 0000.0001)  cg2d: iter=    79 ; resid.=  2.95985051043036E-07
(PID.TID 0000.0001)  cg2d: iter=    80 ; resid.=  2.18442916803181E-07
(PID.TID 0000.0001)  cg2d: iter=    81 ; resid.=  1.69465860268099E-07
(PID.TID 0000.0001)  cg2d: iter=    82 ; resid.=  1.28613921482653E-07
(PID.TID 0000.0001)  cg2d: iter=    83 ; resid.=  9.44675081587950E-08
(PID.TID 0000.0001)  cg2d: iter=    84 ; resid.=  7.31177828268111E-08
(PID.TID 0000.0001)  cg2d: iter=    85 ; resid.=  5.36503455340386E-08
(PID.TID 0000.0001)  cg2d: iter=    86 ; resid.=  4.23517888138212E-08
(PID.TID 0000.0001)  cg2d: iter=    87 ; resid.=  3.57553988987731E-08
(PID.TID 0000.0001)  cg2d: iter=    88 ; resid.=  3.06522168475434E-08
(PID.TID 0000.0001)  cg2d: iter=    89 ; resid.=  2.55573588575954E-08
(PID.TID 0000.0001)  cg2d: iter=    90 ; resid.=  1.96551764515709E-08
(PID.TID 0000.0001)  cg2d: iter=    91 ; resid.=  1.46216882152067E-08
(PID.TID 0000.0001)  cg2d: iter=    92 ; resid.=  1.00453858695307E-08
(PID.TID 0000.0001)  cg2d: iter=    93 ; resid.=  6.41419643483349E-09
(PID.TID 0000.0001)  cg2d: iter=    94 ; resid.=  4.43738806144782E-09
(PID.TID 0000.0001)  cg2d: iter=    95 ; resid.=  3.43800024427653E-09
(PID.TID 0000.0001)  cg2d: iter=    96 ; resid.=  2.64203296025327E-09
(PID.TID 0000.0001)  cg2d: iter=    97 ; resid.=  1.97565454730328E-09
(PID.TID 0000.0001)  cg2d: iter=    98 ; resid.=  1.49836301558068E-09
(PID.TID 0000.0001)  cg2d: iter=    99 ; resid.=  1.19096889201902E-09
(PID.TID 0000.0001)  cg2d: iter=   100 ; resid.=  1.01688020722509E-09
(PID.TID 0000.0001)  cg2d: iter=   101 ; resid.=  8.57844075467111E-10
(PID.TID 0000.0001)  cg2d: iter=   102 ; resid.=  7.13102321162693E-10
(PID.TID 0000.0001)  cg2d: iter=   103 ; resid.=  6.05895770264098E-10
(PID.TID 0000.0001)  cg2d: iter=   104 ; resid.=  4.99224750941972E-10
(PID.TID 0000.0001)  cg2d: iter=   105 ; resid.=  3.95714012823920E-10
(PID.TID 0000.0001)  cg2d: iter=   106 ; resid.=  3.37394459854225E-10
(PID.TID 0000.0001)  cg2d: iter=   107 ; resid.=  2.74660817241918E-10
(PID.TID 0000.0001)  cg2d: iter=   108 ; resid.=  2.18442471983211E-10
(PID.TID 0000.0001)  cg2d: iter=   109 ; resid.=  1.81460917317733E-10
(PID.TID 0000.0001)  cg2d: iter=   110 ; resid.=  1.45204799802136E-10
(PID.TID 0000.0001)  cg2d: iter=   111 ; resid.=  1.15603315991742E-10
(PID.TID 0000.0001)  cg2d: iter=   112 ; resid.=  8.82206421530100E-11
(PID.TID 0000.0001)  cg2d: iter=   113 ; resid.=  6.67638804058970E-11
(PID.TID 0000.0001)  cg2d: iter=   114 ; resid.=  5.22246462901241E-11
(PID.TID 0000.0001)  cg2d: iter=   115 ; resid.=  3.82819967434499E-11
(PID.TID 0000.0001)  cg2d: iter=   116 ; resid.=  2.91677525264547E-11
(PID.TID 0000.0001)  cg2d: iter=   117 ; resid.=  2.45294048603135E-11
(PID.TID 0000.0001)  cg2d: iter=   118 ; resid.=  1.88355084617399E-11
(PID.TID 0000.0001)  cg2d: iter=   119 ; resid.=  1.53616286752715E-11
(PID.TID 0000.0001)  cg2d: iter=   120 ; resid.=  1.16164432804217E-11
(PID.TID 0000.0001)  cg2d: iter=   121 ; resid.=  8.83755738234074E-12
(PID.TID 0000.0001)  cg2d: iter=   122 ; resid.=  6.86021246858739E-12
(PID.TID 0000.0001)  cg2d: iter=   123 ; resid.=  4.84175816736682E-12
(PID.TID 0000.0001)  cg2d: iter=   124 ; resid.=  3.36079663681572E-12
(PID.TID 0000.0001)  cg2d: iter=   125 ; resid.=  2.49502002858576E-12
(PID.TID 0000.0001)  cg2d: iter=   126 ; resid.=  1.83998641648846E-12
(PID.TID 0000.0001)  cg2d: iter=   127 ; resid.=  1.30962811637831E-12
(PID.TID 0000.0001)  cg2d: iter=   128 ; resid.=  9.59652471829307E-13
(PID.TID 0000.0001)  cg2d: iter=   129 ; resid.=  7.38867454486733E-13
(PID.TID 0000.0001)  cg2d: iter=   130 ; resid.=  5.46943387380893E-13
(PID.TID 0000.0001)  cg2d: iter=   131 ; resid.=  4.12732748506688E-13
(PID.TID 0000.0001)  cg2d: iter=   132 ; resid.=  2.95349982259246E-13
(PID.TID 0000.0001)  cg2d: iter=   133 ; resid.=  2.39025154296446E-13
(PID.TID 0000.0001)  cg2d: iter=   134 ; resid.=  1.74217520545545E-13
(PID.TID 0000.0001)  cg2d: iter=   135 ; resid.=  1.28514866870800E-13
(PID.TID 0000.0001)  cg2d: iter=   136 ; resid.=  9.00804324075812E-14
DEBUG_STATS_RL:    cg2d_x (SOLVE_FOR_PRESSURE)  min= -1.92894673285412E+01
DEBUG_STATS_RL:    cg2d_x (SOLVE_FOR_PRESSURE)  max=  1.06444517954137E+01
DEBUG_STATS_RL:    cg2d_x (SOLVE_FOR_PRESSURE) mean= -1.45627553219443E+00
DEBUG_STATS_RL:    cg2d_x (SOLVE_FOR_PRESSURE) S.D.=  6.40002118969801E+00
(PID.TID 0000.0001)      cg2d_init_res =   5.09509363633797E-01
(PID.TID 0000.0001)      cg2d_iters(min,last) =      -1     136
(PID.TID 0000.0001)      cg2d_last_res =   9.00804324075812E-14
(PID.TID 0000.0001) // =======================================================
(PID.TID 0000.0001) // Begin MONITOR dynamic field statistics
(PID.TID 0000.0001) // =======================================================
(PID.TID 0000.0001) %MON time_tsnumber                =                    24
(PID.TID 0000.0001) %MON time_secondsf                =   2.0736000000000E+06
(PID.TID 0000.0001) %MON dynstat_eta_max              =   1.0850613450982E+00
(PID.TID 0000.0001) %MON dynstat_eta_min              =  -1.9663065574457E+00
(PID.TID 0000.0001) %MON dynstat_eta_mean             =  -1.7532676059173E-03
(PID.TID 0000.0001) %MON dynstat_eta_sd               =   5.5772164798111E-01
(PID.TID 0000.0001) %MON dynstat_eta_del2             =   1.9944191922882E-03
(PID.TID 0000.0001) %MON dynstat_uvel_max             =   1.4567691184776E-01
(PID.TID 0000.0001) %MON dynstat_uvel_min             =  -1.6111673757294E-01
(PID.TID 0000.0001) %MON dynstat_uvel_mean            =  -9.6482553619105E-04
(PID.TID 0000.0001) %MON dynstat_uvel_sd              =   1.6641236004172E-02
(PID.TID 0000.0001) %MON dynstat_uvel_del2            =   9.4242282669067E-05
(PID.TID 0000.0001) %MON dynstat_vvel_max             =   1.3986938539625E-01
(PID.TID 0000.0001) %MON dynstat_vvel_min             =  -1.3046251418868E-01
(PID.TID 0000.0001) %MON dynstat_vvel_mean            =   4.7117144280131E-04
(PID.TID 0000.0001) %MON dynstat_vvel_sd              =   1.1429434231786E-02
(PID.TID 0000.0001) %MON dynstat_vvel_del2            =   9.3528916099697E-05
(PID.TID 0000.0001) %MON dynstat_wvel_max             =   1.3217175020303E-04
(PID.TID 0000.0001) %MON dynstat_wvel_min             =  -1.2834240865496E-04
(PID.TID 0000.0001) %MON dynstat_wvel_mean            =  -6.9774119410920E-23
(PID.TID 0000.0001) %MON dynstat_wvel_sd              =   1.9079874425721E-05
(PID.TID 0000.0001) %MON dynstat_wvel_del2            =   2.0468237267496E-07
(PID.TID 0000.0001) %MON dynstat_theta_max            =   2.9894992857079E+01
(PID.TID 0000.0001) %MON dynstat_theta_min            =  -2.0104805079425E+00
(PID.TID 0000.0001) %MON dynstat_theta_mean           =   3.6405062723822E+00
(PID.TID 0000.0001) %MON dynstat_theta_sd             =   4.4164051343806E+00
(PID.TID 0000.0001) %MON dynstat_theta_del2           =   4.8634184463292E-03
(PID.TID 0000.0001) %MON dynstat_salt_max             =   3.7464118503120E+01
(PID.TID 0000.0001) %MON dynstat_salt_min             =   2.9819797878169E+01
(PID.TID 0000.0001) %MON dynstat_salt_mean            =   3.4737939713389E+01
(PID.TID 0000.0001) %MON dynstat_salt_sd              =   2.9617467865075E-01
(PID.TID 0000.0001) %MON dynstat_salt_del2            =   1.0068207099583E-03
(PID.TID 0000.0001) %MON dynstat_sst_max              =   2.9894992857079E+01
(PID.TID 0000.0001) %MON dynstat_sst_min              =  -2.0104805079425E+00
(PID.TID 0000.0001) %MON dynstat_sst_mean             =   1.8721526148475E+01
(PID.TID 0000.0001) %MON dynstat_sst_sd               =   9.0595258534386E+00
(PID.TID 0000.0001) %MON dynstat_sst_del2             =   2.6385573310650E-02
(PID.TID 0000.0001) %MON dynstat_sss_max              =   3.7450121682613E+01
(PID.TID 0000.0001) %MON dynstat_sss_min              =   2.9819797878169E+01
(PID.TID 0000.0001) %MON dynstat_sss_mean             =   3.4870343835181E+01
(PID.TID 0000.0001) %MON dynstat_sss_sd               =   9.7353722876410E-01
(PID.TID 0000.0001) %MON dynstat_sss_del2             =   7.9390769758290E-03
(PID.TID 0000.0001) %MON forcing_qnet_max             =   4.1506092325846E+02
(PID.TID 0000.0001) %MON forcing_qnet_min             =  -1.7810339253743E+02
(PID.TID 0000.0001) %MON forcing_qnet_mean            =  -1.5833252661817E+01
(PID.TID 0000.0001) %MON forcing_qnet_sd              =   1.0134792828630E+02
(PID.TID 0000.0001) %MON forcing_qnet_del2            =   9.9398501080315E-01
(PID.TID 0000.0001) %MON forcing_qsw_max              =   0.0000000000000E+00
(PID.TID 0000.0001) %MON forcing_qsw_min              =   0.0000000000000E+00
(PID.TID 0000.0001) %MON forcing_qsw_mean             =   0.0000000000000E+00
(PID.TID 0000.0001) %MON forcing_qsw_sd               =   0.0000000000000E+00
(PID.TID 0000.0001) %MON forcing_qsw_del2             =   0.0000000000000E+00
(PID.TID 0000.0001) %MON forcing_empmr_max            =   7.9661521112939E-05
(PID.TID 0000.0001) %MON forcing_empmr_min            =  -7.6793110300362E-05
(PID.TID 0000.0001) %MON forcing_empmr_mean           =   9.2839624019029E-07
(PID.TID 0000.0001) %MON forcing_empmr_sd             =   2.8422949327368E-05
(PID.TID 0000.0001) %MON forcing_empmr_del2           =   3.5924996282303E-07
(PID.TID 0000.0001) %MON forcing_fu_max               =   2.7721027731895E-01
(PID.TID 0000.0001) %MON forcing_fu_min               =  -1.7921402752399E-01
(PID.TID 0000.0001) %MON forcing_fu_mean              =   1.6436136876318E-02
(PID.TID 0000.0001) %MON forcing_fu_sd                =   9.0054319436731E-02
(PID.TID 0000.0001) %MON forcing_fu_del2              =   6.7829591148946E-04
(PID.TID 0000.0001) %MON forcing_fv_max               =   2.0745374461015E-01
(PID.TID 0000.0001) %MON forcing_fv_min               =  -1.7020650207996E-01
(PID.TID 0000.0001) %MON forcing_fv_mean              =  -5.7809849932265E-03
(PID.TID 0000.0001) %MON forcing_fv_sd                =   4.6066374404308E-02
(PID.TID 0000.0001) %MON forcing_fv_del2              =   4.6763919861826E-04
(PID.TID 0000.0001) %MON trAdv_CFL_u_max              =   3.8425087918531E-02
(PID.TID 0000.0001) %MON trAdv_CFL_v_max              =   2.8970360309485E-02
(PID.TID 0000.0001) %MON trAdv_CFL_w_max              =   4.5861876049115E-02
(PID.TID 0000.0001) %MON advcfl_uvel_max              =   3.8085022763988E-02
(PID.TID 0000.0001) %MON advcfl_vvel_max              =   2.7174378347245E-02
(PID.TID 0000.0001) %MON advcfl_wvel_max              =   5.7463376646405E-02
(PID.TID 0000.0001) %MON advcfl_W_hf_max              =   6.7724693904691E-02
(PID.TID 0000.0001) %MON pe_b_mean                    =   3.9803429780127E-04
(PID.TID 0000.0001) %MON ke_max                       =   1.3567971630330E-02
(PID.TID 0000.0001) %MON ke_mean                      =   1.8498282396353E-04
(PID.TID 0000.0001) %MON ke_vol                       =   1.3226782436723E+18
(PID.TID 0000.0001) %MON vort_r_min                   =  -3.7346317839827E-07
(PID.TID 0000.0001) %MON vort_r_max                   =   5.0427522112411E-07
(PID.TID 0000.0001) %MON vort_a_mean                  =  -2.5274806561562E-05
(PID.TID 0000.0001) %MON vort_a_sd                    =   7.3604138883269E-05
(PID.TID 0000.0001) %MON vort_p_mean                  =  -3.1845654746272E-05
(PID.TID 0000.0001) %MON vort_p_sd                    =   1.3162603129682E-04
(PID.TID 0000.0001) %MON surfExpan_theta_mean         =  -4.4018939291541E-07
(PID.TID 0000.0001) %MON surfExpan_salt_mean          =   1.0482883018521E-07
(PID.TID 0000.0001) // =======================================================
(PID.TID 0000.0001) // End MONITOR dynamic field statistics
(PID.TID 0000.0001) // =======================================================
 EXTERNAL_FIELDS_LOAD,        24 : iP,iLd,i0,i1=    1    2    1    2 ; Wght=  0.7000000000  0.3000000000
 EXTERNAL_FIELDS_LOAD: (fu0,1),fu,fv= -3.5633E-02 -1.4435E-02 -2.9273E-02 -4.5370E-02
 EXTERNAL_FIELDS_LOAD: SST,SSS,Q,E-P=  5.1134E-01  3.4627E+01  2.5818E+02  1.0659E-05
DEBUG_STATS_RL:          Uvel (THERMODYNAMICS)  min= -1.61116737572937E-01
DEBUG_STATS_RL:          Uvel (THERMODYNAMICS)  max=  1.45676911847760E-01
DEBUG_STATS_RL:          Uvel (THERMODYNAMICS) mean=  1.29756056045672E-03
DEBUG_STATS_RL:          Uvel (THERMODYNAMICS) S.D.=  2.17210370783693E-02
DEBUG_STATS_RL:          Vvel (THERMODYNAMICS)  min= -1.30462514188679E-01
DEBUG_STATS_RL:          Vvel (THERMODYNAMICS)  max=  1.39869385396253E-01
DEBUG_STATS_RL:          Vvel (THERMODYNAMICS) mean=  2.07270997212924E-03
DEBUG_STATS_RL:          Vvel (THERMODYNAMICS) S.D.=  1.74474046982279E-02
DEBUG_STATS_RL:          Wvel (THERMODYNAMICS)  min= -1.28342408654961E-04
DEBUG_STATS_RL:          Wvel (THERMODYNAMICS)  max=  1.32171750203028E-04
DEBUG_STATS_RL:          Wvel (THERMODYNAMICS) mean=  3.62593147984388E-07
DEBUG_STATS_RL:          Wvel (THERMODYNAMICS) S.D.=  1.71521693817740E-05
DEBUG_STATS_RL:         Theta (THERMODYNAMICS)  min= -2.01012027095726E+00
DEBUG_STATS_RL:         Theta (THERMODYNAMICS)  max=  2.99083047001183E+01
DEBUG_STATS_RL:         Theta (THERMODYNAMICS) mean=  3.22850866497712E+00
DEBUG_STATS_RL:         Theta (THERMODYNAMICS) S.D.=  5.85768125272946E+00
DEBUG_STATS_RL:          Salt (THERMODYNAMICS)  min=  2.00000000000000E-02
DEBUG_STATS_RL:          Salt (THERMODYNAMICS)  max=  3.74650511022122E+01
DEBUG_STATS_RL:          Salt (THERMODYNAMICS) mean=  1.88650581855792E+01
DEBUG_STATS_RL:          Salt (THERMODYNAMICS) S.D.=  1.73005506182043E+01
DEBUG_STATS_RL:         GtNm1 (THERMODYNAMICS)  min= -5.30420838777320E-06
DEBUG_STATS_RL:         GtNm1 (THERMODYNAMICS)  max=  3.65131089205713E-06
DEBUG_STATS_RL:         GtNm1 (THERMODYNAMICS) mean= -5.08831051695429E-10
DEBUG_STATS_RL:         GtNm1 (THERMODYNAMICS) S.D.=  2.41775817864184E-07
DEBUG_STATS_RL:         GsNm1 (THERMODYNAMICS)  min= -1.29103679252855E-06
DEBUG_STATS_RL:         GsNm1 (THERMODYNAMICS)  max=  9.68597219489959E-07
DEBUG_STATS_RL:         GsNm1 (THERMODYNAMICS) mean= -6.20355464511859E-10
DEBUG_STATS_RL:         GsNm1 (THERMODYNAMICS) S.D.=  2.42968110616795E-08
DEBUG_STATS_RL:                EtaN (DYNAMICS)  min= -1.96630655744573E+00
DEBUG_STATS_RL:                EtaN (DYNAMICS)  max=  1.08506134509824E+00
DEBUG_STATS_RL:                EtaN (DYNAMICS) mean= -1.48448066482613E-01
DEBUG_STATS_RL:                EtaN (DYNAMICS) S.D.=  6.52397674790826E-01
DEBUG_STATS_RL:                Uvel (DYNAMICS)  min= -1.61116737572937E-01
DEBUG_STATS_RL:                Uvel (DYNAMICS)  max=  1.45676911847760E-01
DEBUG_STATS_RL:                Uvel (DYNAMICS) mean=  1.29756056045672E-03
DEBUG_STATS_RL:                Uvel (DYNAMICS) S.D.=  2.17210370783693E-02
DEBUG_STATS_RL:                Vvel (DYNAMICS)  min= -1.30462514188679E-01
DEBUG_STATS_RL:                Vvel (DYNAMICS)  max=  1.39869385396253E-01
DEBUG_STATS_RL:                Vvel (DYNAMICS) mean=  2.07270997212924E-03
DEBUG_STATS_RL:                Vvel (DYNAMICS) S.D.=  1.74474046982279E-02
DEBUG_STATS_RL:                Wvel (DYNAMICS)  min= -1.28342408654961E-04
DEBUG_STATS_RL:                Wvel (DYNAMICS)  max=  1.32171750203028E-04
DEBUG_STATS_RL:                Wvel (DYNAMICS) mean=  3.62593147984388E-07
DEBUG_STATS_RL:                Wvel (DYNAMICS) S.D.=  1.71521693817740E-05
DEBUG_STATS_RL:               Theta (DYNAMICS)  min= -2.01012027095726E+00
DEBUG_STATS_RL:               Theta (DYNAMICS)  max=  2.99083047001183E+01
DEBUG_STATS_RL:               Theta (DYNAMICS) mean=  3.22850866497712E+00
DEBUG_STATS_RL:               Theta (DYNAMICS) S.D.=  5.85768125272946E+00
DEBUG_STATS_RL:                Salt (DYNAMICS)  min=  2.00000000000000E-02
DEBUG_STATS_RL:                Salt (DYNAMICS)  max=  3.74650511022122E+01
DEBUG_STATS_RL:                Salt (DYNAMICS) mean=  1.88650581855792E+01
DEBUG_STATS_RL:                Salt (DYNAMICS) S.D.=  1.73005506182043E+01
DEBUG_STATS_RL:                  Gu (DYNAMICS)  min= -1.67487954387742E-01
DEBUG_STATS_RL:                  Gu (DYNAMICS)  max=  1.46936007021122E-01
DEBUG_STATS_RL:                  Gu (DYNAMICS) mean=  1.73947521141207E-03
DEBUG_STATS_RL:                  Gu (DYNAMICS) S.D.=  2.23069827276314E-02
DEBUG_STATS_RL:                  Gv (DYNAMICS)  min= -1.42057093313502E-01
DEBUG_STATS_RL:                  Gv (DYNAMICS)  max=  1.52177462044560E-01
DEBUG_STATS_RL:                  Gv (DYNAMICS) mean=  4.08152087320907E-03
DEBUG_STATS_RL:                  Gv (DYNAMICS) S.D.=  1.87095956281101E-02
DEBUG_STATS_RL:               GuNm1 (DYNAMICS)  min= -7.23584805689888E-06
DEBUG_STATS_RL:               GuNm1 (DYNAMICS)  max=  8.07015855246306E-06
DEBUG_STATS_RL:               GuNm1 (DYNAMICS) mean= -7.82875064239444E-09
DEBUG_STATS_RL:               GuNm1 (DYNAMICS) S.D.=  1.19081023242686E-06
DEBUG_STATS_RL:               GvNm1 (DYNAMICS)  min= -1.00537804742890E-05
DEBUG_STATS_RL:               GvNm1 (DYNAMICS)  max=  1.70367746188392E-05
DEBUG_STATS_RL:               GvNm1 (DYNAMICS) mean=  7.74766555411310E-07
DEBUG_STATS_RL:               GvNm1 (DYNAMICS) S.D.=  2.63633706465919E-06
DEBUG_STATS_RL:               GtNm1 (DYNAMICS)  min= -5.30420838777320E-06
DEBUG_STATS_RL:               GtNm1 (DYNAMICS)  max=  3.65131089205713E-06
DEBUG_STATS_RL:               GtNm1 (DYNAMICS) mean= -5.08831051695429E-10
DEBUG_STATS_RL:               GtNm1 (DYNAMICS) S.D.=  2.41775817864184E-07
DEBUG_STATS_RL:               GsNm1 (DYNAMICS)  min= -1.29103679252855E-06
DEBUG_STATS_RL:               GsNm1 (DYNAMICS)  max=  9.68597219489959E-07
DEBUG_STATS_RL:               GsNm1 (DYNAMICS) mean= -6.20355464511859E-10
DEBUG_STATS_RL:               GsNm1 (DYNAMICS) S.D.=  2.42968110616795E-08
DEBUG_STATS_RL:    cg2d_b (SOLVE_FOR_PRESSURE)  min= -2.38870146168583E+04
DEBUG_STATS_RL:    cg2d_b (SOLVE_FOR_PRESSURE)  max=  1.97327519034814E+04
DEBUG_STATS_RL:    cg2d_b (SOLVE_FOR_PRESSURE) mean=  1.75471303499383E+00
DEBUG_STATS_RL:    cg2d_b (SOLVE_FOR_PRESSURE) S.D.=  3.82742062408150E+03
 cg2d: Sum(rhs),rhsMax =   1.70057277611617E-01  1.56896307574236E+00
(PID.TID 0000.0001)  cg2d: iter=     1 ; resid.=  2.95491368100199E-01
(PID.TID 0000.0001)  cg2d: iter=     2 ; resid.=  2.65377049765769E-01
(PID.TID 0000.0001)  cg2d: iter=     3 ; resid.=  2.47938404866906E-01
(PID.TID 0000.0001)  cg2d: iter=     4 ; resid.=  2.27151689444562E-01
(PID.TID 0000.0001)  cg2d: iter=     5 ; resid.=  1.75824810126227E-01
(PID.TID 0000.0001)  cg2d: iter=     6 ; resid.=  1.30610636792017E-01
(PID.TID 0000.0001)  cg2d: iter=     7 ; resid.=  1.16520117349912E-01
(PID.TID 0000.0001)  cg2d: iter=     8 ; resid.=  1.07237995409891E-01
(PID.TID 0000.0001)  cg2d: iter=     9 ; resid.=  8.73525291645215E-02
(PID.TID 0000.0001)  cg2d: iter=    10 ; resid.=  7.76232634877590E-02
(PID.TID 0000.0001)  cg2d: iter=    11 ; resid.=  6.99518011180184E-02
(PID.TID 0000.0001)  cg2d: iter=    12 ; resid.=  5.55040799224083E-02
(PID.TID 0000.0001)  cg2d: iter=    13 ; resid.=  4.42159518851480E-02
(PID.TID 0000.0001)  cg2d: iter=    14 ; resid.=  3.67843169843738E-02
(PID.TID 0000.0001)  cg2d: iter=    15 ; resid.=  2.88256551873373E-02
(PID.TID 0000.0001)  cg2d: iter=    16 ; resid.=  2.56722134684258E-02
(PID.TID 0000.0001)  cg2d: iter=    17 ; resid.=  2.36079212218356E-02
(PID.TID 0000.0001)  cg2d: iter=    18 ; resid.=  1.92132477966969E-02
(PID.TID 0000.0001)  cg2d: iter=    19 ; resid.=  1.58851639305004E-02
(PID.TID 0000.0001)  cg2d: iter=    20 ; resid.=  1.33026194517885E-02
(PID.TID 0000.0001)  cg2d: iter=    21 ; resid.=  1.10229467376779E-02
(PID.TID 0000.0001)  cg2d: iter=    22 ; resid.=  8.77971768780586E-03
(PID.TID 0000.0001)  cg2d: iter=    23 ; resid.=  7.37993129581130E-03
(PID.TID 0000.0001)  cg2d: iter=    24 ; resid.=  6.26105703775067E-03
(PID.TID 0000.0001)  cg2d: iter=    25 ; resid.=  4.77908625102903E-03
(PID.TID 0000.0001)  cg2d: iter=    26 ; resid.=  3.93146547601439E-03
(PID.TID 0000.0001)  cg2d: iter=    27 ; resid.=  3.59030107560782E-03
(PID.TID 0000.0001)  cg2d: iter=    28 ; resid.=  2.93599857995340E-03
(PID.TID 0000.0001)  cg2d: iter=    29 ; resid.=  2.34838730819253E-03
(PID.TID 0000.0001)  cg2d: iter=    30 ; resid.=  2.03413650669046E-03
(PID.TID 0000.0001)  cg2d: iter=    31 ; resid.=  1.75772665277227E-03
(PID.TID 0000.0001)  cg2d: iter=    32 ; resid.=  1.38675084244087E-03
(PID.TID 0000.0001)  cg2d: iter=    33 ; resid.=  1.16753712497142E-03
(PID.TID 0000.0001)  cg2d: iter=    34 ; resid.=  9.66937074325246E-04
(PID.TID 0000.0001)  cg2d: iter=    35 ; resid.=  7.73940815107062E-04
(PID.TID 0000.0001)  cg2d: iter=    36 ; resid.=  6.31532514649831E-04
(PID.TID 0000.0001)  cg2d: iter=    37 ; resid.=  5.54892620461756E-04
(PID.TID 0000.0001)  cg2d: iter=    38 ; resid.=  4.95911716338834E-04
(PID.TID 0000.0001)  cg2d: iter=    39 ; resid.=  4.29695462753382E-04
(PID.TID 0000.0001)  cg2d: iter=    40 ; resid.=  3.75273932575887E-04
(PID.TID 0000.0001)  cg2d: iter=    41 ; resid.=  3.10595164098887E-04
(PID.TID 0000.0001)  cg2d: iter=    42 ; resid.=  2.75187894867903E-04
(PID.TID 0000.0001)  cg2d: iter=    43 ; resid.=  2.47631166744068E-04
(PID.TID 0000.0001)  cg2d: iter=    44 ; resid.=  2.10700925429430E-04
(PID.TID 0000.0001)  cg2d: iter=    45 ; resid.=  1.62817661309364E-04
(PID.TID 0000.0001)  cg2d: iter=    46 ; resid.=  1.23427558232353E-04
(PID.TID 0000.0001)  cg2d: iter=    47 ; resid.=  1.03688937721822E-04
(PID.TID 0000.0001)  cg2d: iter=    48 ; resid.=  8.12070983990950E-05
(PID.TID 0000.0001)  cg2d: iter=    49 ; resid.=  6.27277914393788E-05
(PID.TID 0000.0001)  cg2d: iter=    50 ; resid.=  5.01732238333151E-05
(PID.TID 0000.0001)  cg2d: iter=    51 ; resid.=  4.09614208801983E-05
(PID.TID 0000.0001)  cg2d: iter=    52 ; resid.=  3.58942010515930E-05
(PID.TID 0000.0001)  cg2d: iter=    53 ; resid.=  3.27484483817729E-05
(PID.TID 0000.0001)  cg2d: iter=    54 ; resid.=  2.79530392429399E-05
(PID.TID 0000.0001)  cg2d: iter=    55 ; resid.=  2.35313354740787E-05
(PID.TID 0000.0001)  cg2d: iter=    56 ; resid.=  2.07560541552895E-05
(PID.TID 0000.0001)  cg2d: iter=    57 ; resid.=  1.71307512933817E-05
(PID.TID 0000.0001)  cg2d: iter=    58 ; resid.=  1.34965801206882E-05
(PID.TID 0000.0001)  cg2d: iter=    59 ; resid.=  1.08547790451920E-05
(PID.TID 0000.0001)  cg2d: iter=    60 ; resid.=  8.49869737400654E-06
(PID.TID 0000.0001)  cg2d: iter=    61 ; resid.=  6.81695965402033E-06
(PID.TID 0000.0001)  cg2d: iter=    62 ; resid.=  5.73508278254557E-06
(PID.TID 0000.0001)  cg2d: iter=    63 ; resid.=  4.92793006271686E-06
(PID.TID 0000.0001)  cg2d: iter=    64 ; resid.=  4.01826981604399E-06
(PID.TID 0000.0001)  cg2d: iter=    65 ; resid.=  3.18507730545674E-06
(PID.TID 0000.0001)  cg2d: iter=    66 ; resid.=  2.46778406517822E-06
(PID.TID 0000.0001)  cg2d: iter=    67 ; resid.=  2.10515127394411E-06
(PID.TID 0000.0001)  cg2d: iter=    68 ; resid.=  1.70526403790818E-06
(PID.TID 0000.0001)  cg2d: iter=    69 ; resid.=  1.41985635385448E-06
(PID.TID 0000.0001)  cg2d: iter=    70 ; resid.=  1.22194371478695E-06
(PID.TID 0000.0001)  cg2d: iter=    71 ; resid.=  9.59714072567256E-07
(PID.TID 0000.0001)  cg2d: iter=    72 ; resid.=  8.03950496532605E-07
(PID.TID 0000.0001)  cg2d: iter=    73 ; resid.=  7.22122473616561E-07
(PID.TID 0000.0001)  cg2d: iter=    74 ; resid.=  5.88924135086095E-07
(PID.TID 0000.0001)  cg2d: iter=    75 ; resid.=  4.53347322445406E-07
(PID.TID 0000.0001)  cg2d: iter=    76 ; resid.=  3.88848970332003E-07
(PID.TID 0000.0001)  cg2d: iter=    77 ; resid.=  3.40651205238510E-07
(PID.TID 0000.0001)  cg2d: iter=    78 ; resid.=  2.85095328760387E-07
(PID.TID 0000.0001)  cg2d: iter=    79 ; resid.=  2.57144740639940E-07
(PID.TID 0000.0001)  cg2d: iter=    80 ; resid.=  1.95143347071436E-07
(PID.TID 0000.0001)  cg2d: iter=    81 ; resid.=  1.58032116163453E-07
(PID.TID 0000.0001)  cg2d: iter=    82 ; resid.=  1.20782872656424E-07
(PID.TID 0000.0001)  cg2d: iter=    83 ; resid.=  8.80456453284555E-08
(PID.TID 0000.0001)  cg2d: iter=    84 ; resid.=  6.72578117409951E-08
(PID.TID 0000.0001)  cg2d: iter=    85 ; resid.=  4.91876865598560E-08
(PID.TID 0000.0001)  cg2d: iter=    86 ; resid.=  3.84779453636002E-08
(PID.TID 0000.0001)  cg2d: iter=    87 ; resid.=  3.24748179521519E-08
(PID.TID 0000.0001)  cg2d: iter=    88 ; resid.=  2.80571849039635E-08
(PID.TID 0000.0001)  cg2d: iter=    89 ; resid.=  2.31869956761042E-08
(PID.TID 0000.0001)  cg2d: iter=    90 ; resid.=  1.78187048765170E-08
(PID.TID 0000.0001)  cg2d: iter=    91 ; resid.=  1.33073410143337E-08
(PID.TID 0000.0001)  cg2d: iter=    92 ; resid.=  9.17375269910802E-09
(PID.TID 0000.0001)  cg2d: iter=    93 ; resid.=  6.10327775230731E-09
(PID.TID 0000.0001)  cg2d: iter=    94 ; resid.=  4.36087852082894E-09
(PID.TID 0000.0001)  cg2d: iter=    95 ; resid.=  3.50923374800819E-09
(PID.TID 0000.0001)  cg2d: iter=    96 ; resid.=  2.66318405279503E-09
(PID.TID 0000.0001)  cg2d: iter=    97 ; resid.=  1.94087783759583E-09
(PID.TID 0000.0001)  cg2d: iter=    98 ; resid.=  1.42681733152031E-09
(PID.TID 0000.0001)  cg2d: iter=    99 ; resid.=  1.10968176712999E-09
(PID.TID 0000.0001)  cg2d: iter=   100 ; resid.=  9.06758778291745E-10
(PID.TID 0000.0001)  cg2d: iter=   101 ; resid.=  7.29859954662200E-10
(PID.TID 0000.0001)  cg2d: iter=   102 ; resid.=  5.83756217000146E-10
(PID.TID 0000.0001)  cg2d: iter=   103 ; resid.=  4.65754168915681E-10
(PID.TID 0000.0001)  cg2d: iter=   104 ; resid.=  3.75636582765427E-10
(PID.TID 0000.0001)  cg2d: iter=   105 ; resid.=  2.98198400738847E-10
(PID.TID 0000.0001)  cg2d: iter=   106 ; resid.=  2.56906765796741E-10
(PID.TID 0000.0001)  cg2d: iter=   107 ; resid.=  2.17630337601458E-10
(PID.TID 0000.0001)  cg2d: iter=   108 ; resid.=  1.83118674495870E-10
(PID.TID 0000.0001)  cg2d: iter=   109 ; resid.=  1.58320982178449E-10
(PID.TID 0000.0001)  cg2d: iter=   110 ; resid.=  1.29533214613497E-10
(PID.TID 0000.0001)  cg2d: iter=   111 ; resid.=  1.03065004620882E-10
(PID.TID 0000.0001)  cg2d: iter=   112 ; resid.=  8.04156493724077E-11
(PID.TID 0000.0001)  cg2d: iter=   113 ; resid.=  6.04762084983429E-11
(PID.TID 0000.0001)  cg2d: iter=   114 ; resid.=  4.65868999271808E-11
(PID.TID 0000.0001)  cg2d: iter=   115 ; resid.=  3.39451737503748E-11
(PID.TID 0000.0001)  cg2d: iter=   116 ; resid.=  2.61818476827730E-11
(PID.TID 0000.0001)  cg2d: iter=   117 ; resid.=  2.20915083289985E-11
(PID.TID 0000.0001)  cg2d: iter=   118 ; resid.=  1.74393566911048E-11
(PID.TID 0000.0001)  cg2d: iter=   119 ; resid.=  1.47920522066631E-11
(PID.TID 0000.0001)  cg2d: iter=   120 ; resid.=  1.13795908596701E-11
(PID.TID 0000.0001)  cg2d: iter=   121 ; resid.=  8.71833111213847E-12
(PID.TID 0000.0001)  cg2d: iter=   122 ; resid.=  6.66269081046964E-12
(PID.TID 0000.0001)  cg2d: iter=   123 ; resid.=  4.78343874094362E-12
(PID.TID 0000.0001)  cg2d: iter=   124 ; resid.=  3.48097256964159E-12
(PID.TID 0000.0001)  cg2d: iter=   125 ; resid.=  2.66374579184076E-12
(PID.TID 0000.0001)  cg2d: iter=   126 ; resid.=  1.92557060203641E-12
(PID.TID 0000.0001)  cg2d: iter=   127 ; resid.=  1.34205530091373E-12
(PID.TID 0000.0001)  cg2d: iter=   128 ; resid.=  9.59948359480201E-13
(PID.TID 0000.0001)  cg2d: iter=   129 ; resid.=  7.31412303627639E-13
(PID.TID 0000.0001)  cg2d: iter=   130 ; resid.=  5.44737632967201E-13
(PID.TID 0000.0001)  cg2d: iter=   131 ; resid.=  4.06901148224483E-13
(PID.TID 0000.0001)  cg2d: iter=   132 ; resid.=  2.77938342755536E-13
(PID.TID 0000.0001)  cg2d: iter=   133 ; resid.=  2.21685670060289E-13
(PID.TID 0000.0001)  cg2d: iter=   134 ; resid.=  1.59682962663619E-13
(PID.TID 0000.0001)  cg2d: iter=   135 ; resid.=  1.20430378180604E-13
(PID.TID 0000.0001)  cg2d: iter=   136 ; resid.=  8.62028521345236E-14
DEBUG_STATS_RL:    cg2d_x (SOLVE_FOR_PRESSURE)  min= -1.95488914679055E+01
DEBUG_STATS_RL:    cg2d_x (SOLVE_FOR_PRESSURE)  max=  1.02686532992370E+01
DEBUG_STATS_RL:    cg2d_x (SOLVE_FOR_PRESSURE) mean= -1.44544981809830E+00
DEBUG_STATS_RL:    cg2d_x (SOLVE_FOR_PRESSURE) S.D.=  6.45531101909950E+00
(PID.TID 0000.0001)      cg2d_init_res =   4.96477548889121E-01
(PID.TID 0000.0001)      cg2d_iters(min,last) =      -1     136
(PID.TID 0000.0001)      cg2d_last_res =   8.62028521345236E-14
(PID.TID 0000.0001) // =======================================================
(PID.TID 0000.0001) // Begin MONITOR dynamic field statistics
(PID.TID 0000.0001) // =======================================================
(PID.TID 0000.0001) %MON time_tsnumber                =                    25
(PID.TID 0000.0001) %MON time_secondsf                =   2.1600000000000E+06
(PID.TID 0000.0001) %MON dynstat_eta_max              =   1.0467536492596E+00
(PID.TID 0000.0001) %MON dynstat_eta_min              =  -1.9927514238436E+00
(PID.TID 0000.0001) %MON dynstat_eta_mean             =  -1.8308254747828E-03
(PID.TID 0000.0001) %MON dynstat_eta_sd               =   5.6066433856380E-01
(PID.TID 0000.0001) %MON dynstat_eta_del2             =   2.0285933041503E-03
(PID.TID 0000.0001) %MON dynstat_uvel_max             =   1.4420925049133E-01
(PID.TID 0000.0001) %MON dynstat_uvel_min             =  -1.6595401084378E-01
(PID.TID 0000.0001) %MON dynstat_uvel_mean            =  -3.4826856992237E-04
(PID.TID 0000.0001) %MON dynstat_uvel_sd              =   1.6610965767204E-02
(PID.TID 0000.0001) %MON dynstat_uvel_del2            =   9.3237013906417E-05
(PID.TID 0000.0001) %MON dynstat_vvel_max             =   1.3281516794924E-01
(PID.TID 0000.0001) %MON dynstat_vvel_min             =  -1.3116190928767E-01
(PID.TID 0000.0001) %MON dynstat_vvel_mean            =   3.4873487151081E-04
(PID.TID 0000.0001) %MON dynstat_vvel_sd              =   1.1289049752404E-02
(PID.TID 0000.0001) %MON dynstat_vvel_del2            =   9.1099179384971E-05
(PID.TID 0000.0001) %MON dynstat_wvel_max             =   1.2597336351793E-04
(PID.TID 0000.0001) %MON dynstat_wvel_min             =  -1.3881118818515E-04
(PID.TID 0000.0001) %MON dynstat_wvel_mean            =   1.4569533415456E-22
(PID.TID 0000.0001) %MON dynstat_wvel_sd              =   1.8263488980210E-05
(PID.TID 0000.0001) %MON dynstat_wvel_del2            =   1.9543096653609E-07
(PID.TID 0000.0001) %MON dynstat_theta_max            =   2.9908304700118E+01
(PID.TID 0000.0001) %MON dynstat_theta_min            =  -2.0101202709573E+00
(PID.TID 0000.0001) %MON dynstat_theta_mean           =   3.6406045959484E+00
(PID.TID 0000.0001) %MON dynstat_theta_sd             =   4.4165910507916E+00
(PID.TID 0000.0001) %MON dynstat_theta_del2           =   4.8651527822156E-03
(PID.TID 0000.0001) %MON dynstat_salt_max             =   3.7465051102212E+01
(PID.TID 0000.0001) %MON dynstat_salt_min             =   2.9828749455489E+01
(PID.TID 0000.0001) %MON dynstat_salt_mean            =   3.4737938928769E+01
(PID.TID 0000.0001) %MON dynstat_salt_sd              =   2.9616741464547E-01
(PID.TID 0000.0001) %MON dynstat_salt_del2            =   1.0053866667695E-03
(PID.TID 0000.0001) %MON dynstat_sst_max              =   2.9908304700118E+01
(PID.TID 0000.0001) %MON dynstat_sst_min              =  -2.0101202709573E+00
(PID.TID 0000.0001) %MON dynstat_sst_mean             =   1.8726148233567E+01
(PID.TID 0000.0001) %MON dynstat_sst_sd               =   9.0594986388303E+00
(PID.TID 0000.0001) %MON dynstat_sst_del2             =   2.6410635315881E-02
(PID.TID 0000.0001) %MON dynstat_sss_max              =   3.7450251887856E+01
(PID.TID 0000.0001) %MON dynstat_sss_min              =   2.9828749455489E+01
(PID.TID 0000.0001) %MON dynstat_sss_mean             =   3.4869684073518E+01
(PID.TID 0000.0001) %MON dynstat_sss_sd               =   9.7384569085017E-01
(PID.TID 0000.0001) %MON dynstat_sss_del2             =   7.9251636279046E-03
(PID.TID 0000.0001) %MON forcing_qnet_max             =   4.1174183654785E+02
(PID.TID 0000.0001) %MON forcing_qnet_min             =  -1.7786387329102E+02
(PID.TID 0000.0001) %MON forcing_qnet_mean            =  -1.5748343494414E+01
(PID.TID 0000.0001) %MON forcing_qnet_sd              =   1.0030047515306E+02
(PID.TID 0000.0001) %MON forcing_qnet_del2            =   9.9066567498476E-01
(PID.TID 0000.0001) %MON forcing_qsw_max              =   0.0000000000000E+00
(PID.TID 0000.0001) %MON forcing_qsw_min              =   0.0000000000000E+00
(PID.TID 0000.0001) %MON forcing_qsw_mean             =   0.0000000000000E+00
(PID.TID 0000.0001) %MON forcing_qsw_sd               =   0.0000000000000E+00
(PID.TID 0000.0001) %MON forcing_qsw_del2             =   0.0000000000000E+00
(PID.TID 0000.0001) %MON forcing_empmr_max            =   7.9347431380938E-05
(PID.TID 0000.0001) %MON forcing_empmr_min            =  -7.6872754561919E-05
(PID.TID 0000.0001) %MON forcing_empmr_mean           =   9.2907863745025E-07
(PID.TID 0000.0001) %MON forcing_empmr_sd             =   2.8383735592419E-05
(PID.TID 0000.0001) %MON forcing_empmr_del2           =   3.5846896033345E-07
(PID.TID 0000.0001) %MON forcing_fu_max               =   2.7701420187950E-01
(PID.TID 0000.0001) %MON forcing_fu_min               =  -1.8087395131588E-01
(PID.TID 0000.0001) %MON forcing_fu_mean              =   1.6490437091787E-02
(PID.TID 0000.0001) %MON forcing_fu_sd                =   9.0006638203509E-02
(PID.TID 0000.0001) %MON forcing_fu_del2              =   6.7506455559060E-04
(PID.TID 0000.0001) %MON forcing_fv_max               =   2.0424529761076E-01
(PID.TID 0000.0001) %MON forcing_fv_min               =  -1.6921520233154E-01
(PID.TID 0000.0001) %MON forcing_fv_mean              =  -5.8462458999417E-03
(PID.TID 0000.0001) %MON forcing_fv_sd                =   4.5856746175698E-02
(PID.TID 0000.0001) %MON forcing_fv_del2              =   4.6584186697431E-04
(PID.TID 0000.0001) %MON trAdv_CFL_u_max              =   3.8092758104500E-02
(PID.TID 0000.0001) %MON trAdv_CFL_v_max              =   2.8145607950420E-02
(PID.TID 0000.0001) %MON trAdv_CFL_w_max              =   4.9902406035036E-02
(PID.TID 0000.0001) %MON advcfl_uvel_max              =   3.7749020368328E-02
(PID.TID 0000.0001) %MON advcfl_vvel_max              =   2.5803857033336E-02
(PID.TID 0000.0001) %MON advcfl_wvel_max              =   6.1205694262085E-02
(PID.TID 0000.0001) %MON advcfl_W_hf_max              =   7.2135282523171E-02
(PID.TID 0000.0001) %MON pe_b_mean                    =   4.0224596645793E-04
(PID.TID 0000.0001) %MON ke_max                       =   1.4000760351673E-02
(PID.TID 0000.0001) %MON ke_mean                      =   1.8268082520851E-04
(PID.TID 0000.0001) %MON ke_vol                       =   1.3226782436723E+18
(PID.TID 0000.0001) %MON vort_r_min                   =  -3.8772333079700E-07
(PID.TID 0000.0001) %MON vort_r_max                   =   4.7692264041961E-07
(PID.TID 0000.0001) %MON vort_a_mean                  =  -2.5274806682028E-05
(PID.TID 0000.0001) %MON vort_a_sd                    =   7.3604219083175E-05
(PID.TID 0000.0001) %MON vort_p_mean                  =  -3.1845654898056E-05
(PID.TID 0000.0001) %MON vort_p_sd                    =   1.3162662205846E-04
(PID.TID 0000.0001) %MON surfExpan_theta_mean         =  -4.4061492363670E-07
(PID.TID 0000.0001) %MON surfExpan_salt_mean          =   5.0710248418662E-08
(PID.TID 0000.0001) // =======================================================
(PID.TID 0000.0001) // End MONITOR dynamic field statistics
(PID.TID 0000.0001) // =======================================================
 EXTERNAL_FIELDS_LOAD,        25 : iP,iLd,i0,i1=    1    2    1    2 ; Wght=  0.6666666667  0.3333333333
 EXTERNAL_FIELDS_LOAD: (fu0,1),fu,fv= -3.5633E-02 -1.4435E-02 -2.8567E-02 -4.4050E-02
 EXTERNAL_FIELDS_LOAD: SST,SSS,Q,E-P=  4.6166E-01  3.4617E+01  2.5734E+02  1.0550E-05
DEBUG_STATS_RL:          Uvel (THERMODYNAMICS)  min= -1.65954010843777E-01
DEBUG_STATS_RL:          Uvel (THERMODYNAMICS)  max=  1.44209250491329E-01
DEBUG_STATS_RL:          Uvel (THERMODYNAMICS) mean=  1.75574372318192E-03
DEBUG_STATS_RL:          Uvel (THERMODYNAMICS) S.D.=  2.17148671933127E-02
DEBUG_STATS_RL:          Vvel (THERMODYNAMICS)  min= -1.31161909287671E-01
DEBUG_STATS_RL:          Vvel (THERMODYNAMICS)  max=  1.32815167949237E-01
DEBUG_STATS_RL:          Vvel (THERMODYNAMICS) mean=  1.80944714412506E-03
DEBUG_STATS_RL:          Vvel (THERMODYNAMICS) S.D.=  1.70513924520093E-02
DEBUG_STATS_RL:          Wvel (THERMODYNAMICS)  min= -1.38811188185151E-04
DEBUG_STATS_RL:          Wvel (THERMODYNAMICS)  max=  1.25973363517926E-04
DEBUG_STATS_RL:          Wvel (THERMODYNAMICS) mean=  3.15836830733451E-07
DEBUG_STATS_RL:          Wvel (THERMODYNAMICS) S.D.=  1.64067045498674E-05
DEBUG_STATS_RL:         Theta (THERMODYNAMICS)  min= -2.00971136773034E+00
DEBUG_STATS_RL:         Theta (THERMODYNAMICS)  max=  2.99225449975147E+01
DEBUG_STATS_RL:         Theta (THERMODYNAMICS) mean=  3.22849698559949E+00
DEBUG_STATS_RL:         Theta (THERMODYNAMICS) S.D.=  5.85783033668078E+00
DEBUG_STATS_RL:          Salt (THERMODYNAMICS)  min=  2.00000000000000E-02
DEBUG_STATS_RL:          Salt (THERMODYNAMICS)  max=  3.74660596873802E+01
DEBUG_STATS_RL:          Salt (THERMODYNAMICS) mean=  1.88650311164396E+01
DEBUG_STATS_RL:          Salt (THERMODYNAMICS) S.D.=  1.73005257799362E+01
DEBUG_STATS_RL:         GtNm1 (THERMODYNAMICS)  min= -5.33941923091789E-06
DEBUG_STATS_RL:         GtNm1 (THERMODYNAMICS)  max=  3.60116549688550E-06
DEBUG_STATS_RL:         GtNm1 (THERMODYNAMICS) mean= -2.22602509355218E-10
DEBUG_STATS_RL:         GtNm1 (THERMODYNAMICS) S.D.=  2.39043168094753E-07
DEBUG_STATS_RL:         GsNm1 (THERMODYNAMICS)  min= -1.28567352646660E-06
DEBUG_STATS_RL:         GsNm1 (THERMODYNAMICS)  max=  9.48167956552727E-07
DEBUG_STATS_RL:         GsNm1 (THERMODYNAMICS) mean= -6.50994910317081E-10
DEBUG_STATS_RL:         GsNm1 (THERMODYNAMICS) S.D.=  2.40431926289209E-08
DEBUG_STATS_RL:                EtaN (DYNAMICS)  min= -1.99275142384363E+00
DEBUG_STATS_RL:                EtaN (DYNAMICS)  max=  1.04675364925964E+00
DEBUG_STATS_RL:                EtaN (DYNAMICS) mean= -1.47344527838766E-01
DEBUG_STATS_RL:                EtaN (DYNAMICS) S.D.=  6.58033743027472E-01
DEBUG_STATS_RL:                Uvel (DYNAMICS)  min= -1.65954010843777E-01
DEBUG_STATS_RL:                Uvel (DYNAMICS)  max=  1.44209250491329E-01
DEBUG_STATS_RL:                Uvel (DYNAMICS) mean=  1.75574372318192E-03
DEBUG_STATS_RL:                Uvel (DYNAMICS) S.D.=  2.17148671933127E-02
DEBUG_STATS_RL:                Vvel (DYNAMICS)  min= -1.31161909287671E-01
DEBUG_STATS_RL:                Vvel (DYNAMICS)  max=  1.32815167949237E-01
DEBUG_STATS_RL:                Vvel (DYNAMICS) mean=  1.80944714412506E-03
DEBUG_STATS_RL:                Vvel (DYNAMICS) S.D.=  1.70513924520093E-02
DEBUG_STATS_RL:                Wvel (DYNAMICS)  min= -1.38811188185151E-04
DEBUG_STATS_RL:                Wvel (DYNAMICS)  max=  1.25973363517926E-04
DEBUG_STATS_RL:                Wvel (DYNAMICS) mean=  3.15836830733451E-07
DEBUG_STATS_RL:                Wvel (DYNAMICS) S.D.=  1.64067045498674E-05
DEBUG_STATS_RL:               Theta (DYNAMICS)  min= -2.00971136773034E+00
DEBUG_STATS_RL:               Theta (DYNAMICS)  max=  2.99225449975147E+01
DEBUG_STATS_RL:               Theta (DYNAMICS) mean=  3.22849698559949E+00
DEBUG_STATS_RL:               Theta (DYNAMICS) S.D.=  5.85783033668078E+00
DEBUG_STATS_RL:                Salt (DYNAMICS)  min=  2.00000000000000E-02
DEBUG_STATS_RL:                Salt (DYNAMICS)  max=  3.74660596873802E+01
DEBUG_STATS_RL:                Salt (DYNAMICS) mean=  1.88650311164396E+01
DEBUG_STATS_RL:                Salt (DYNAMICS) S.D.=  1.73005257799362E+01
DEBUG_STATS_RL:                  Gu (DYNAMICS)  min= -1.71711068118496E-01
DEBUG_STATS_RL:                  Gu (DYNAMICS)  max=  1.45868154097347E-01
DEBUG_STATS_RL:                  Gu (DYNAMICS) mean=  2.25678884962983E-03
DEBUG_STATS_RL:                  Gu (DYNAMICS) S.D.=  2.24597439904163E-02
DEBUG_STATS_RL:                  Gv (DYNAMICS)  min= -1.40836412895778E-01
DEBUG_STATS_RL:                  Gv (DYNAMICS)  max=  1.42759037851603E-01
DEBUG_STATS_RL:                  Gv (DYNAMICS) mean=  3.86472367257797E-03
DEBUG_STATS_RL:                  Gv (DYNAMICS) S.D.=  1.81489784971494E-02
DEBUG_STATS_RL:               GuNm1 (DYNAMICS)  min= -7.39181475788202E-06
DEBUG_STATS_RL:               GuNm1 (DYNAMICS)  max=  8.02461021941790E-06
DEBUG_STATS_RL:               GuNm1 (DYNAMICS) mean= -8.75543948308071E-09
DEBUG_STATS_RL:               GuNm1 (DYNAMICS) S.D.=  1.19744924904967E-06
DEBUG_STATS_RL:               GvNm1 (DYNAMICS)  min= -1.02722007186459E-05
DEBUG_STATS_RL:               GvNm1 (DYNAMICS)  max=  1.69728721892047E-05
DEBUG_STATS_RL:               GvNm1 (DYNAMICS) mean=  7.74046853702336E-07
DEBUG_STATS_RL:               GvNm1 (DYNAMICS) S.D.=  2.64493766610270E-06
DEBUG_STATS_RL:               GtNm1 (DYNAMICS)  min= -5.33941923091789E-06
DEBUG_STATS_RL:               GtNm1 (DYNAMICS)  max=  3.60116549688550E-06
DEBUG_STATS_RL:               GtNm1 (DYNAMICS) mean= -2.22602509355218E-10
DEBUG_STATS_RL:               GtNm1 (DYNAMICS) S.D.=  2.39043168094753E-07
DEBUG_STATS_RL:               GsNm1 (DYNAMICS)  min= -1.28567352646660E-06
DEBUG_STATS_RL:               GsNm1 (DYNAMICS)  max=  9.48167956552727E-07
DEBUG_STATS_RL:               GsNm1 (DYNAMICS) mean= -6.50994910317081E-10
DEBUG_STATS_RL:               GsNm1 (DYNAMICS) S.D.=  2.40431926289209E-08
DEBUG_STATS_RL:    cg2d_b (SOLVE_FOR_PRESSURE)  min= -2.37111607251640E+04
DEBUG_STATS_RL:    cg2d_b (SOLVE_FOR_PRESSURE)  max=  1.99628446174027E+04
DEBUG_STATS_RL:    cg2d_b (SOLVE_FOR_PRESSURE) mean=  1.82910120751988E+00
DEBUG_STATS_RL:    cg2d_b (SOLVE_FOR_PRESSURE) S.D.=  3.86628271783447E+03
 cg2d: Sum(rhs),rhsMax =   1.78581274214649E-01  1.55741252130015E+00
(PID.TID 0000.0001)  cg2d: iter=     1 ; resid.=  2.71967550240090E-01
(PID.TID 0000.0001)  cg2d: iter=     2 ; resid.=  2.39147607768731E-01
(PID.TID 0000.0001)  cg2d: iter=     3 ; resid.=  2.17169292941686E-01
(PID.TID 0000.0001)  cg2d: iter=     4 ; resid.=  1.88376460460470E-01
(PID.TID 0000.0001)  cg2d: iter=     5 ; resid.=  1.41377181450974E-01
(PID.TID 0000.0001)  cg2d: iter=     6 ; resid.=  1.05329210289120E-01
(PID.TID 0000.0001)  cg2d: iter=     7 ; resid.=  9.09996472772262E-02
(PID.TID 0000.0001)  cg2d: iter=     8 ; resid.=  8.46517999780144E-02
(PID.TID 0000.0001)  cg2d: iter=     9 ; resid.=  7.11353685508449E-02
(PID.TID 0000.0001)  cg2d: iter=    10 ; resid.=  6.46866291937810E-02
(PID.TID 0000.0001)  cg2d: iter=    11 ; resid.=  5.96694156568258E-02
(PID.TID 0000.0001)  cg2d: iter=    12 ; resid.=  4.86141526115421E-02
(PID.TID 0000.0001)  cg2d: iter=    13 ; resid.=  3.94786745636527E-02
(PID.TID 0000.0001)  cg2d: iter=    14 ; resid.=  3.23069727650867E-02
(PID.TID 0000.0001)  cg2d: iter=    15 ; resid.=  2.55290370143835E-02
(PID.TID 0000.0001)  cg2d: iter=    16 ; resid.=  2.22485292889133E-02
(PID.TID 0000.0001)  cg2d: iter=    17 ; resid.=  1.97372086040267E-02
(PID.TID 0000.0001)  cg2d: iter=    18 ; resid.=  1.60059840459329E-02
(PID.TID 0000.0001)  cg2d: iter=    19 ; resid.=  1.29259431669748E-02
(PID.TID 0000.0001)  cg2d: iter=    20 ; resid.=  1.06735109892297E-02
(PID.TID 0000.0001)  cg2d: iter=    21 ; resid.=  8.88274183601013E-03
(PID.TID 0000.0001)  cg2d: iter=    22 ; resid.=  7.13518541737117E-03
(PID.TID 0000.0001)  cg2d: iter=    23 ; resid.=  5.91521205033744E-03
(PID.TID 0000.0001)  cg2d: iter=    24 ; resid.=  4.92210732753080E-03
(PID.TID 0000.0001)  cg2d: iter=    25 ; resid.=  3.66271440974407E-03
(PID.TID 0000.0001)  cg2d: iter=    26 ; resid.=  2.93965044866613E-03
(PID.TID 0000.0001)  cg2d: iter=    27 ; resid.=  2.62746390607399E-03
(PID.TID 0000.0001)  cg2d: iter=    28 ; resid.=  2.13626523727653E-03
(PID.TID 0000.0001)  cg2d: iter=    29 ; resid.=  1.68910682970660E-03
(PID.TID 0000.0001)  cg2d: iter=    30 ; resid.=  1.44361897380214E-03
(PID.TID 0000.0001)  cg2d: iter=    31 ; resid.=  1.27938212475209E-03
(PID.TID 0000.0001)  cg2d: iter=    32 ; resid.=  1.04349621444728E-03
(PID.TID 0000.0001)  cg2d: iter=    33 ; resid.=  8.76757437467616E-04
(PID.TID 0000.0001)  cg2d: iter=    34 ; resid.=  7.42337638147569E-04
(PID.TID 0000.0001)  cg2d: iter=    35 ; resid.=  5.94191511529385E-04
(PID.TID 0000.0001)  cg2d: iter=    36 ; resid.=  4.79109349957518E-04
(PID.TID 0000.0001)  cg2d: iter=    37 ; resid.=  4.14339982274734E-04
(PID.TID 0000.0001)  cg2d: iter=    38 ; resid.=  3.56835028257003E-04
(PID.TID 0000.0001)  cg2d: iter=    39 ; resid.=  2.88756517535528E-04
(PID.TID 0000.0001)  cg2d: iter=    40 ; resid.=  2.46000610647002E-04
(PID.TID 0000.0001)  cg2d: iter=    41 ; resid.=  2.07172689624399E-04
(PID.TID 0000.0001)  cg2d: iter=    42 ; resid.=  1.83343459325665E-04
(PID.TID 0000.0001)  cg2d: iter=    43 ; resid.=  1.66069070371329E-04
(PID.TID 0000.0001)  cg2d: iter=    44 ; resid.=  1.48744601362358E-04
(PID.TID 0000.0001)  cg2d: iter=    45 ; resid.=  1.26022288090394E-04
(PID.TID 0000.0001)  cg2d: iter=    46 ; resid.=  1.00268650575734E-04
(PID.TID 0000.0001)  cg2d: iter=    47 ; resid.=  8.75029909716909E-05
(PID.TID 0000.0001)  cg2d: iter=    48 ; resid.=  6.97300757127492E-05
(PID.TID 0000.0001)  cg2d: iter=    49 ; resid.=  5.29252307621080E-05
(PID.TID 0000.0001)  cg2d: iter=    50 ; resid.=  4.08280338591468E-05
(PID.TID 0000.0001)  cg2d: iter=    51 ; resid.=  3.30483061929219E-05
(PID.TID 0000.0001)  cg2d: iter=    52 ; resid.=  2.81505127243866E-05
(PID.TID 0000.0001)  cg2d: iter=    53 ; resid.=  2.52077179368141E-05
(PID.TID 0000.0001)  cg2d: iter=    54 ; resid.=  2.09061833169541E-05
(PID.TID 0000.0001)  cg2d: iter=    55 ; resid.=  1.78825351173654E-05
(PID.TID 0000.0001)  cg2d: iter=    56 ; resid.=  1.57691468146197E-05
(PID.TID 0000.0001)  cg2d: iter=    57 ; resid.=  1.31031477430917E-05
(PID.TID 0000.0001)  cg2d: iter=    58 ; resid.=  1.05688268501632E-05
(PID.TID 0000.0001)  cg2d: iter=    59 ; resid.=  8.49796755005478E-06
(PID.TID 0000.0001)  cg2d: iter=    60 ; resid.=  6.73219215488911E-06
(PID.TID 0000.0001)  cg2d: iter=    61 ; resid.=  5.44292996921427E-06
(PID.TID 0000.0001)  cg2d: iter=    62 ; resid.=  4.61282419225297E-06
(PID.TID 0000.0001)  cg2d: iter=    63 ; resid.=  3.87828498659537E-06
(PID.TID 0000.0001)  cg2d: iter=    64 ; resid.=  3.18134518302325E-06
(PID.TID 0000.0001)  cg2d: iter=    65 ; resid.=  2.50265715956723E-06
(PID.TID 0000.0001)  cg2d: iter=    66 ; resid.=  1.94513383226963E-06
(PID.TID 0000.0001)  cg2d: iter=    67 ; resid.=  1.67963599877365E-06
(PID.TID 0000.0001)  cg2d: iter=    68 ; resid.=  1.39569581920988E-06
(PID.TID 0000.0001)  cg2d: iter=    69 ; resid.=  1.16089642336711E-06
(PID.TID 0000.0001)  cg2d: iter=    70 ; resid.=  1.01043564464774E-06
(PID.TID 0000.0001)  cg2d: iter=    71 ; resid.=  7.85572047123136E-07
(PID.TID 0000.0001)  cg2d: iter=    72 ; resid.=  6.47193413383201E-07
(PID.TID 0000.0001)  cg2d: iter=    73 ; resid.=  5.62805416081638E-07
(PID.TID 0000.0001)  cg2d: iter=    74 ; resid.=  4.43677791366968E-07
(PID.TID 0000.0001)  cg2d: iter=    75 ; resid.=  3.24925507099820E-07
(PID.TID 0000.0001)  cg2d: iter=    76 ; resid.=  2.75419778816886E-07
(PID.TID 0000.0001)  cg2d: iter=    77 ; resid.=  2.39895170900439E-07
(PID.TID 0000.0001)  cg2d: iter=    78 ; resid.=  2.00168272531620E-07
(PID.TID 0000.0001)  cg2d: iter=    79 ; resid.=  1.86541241377592E-07
(PID.TID 0000.0001)  cg2d: iter=    80 ; resid.=  1.50605375189460E-07
(PID.TID 0000.0001)  cg2d: iter=    81 ; resid.=  1.33266813250305E-07
(PID.TID 0000.0001)  cg2d: iter=    82 ; resid.=  1.06355093031096E-07
(PID.TID 0000.0001)  cg2d: iter=    83 ; resid.=  7.90563547402039E-08
(PID.TID 0000.0001)  cg2d: iter=    84 ; resid.=  5.99893265472714E-08
(PID.TID 0000.0001)  cg2d: iter=    85 ; resid.=  4.41619664487643E-08
(PID.TID 0000.0001)  cg2d: iter=    86 ; resid.=  3.39529203014373E-08
(PID.TID 0000.0001)  cg2d: iter=    87 ; resid.=  2.82554440229577E-08
(PID.TID 0000.0001)  cg2d: iter=    88 ; resid.=  2.44267751391530E-08
(PID.TID 0000.0001)  cg2d: iter=    89 ; resid.=  2.01773802283334E-08
(PID.TID 0000.0001)  cg2d: iter=    90 ; resid.=  1.54588583441351E-08
(PID.TID 0000.0001)  cg2d: iter=    91 ; resid.=  1.16721479239485E-08
(PID.TID 0000.0001)  cg2d: iter=    92 ; resid.=  8.15309555284881E-09
(PID.TID 0000.0001)  cg2d: iter=    93 ; resid.=  5.68394442041409E-09
(PID.TID 0000.0001)  cg2d: iter=    94 ; resid.=  4.13956194535878E-09
(PID.TID 0000.0001)  cg2d: iter=    95 ; resid.=  3.38871966496304E-09
(PID.TID 0000.0001)  cg2d: iter=    96 ; resid.=  2.56446339855943E-09
(PID.TID 0000.0001)  cg2d: iter=    97 ; resid.=  1.90548576128802E-09
(PID.TID 0000.0001)  cg2d: iter=    98 ; resid.=  1.43993152626689E-09
(PID.TID 0000.0001)  cg2d: iter=    99 ; resid.=  1.14432667679156E-09
(PID.TID 0000.0001)  cg2d: iter=   100 ; resid.=  9.14072949783537E-10
(PID.TID 0000.0001)  cg2d: iter=   101 ; resid.=  7.17232734320204E-10
(PID.TID 0000.0001)  cg2d: iter=   102 ; resid.=  5.77054532512028E-10
(PID.TID 0000.0001)  cg2d: iter=   103 ; resid.=  4.47464403107977E-10
(PID.TID 0000.0001)  cg2d: iter=   104 ; resid.=  3.56283552080130E-10
(PID.TID 0000.0001)  cg2d: iter=   105 ; resid.=  2.84224402780103E-10
(PID.TID 0000.0001)  cg2d: iter=   106 ; resid.=  2.50624533793387E-10
(PID.TID 0000.0001)  cg2d: iter=   107 ; resid.=  2.20926158782560E-10
(PID.TID 0000.0001)  cg2d: iter=   108 ; resid.=  1.91081097244571E-10
(PID.TID 0000.0001)  cg2d: iter=   109 ; resid.=  1.62810501191532E-10
(PID.TID 0000.0001)  cg2d: iter=   110 ; resid.=  1.30622086641354E-10
(PID.TID 0000.0001)  cg2d: iter=   111 ; resid.=  1.00773942093033E-10
(PID.TID 0000.0001)  cg2d: iter=   112 ; resid.=  7.95578665263089E-11
(PID.TID 0000.0001)  cg2d: iter=   113 ; resid.=  5.87065345707521E-11
(PID.TID 0000.0001)  cg2d: iter=   114 ; resid.=  4.35186108948481E-11
(PID.TID 0000.0001)  cg2d: iter=   115 ; resid.=  3.03603377982518E-11
(PID.TID 0000.0001)  cg2d: iter=   116 ; resid.=  2.30049518590592E-11
(PID.TID 0000.0001)  cg2d: iter=   117 ; resid.=  1.86339143577963E-11
(PID.TID 0000.0001)  cg2d: iter=   118 ; resid.=  1.44947556045992E-11
(PID.TID 0000.0001)  cg2d: iter=   119 ; resid.=  1.24822386424406E-11
(PID.TID 0000.0001)  cg2d: iter=   120 ; resid.=  9.61680664731520E-12
(PID.TID 0000.0001)  cg2d: iter=   121 ; resid.=  7.34813374516598E-12
(PID.TID 0000.0001)  cg2d: iter=   122 ; resid.=  5.60146348465702E-12
(PID.TID 0000.0001)  cg2d: iter=   123 ; resid.=  4.23954437939976E-12
(PID.TID 0000.0001)  cg2d: iter=   124 ; resid.=  3.34494613085612E-12
(PID.TID 0000.0001)  cg2d: iter=   125 ; resid.=  2.62132165051768E-12
(PID.TID 0000.0001)  cg2d: iter=   126 ; resid.=  1.85373779038583E-12
(PID.TID 0000.0001)  cg2d: iter=   127 ; resid.=  1.26685813568239E-12
(PID.TID 0000.0001)  cg2d: iter=   128 ; resid.=  8.96692931714063E-13
(PID.TID 0000.0001)  cg2d: iter=   129 ; resid.=  6.83548729662139E-13
(PID.TID 0000.0001)  cg2d: iter=   130 ; resid.=  5.17188634312756E-13
(PID.TID 0000.0001)  cg2d: iter=   131 ; resid.=  3.77753895256176E-13
(PID.TID 0000.0001)  cg2d: iter=   132 ; resid.=  2.44826769713372E-13
(PID.TID 0000.0001)  cg2d: iter=   133 ; resid.=  1.88850445316897E-13
(PID.TID 0000.0001)  cg2d: iter=   134 ; resid.=  1.34237666189071E-13
(PID.TID 0000.0001)  cg2d: iter=   135 ; resid.=  1.02540127367301E-13
(PID.TID 0000.0001)  cg2d: iter=   136 ; resid.=  7.22875400189707E-14
DEBUG_STATS_RL:    cg2d_x (SOLVE_FOR_PRESSURE)  min= -1.96249978333989E+01
DEBUG_STATS_RL:    cg2d_x (SOLVE_FOR_PRESSURE)  max=  1.00353958446615E+01
DEBUG_STATS_RL:    cg2d_x (SOLVE_FOR_PRESSURE) mean= -1.43852339289287E+00
DEBUG_STATS_RL:    cg2d_x (SOLVE_FOR_PRESSURE) S.D.=  6.50250953464556E+00
(PID.TID 0000.0001)      cg2d_init_res =   4.90043612193300E-01
(PID.TID 0000.0001)      cg2d_iters(min,last) =      -1     136
(PID.TID 0000.0001)      cg2d_last_res =   7.22875400189707E-14
(PID.TID 0000.0001) // =======================================================
(PID.TID 0000.0001) // Begin MONITOR dynamic field statistics
(PID.TID 0000.0001) // =======================================================
(PID.TID 0000.0001) %MON time_tsnumber                =                    26
(PID.TID 0000.0001) %MON time_secondsf                =   2.2464000000000E+06
(PID.TID 0000.0001) %MON dynstat_eta_max              =   1.0229761309543E+00
(PID.TID 0000.0001) %MON dynstat_eta_min              =  -2.0005094631397E+00
(PID.TID 0000.0001) %MON dynstat_eta_mean             =  -1.9084403089849E-03
(PID.TID 0000.0001) %MON dynstat_eta_sd               =   5.6350548922976E-01
(PID.TID 0000.0001) %MON dynstat_eta_del2             =   2.0630434641637E-03
(PID.TID 0000.0001) %MON dynstat_uvel_max             =   1.4272871922319E-01
(PID.TID 0000.0001) %MON dynstat_uvel_min             =  -1.7024288644953E-01
(PID.TID 0000.0001) %MON dynstat_uvel_mean            =   2.5972117024283E-04
(PID.TID 0000.0001) %MON dynstat_uvel_sd              =   1.6703821819673E-02
(PID.TID 0000.0001) %MON dynstat_uvel_del2            =   9.2682072656427E-05
(PID.TID 0000.0001) %MON dynstat_vvel_max             =   1.2709911712450E-01
(PID.TID 0000.0001) %MON dynstat_vvel_min             =  -1.3026515082920E-01
(PID.TID 0000.0001) %MON dynstat_vvel_mean            =   2.3608914417451E-04
(PID.TID 0000.0001) %MON dynstat_vvel_sd              =   1.1106440753860E-02
(PID.TID 0000.0001) %MON dynstat_vvel_del2            =   8.8827918349261E-05
(PID.TID 0000.0001) %MON dynstat_wvel_max             =   1.3227105597503E-04
(PID.TID 0000.0001) %MON dynstat_wvel_min             =  -1.6545403925419E-04
(PID.TID 0000.0001) %MON dynstat_wvel_mean            =  -2.0925354746411E-22
(PID.TID 0000.0001) %MON dynstat_wvel_sd              =   1.7642540130504E-05
(PID.TID 0000.0001) %MON dynstat_wvel_del2            =   1.8976466306326E-07
(PID.TID 0000.0001) %MON dynstat_theta_max            =   2.9922544997515E+01
(PID.TID 0000.0001) %MON dynstat_theta_min            =  -2.0097113677303E+00
(PID.TID 0000.0001) %MON dynstat_theta_mean           =   3.6407016772457E+00
(PID.TID 0000.0001) %MON dynstat_theta_sd             =   4.4167751737393E+00
(PID.TID 0000.0001) %MON dynstat_theta_del2           =   4.8670877180039E-03
(PID.TID 0000.0001) %MON dynstat_salt_max             =   3.7466059687380E+01
(PID.TID 0000.0001) %MON dynstat_salt_min             =   2.9836107345255E+01
(PID.TID 0000.0001) %MON dynstat_salt_mean            =   3.4737939497789E+01
(PID.TID 0000.0001) %MON dynstat_salt_sd              =   2.9616356889054E-01
(PID.TID 0000.0001) %MON dynstat_salt_del2            =   1.0039913107717E-03
(PID.TID 0000.0001) %MON dynstat_sst_max              =   2.9922544997515E+01
(PID.TID 0000.0001) %MON dynstat_sst_min              =  -2.0097113677303E+00
(PID.TID 0000.0001) %MON dynstat_sst_mean             =   1.8730916228374E+01
(PID.TID 0000.0001) %MON dynstat_sst_sd               =   9.0590749693598E+00
(PID.TID 0000.0001) %MON dynstat_sst_del2             =   2.6460255921851E-02
(PID.TID 0000.0001) %MON dynstat_sss_max              =   3.7450402220758E+01
(PID.TID 0000.0001) %MON dynstat_sss_min              =   2.9836107345255E+01
(PID.TID 0000.0001) %MON dynstat_sss_mean             =   3.4868997689149E+01
(PID.TID 0000.0001) %MON dynstat_sss_sd               =   9.7412325510055E-01
(PID.TID 0000.0001) %MON dynstat_sss_del2             =   7.9142503683030E-03
(PID.TID 0000.0001) %MON forcing_qnet_max             =   4.0842274983724E+02
(PID.TID 0000.0001) %MON forcing_qnet_min             =  -1.7762435404460E+02
(PID.TID 0000.0001) %MON forcing_qnet_mean            =  -1.5663434327010E+01
(PID.TID 0000.0001) %MON forcing_qnet_sd              =   9.9257487839865E+01
(PID.TID 0000.0001) %MON forcing_qnet_del2            =   9.8746228186851E-01
(PID.TID 0000.0001) %MON forcing_qsw_max              =   0.0000000000000E+00
(PID.TID 0000.0001) %MON forcing_qsw_min              =   0.0000000000000E+00
(PID.TID 0000.0001) %MON forcing_qsw_mean             =   0.0000000000000E+00
(PID.TID 0000.0001) %MON forcing_qsw_sd               =   0.0000000000000E+00
(PID.TID 0000.0001) %MON forcing_qsw_del2             =   0.0000000000000E+00
(PID.TID 0000.0001) %MON forcing_empmr_max            =   7.9033341648937E-05
(PID.TID 0000.0001) %MON forcing_empmr_min            =  -7.6952398823475E-05
(PID.TID 0000.0001) %MON forcing_empmr_mean           =   9.2976103471021E-07
(PID.TID 0000.0001) %MON forcing_empmr_sd             =   2.8346308992535E-05
(PID.TID 0000.0001) %MON forcing_empmr_del2           =   3.5774711297823E-07
(PID.TID 0000.0001) %MON forcing_fu_max               =   2.7689236402512E-01
(PID.TID 0000.0001) %MON forcing_fu_min               =  -1.8253387510777E-01
(PID.TID 0000.0001) %MON forcing_fu_mean              =   1.6544737307256E-02
(PID.TID 0000.0001) %MON forcing_fu_sd                =   8.9976513162372E-02
(PID.TID 0000.0001) %MON forcing_fu_del2              =   6.7244408205288E-04
(PID.TID 0000.0001) %MON forcing_fv_max               =   2.0103685061137E-01
(PID.TID 0000.0001) %MON forcing_fv_min               =  -1.6822390258312E-01
(PID.TID 0000.0001) %MON forcing_fv_mean              =  -5.9115068066569E-03
(PID.TID 0000.0001) %MON forcing_fv_sd                =   4.5661871186592E-02
(PID.TID 0000.0001) %MON forcing_fv_del2              =   4.6455732257683E-04
(PID.TID 0000.0001) %MON trAdv_CFL_u_max              =   3.7756687464350E-02
(PID.TID 0000.0001) %MON trAdv_CFL_v_max              =   2.6726103331177E-02
(PID.TID 0000.0001) %MON trAdv_CFL_w_max              =   5.3152313438126E-02
(PID.TID 0000.0001) %MON advcfl_uvel_max              =   4.2532839509122E-02
(PID.TID 0000.0001) %MON advcfl_vvel_max              =   2.5308429604270E-02
(PID.TID 0000.0001) %MON advcfl_wvel_max              =   6.3886579464983E-02
(PID.TID 0000.0001) %MON advcfl_W_hf_max              =   7.5294897226588E-02
(PID.TID 0000.0001) %MON pe_b_mean                    =   4.0633336373306E-04
(PID.TID 0000.0001) %MON ke_max                       =   1.4500188914623E-02
(PID.TID 0000.0001) %MON ke_mean                      =   1.8219619701035E-04
(PID.TID 0000.0001) %MON ke_vol                       =   1.3226782436723E+18
(PID.TID 0000.0001) %MON vort_r_min                   =  -4.4343285769542E-07
(PID.TID 0000.0001) %MON vort_r_max                   =   4.4396793562828E-07
(PID.TID 0000.0001) %MON vort_a_mean                  =  -2.5274806893228E-05
(PID.TID 0000.0001) %MON vort_a_sd                    =   7.3604299668656E-05
(PID.TID 0000.0001) %MON vort_p_mean                  =  -3.1845655164163E-05
(PID.TID 0000.0001) %MON vort_p_sd                    =   1.3162709865189E-04
(PID.TID 0000.0001) %MON surfExpan_theta_mean         =  -3.6406649931686E-07
(PID.TID 0000.0001) %MON surfExpan_salt_mean          =  -8.4977307389091E-09
(PID.TID 0000.0001) // =======================================================
(PID.TID 0000.0001) // End MONITOR dynamic field statistics
(PID.TID 0000.0001) // =======================================================
 EXTERNAL_FIELDS_LOAD,        26 : iP,iLd,i0,i1=    1    2    1    2 ; Wght=  0.6333333333  0.3666666667
 EXTERNAL_FIELDS_LOAD: (fu0,1),fu,fv= -3.5633E-02 -1.4435E-02 -2.7860E-02 -4.2729E-02
 EXTERNAL_FIELDS_LOAD: SST,SSS,Q,E-P=  4.1199E-01  3.4607E+01  2.5650E+02  1.0441E-05
DEBUG_STATS_RL:          Uvel (THERMODYNAMICS)  min= -1.70242886449526E-01
DEBUG_STATS_RL:          Uvel (THERMODYNAMICS)  max=  1.42728719223191E-01
DEBUG_STATS_RL:          Uvel (THERMODYNAMICS) mean=  2.22833813872518E-03
DEBUG_STATS_RL:          Uvel (THERMODYNAMICS) S.D.=  2.18789019074844E-02
DEBUG_STATS_RL:          Vvel (THERMODYNAMICS)  min= -1.30265150829200E-01
DEBUG_STATS_RL:          Vvel (THERMODYNAMICS)  max=  1.27099117124496E-01
DEBUG_STATS_RL:          Vvel (THERMODYNAMICS) mean=  1.52564927381062E-03
DEBUG_STATS_RL:          Vvel (THERMODYNAMICS) S.D.=  1.65693765995243E-02
DEBUG_STATS_RL:          Wvel (THERMODYNAMICS)  min= -1.65454039254187E-04
DEBUG_STATS_RL:          Wvel (THERMODYNAMICS)  max=  1.32271055975028E-04
DEBUG_STATS_RL:          Wvel (THERMODYNAMICS) mean=  2.55143828853084E-07
DEBUG_STATS_RL:          Wvel (THERMODYNAMICS) S.D.=  1.58629725127866E-05
DEBUG_STATS_RL:         Theta (THERMODYNAMICS)  min= -2.00912125526521E+00
DEBUG_STATS_RL:         Theta (THERMODYNAMICS)  max=  2.99375362939570E+01
DEBUG_STATS_RL:         Theta (THERMODYNAMICS) mean=  3.22852334610437E+00
DEBUG_STATS_RL:         Theta (THERMODYNAMICS) S.D.=  5.85797202863071E+00
DEBUG_STATS_RL:          Salt (THERMODYNAMICS)  min=  2.00000000000000E-02
DEBUG_STATS_RL:          Salt (THERMODYNAMICS)  max=  3.74671265549630E+01
DEBUG_STATS_RL:          Salt (THERMODYNAMICS) mean=  1.88650040964530E+01
DEBUG_STATS_RL:          Salt (THERMODYNAMICS) S.D.=  1.73005010468308E+01
DEBUG_STATS_RL:         GtNm1 (THERMODYNAMICS)  min= -4.94754795329628E-06
DEBUG_STATS_RL:         GtNm1 (THERMODYNAMICS)  max=  3.24340995597669E-06
DEBUG_STATS_RL:         GtNm1 (THERMODYNAMICS) mean=  3.76244295090151E-10
DEBUG_STATS_RL:         GtNm1 (THERMODYNAMICS) S.D.=  2.36268664017617E-07
DEBUG_STATS_RL:         GsNm1 (THERMODYNAMICS)  min= -1.16300766262636E-06
DEBUG_STATS_RL:         GsNm1 (THERMODYNAMICS)  max=  8.42996548118932E-07
DEBUG_STATS_RL:         GsNm1 (THERMODYNAMICS) mean= -6.68834697470254E-10
DEBUG_STATS_RL:         GsNm1 (THERMODYNAMICS) S.D.=  2.36150372177269E-08
DEBUG_STATS_RL:                EtaN (DYNAMICS)  min= -2.00050946313968E+00
DEBUG_STATS_RL:                EtaN (DYNAMICS)  max=  1.02297613095428E+00
DEBUG_STATS_RL:                EtaN (DYNAMICS) mean= -1.46638470223534E-01
DEBUG_STATS_RL:                EtaN (DYNAMICS) S.D.=  6.62845008628499E-01
DEBUG_STATS_RL:                Uvel (DYNAMICS)  min= -1.70242886449526E-01
DEBUG_STATS_RL:                Uvel (DYNAMICS)  max=  1.42728719223191E-01
DEBUG_STATS_RL:                Uvel (DYNAMICS) mean=  2.22833813872518E-03
DEBUG_STATS_RL:                Uvel (DYNAMICS) S.D.=  2.18789019074844E-02
DEBUG_STATS_RL:                Vvel (DYNAMICS)  min= -1.30265150829200E-01
DEBUG_STATS_RL:                Vvel (DYNAMICS)  max=  1.27099117124496E-01
DEBUG_STATS_RL:                Vvel (DYNAMICS) mean=  1.52564927381062E-03
DEBUG_STATS_RL:                Vvel (DYNAMICS) S.D.=  1.65693765995243E-02
DEBUG_STATS_RL:                Wvel (DYNAMICS)  min= -1.65454039254187E-04
DEBUG_STATS_RL:                Wvel (DYNAMICS)  max=  1.32271055975028E-04
DEBUG_STATS_RL:                Wvel (DYNAMICS) mean=  2.55143828853084E-07
DEBUG_STATS_RL:                Wvel (DYNAMICS) S.D.=  1.58629725127866E-05
DEBUG_STATS_RL:               Theta (DYNAMICS)  min= -2.00912125526521E+00
DEBUG_STATS_RL:               Theta (DYNAMICS)  max=  2.99375362939570E+01
DEBUG_STATS_RL:               Theta (DYNAMICS) mean=  3.22852334610437E+00
DEBUG_STATS_RL:               Theta (DYNAMICS) S.D.=  5.85797202863071E+00
DEBUG_STATS_RL:                Salt (DYNAMICS)  min=  2.00000000000000E-02
DEBUG_STATS_RL:                Salt (DYNAMICS)  max=  3.74671265549630E+01
DEBUG_STATS_RL:                Salt (DYNAMICS) mean=  1.88650040964530E+01
DEBUG_STATS_RL:                Salt (DYNAMICS) S.D.=  1.73005010468308E+01
DEBUG_STATS_RL:                  Gu (DYNAMICS)  min= -1.75361132573637E-01
DEBUG_STATS_RL:                  Gu (DYNAMICS)  max=  1.43348987599019E-01
DEBUG_STATS_RL:                  Gu (DYNAMICS) mean=  2.75073933119033E-03
DEBUG_STATS_RL:                  Gu (DYNAMICS) S.D.=  2.27318591069507E-02
DEBUG_STATS_RL:                  Gv (DYNAMICS)  min= -1.38676168201241E-01
DEBUG_STATS_RL:                  Gv (DYNAMICS)  max=  1.31148670616101E-01
DEBUG_STATS_RL:                  Gv (DYNAMICS) mean=  3.62461087280151E-03
DEBUG_STATS_RL:                  Gv (DYNAMICS) S.D.=  1.75228265246273E-02
DEBUG_STATS_RL:               GuNm1 (DYNAMICS)  min= -7.50188061855684E-06
DEBUG_STATS_RL:               GuNm1 (DYNAMICS)  max=  7.95779481933792E-06
DEBUG_STATS_RL:               GuNm1 (DYNAMICS) mean= -1.00899435878035E-08
DEBUG_STATS_RL:               GuNm1 (DYNAMICS) S.D.=  1.20235913977047E-06
DEBUG_STATS_RL:               GvNm1 (DYNAMICS)  min= -1.04657538640063E-05
DEBUG_STATS_RL:               GvNm1 (DYNAMICS)  max=  1.68885403353006E-05
DEBUG_STATS_RL:               GvNm1 (DYNAMICS) mean=  7.72932563790750E-07
DEBUG_STATS_RL:               GvNm1 (DYNAMICS) S.D.=  2.65206173302104E-06
DEBUG_STATS_RL:               GtNm1 (DYNAMICS)  min= -4.94754795329628E-06
DEBUG_STATS_RL:               GtNm1 (DYNAMICS)  max=  3.24340995597669E-06
DEBUG_STATS_RL:               GtNm1 (DYNAMICS) mean=  3.76244295090151E-10
DEBUG_STATS_RL:               GtNm1 (DYNAMICS) S.D.=  2.36268664017617E-07
DEBUG_STATS_RL:               GsNm1 (DYNAMICS)  min= -1.16300766262636E-06
DEBUG_STATS_RL:               GsNm1 (DYNAMICS)  max=  8.42996548118932E-07
DEBUG_STATS_RL:               GsNm1 (DYNAMICS) mean= -6.68834697470254E-10
DEBUG_STATS_RL:               GsNm1 (DYNAMICS) S.D.=  2.36150372177269E-08
DEBUG_STATS_RL:    cg2d_b (SOLVE_FOR_PRESSURE)  min= -2.33314747205118E+04
DEBUG_STATS_RL:    cg2d_b (SOLVE_FOR_PRESSURE)  max=  2.00825324816147E+04
DEBUG_STATS_RL:    cg2d_b (SOLVE_FOR_PRESSURE) mean=  1.90354397717665E+00
DEBUG_STATS_RL:    cg2d_b (SOLVE_FOR_PRESSURE) S.D.=  3.89510026507592E+03
 cg2d: Sum(rhs),rhsMax =   1.88873800732827E-01  1.53247372793353E+00
(PID.TID 0000.0001)  cg2d: iter=     1 ; resid.=  2.55879784513327E-01
(PID.TID 0000.0001)  cg2d: iter=     2 ; resid.=  2.19575717025939E-01
(PID.TID 0000.0001)  cg2d: iter=     3 ; resid.=  1.92822752457715E-01
(PID.TID 0000.0001)  cg2d: iter=     4 ; resid.=  1.58702213604482E-01
(PID.TID 0000.0001)  cg2d: iter=     5 ; resid.=  1.16828218811559E-01
(PID.TID 0000.0001)  cg2d: iter=     6 ; resid.=  8.80569031488290E-02
(PID.TID 0000.0001)  cg2d: iter=     7 ; resid.=  7.32809642093750E-02
(PID.TID 0000.0001)  cg2d: iter=     8 ; resid.=  6.48097949863902E-02
(PID.TID 0000.0001)  cg2d: iter=     9 ; resid.=  5.47388645770061E-02
(PID.TID 0000.0001)  cg2d: iter=    10 ; resid.=  5.09559894593185E-02
(PID.TID 0000.0001)  cg2d: iter=    11 ; resid.=  4.92535888286436E-02
(PID.TID 0000.0001)  cg2d: iter=    12 ; resid.=  4.24318936213992E-02
(PID.TID 0000.0001)  cg2d: iter=    13 ; resid.=  3.55404176704063E-02
(PID.TID 0000.0001)  cg2d: iter=    14 ; resid.=  2.84221156760158E-02
(PID.TID 0000.0001)  cg2d: iter=    15 ; resid.=  2.26981003548752E-02
(PID.TID 0000.0001)  cg2d: iter=    16 ; resid.=  1.95030931972372E-02
(PID.TID 0000.0001)  cg2d: iter=    17 ; resid.=  1.65293163638514E-02
(PID.TID 0000.0001)  cg2d: iter=    18 ; resid.=  1.32446414663581E-02
(PID.TID 0000.0001)  cg2d: iter=    19 ; resid.=  1.03231664213173E-02
(PID.TID 0000.0001)  cg2d: iter=    20 ; resid.=  8.26144070627770E-03
(PID.TID 0000.0001)  cg2d: iter=    21 ; resid.=  6.79750135484621E-03
(PID.TID 0000.0001)  cg2d: iter=    22 ; resid.=  5.53197971513690E-03
(PID.TID 0000.0001)  cg2d: iter=    23 ; resid.=  4.54283214069839E-03
(PID.TID 0000.0001)  cg2d: iter=    24 ; resid.=  3.71314896687140E-03
(PID.TID 0000.0001)  cg2d: iter=    25 ; resid.=  2.68694141164286E-03
(PID.TID 0000.0001)  cg2d: iter=    26 ; resid.=  2.10754707112921E-03
(PID.TID 0000.0001)  cg2d: iter=    27 ; resid.=  1.80404436804806E-03
(PID.TID 0000.0001)  cg2d: iter=    28 ; resid.=  1.43341601875112E-03
(PID.TID 0000.0001)  cg2d: iter=    29 ; resid.=  1.09605890664275E-03
(PID.TID 0000.0001)  cg2d: iter=    30 ; resid.=  8.84403967561105E-04
(PID.TID 0000.0001)  cg2d: iter=    31 ; resid.=  7.62716603127310E-04
(PID.TID 0000.0001)  cg2d: iter=    32 ; resid.=  6.30601895702880E-04
(PID.TID 0000.0001)  cg2d: iter=    33 ; resid.=  5.29414590923450E-04
(PID.TID 0000.0001)  cg2d: iter=    34 ; resid.=  4.67335055326341E-04
(PID.TID 0000.0001)  cg2d: iter=    35 ; resid.=  3.88931584533666E-04
(PID.TID 0000.0001)  cg2d: iter=    36 ; resid.=  3.25465193375565E-04
(PID.TID 0000.0001)  cg2d: iter=    37 ; resid.=  2.90149063518470E-04
(PID.TID 0000.0001)  cg2d: iter=    38 ; resid.=  2.51305432958660E-04
(PID.TID 0000.0001)  cg2d: iter=    39 ; resid.=  1.91992399677420E-04
(PID.TID 0000.0001)  cg2d: iter=    40 ; resid.=  1.52649050060756E-04
(PID.TID 0000.0001)  cg2d: iter=    41 ; resid.=  1.21689837862086E-04
(PID.TID 0000.0001)  cg2d: iter=    42 ; resid.=  1.00773963263251E-04
(PID.TID 0000.0001)  cg2d: iter=    43 ; resid.=  8.31967300944191E-05
(PID.TID 0000.0001)  cg2d: iter=    44 ; resid.=  7.15983488612442E-05
(PID.TID 0000.0001)  cg2d: iter=    45 ; resid.=  6.43951067551829E-05
(PID.TID 0000.0001)  cg2d: iter=    46 ; resid.=  5.39223878651902E-05
(PID.TID 0000.0001)  cg2d: iter=    47 ; resid.=  5.09053217551498E-05
(PID.TID 0000.0001)  cg2d: iter=    48 ; resid.=  4.61167958423037E-05
(PID.TID 0000.0001)  cg2d: iter=    49 ; resid.=  3.81890297107936E-05
(PID.TID 0000.0001)  cg2d: iter=    50 ; resid.=  3.07472710810406E-05
(PID.TID 0000.0001)  cg2d: iter=    51 ; resid.=  2.58357599114724E-05
(PID.TID 0000.0001)  cg2d: iter=    52 ; resid.=  2.18742453141846E-05
(PID.TID 0000.0001)  cg2d: iter=    53 ; resid.=  1.89821723430827E-05
(PID.TID 0000.0001)  cg2d: iter=    54 ; resid.=  1.50372772943252E-05
(PID.TID 0000.0001)  cg2d: iter=    55 ; resid.=  1.26677912692091E-05
(PID.TID 0000.0001)  cg2d: iter=    56 ; resid.=  1.10784900336423E-05
(PID.TID 0000.0001)  cg2d: iter=    57 ; resid.=  9.03078568545795E-06
(PID.TID 0000.0001)  cg2d: iter=    58 ; resid.=  7.20569880186512E-06
(PID.TID 0000.0001)  cg2d: iter=    59 ; resid.=  5.66859085523423E-06
(PID.TID 0000.0001)  cg2d: iter=    60 ; resid.=  4.41794380795352E-06
(PID.TID 0000.0001)  cg2d: iter=    61 ; resid.=  3.47282365791700E-06
(PID.TID 0000.0001)  cg2d: iter=    62 ; resid.=  2.80664617487607E-06
(PID.TID 0000.0001)  cg2d: iter=    63 ; resid.=  2.17986591490076E-06
(PID.TID 0000.0001)  cg2d: iter=    64 ; resid.=  1.72974224641334E-06
(PID.TID 0000.0001)  cg2d: iter=    65 ; resid.=  1.28999992020496E-06
(PID.TID 0000.0001)  cg2d: iter=    66 ; resid.=  9.37347357767988E-07
(PID.TID 0000.0001)  cg2d: iter=    67 ; resid.=  7.63930710762631E-07
(PID.TID 0000.0001)  cg2d: iter=    68 ; resid.=  6.19519437658387E-07
(PID.TID 0000.0001)  cg2d: iter=    69 ; resid.=  5.04433401473288E-07
(PID.TID 0000.0001)  cg2d: iter=    70 ; resid.=  4.56709732640081E-07
(PID.TID 0000.0001)  cg2d: iter=    71 ; resid.=  3.84820562540405E-07
(PID.TID 0000.0001)  cg2d: iter=    72 ; resid.=  3.43475434473416E-07
(PID.TID 0000.0001)  cg2d: iter=    73 ; resid.=  3.28392003847070E-07
(PID.TID 0000.0001)  cg2d: iter=    74 ; resid.=  2.86361311735987E-07
(PID.TID 0000.0001)  cg2d: iter=    75 ; resid.=  2.12709050359971E-07
(PID.TID 0000.0001)  cg2d: iter=    76 ; resid.=  1.69392088316309E-07
(PID.TID 0000.0001)  cg2d: iter=    77 ; resid.=  1.38885887041918E-07
(PID.TID 0000.0001)  cg2d: iter=    78 ; resid.=  1.00874948759686E-07
(PID.TID 0000.0001)  cg2d: iter=    79 ; resid.=  8.40945282248437E-08
(PID.TID 0000.0001)  cg2d: iter=    80 ; resid.=  6.32735561872706E-08
(PID.TID 0000.0001)  cg2d: iter=    81 ; resid.=  5.49343907283854E-08
(PID.TID 0000.0001)  cg2d: iter=    82 ; resid.=  4.64114871335040E-08
(PID.TID 0000.0001)  cg2d: iter=    83 ; resid.=  3.70965187585784E-08
(PID.TID 0000.0001)  cg2d: iter=    84 ; resid.=  2.95876221794972E-08
(PID.TID 0000.0001)  cg2d: iter=    85 ; resid.=  2.25693032700955E-08
(PID.TID 0000.0001)  cg2d: iter=    86 ; resid.=  1.68801340304812E-08
(PID.TID 0000.0001)  cg2d: iter=    87 ; resid.=  1.32827210043027E-08
(PID.TID 0000.0001)  cg2d: iter=    88 ; resid.=  1.15876370682908E-08
(PID.TID 0000.0001)  cg2d: iter=    89 ; resid.=  1.04035604745719E-08
(PID.TID 0000.0001)  cg2d: iter=    90 ; resid.=  8.93870007291970E-09
(PID.TID 0000.0001)  cg2d: iter=    91 ; resid.=  7.44123463157795E-09
(PID.TID 0000.0001)  cg2d: iter=    92 ; resid.=  5.64297279896494E-09
(PID.TID 0000.0001)  cg2d: iter=    93 ; resid.=  4.28105624399787E-09
(PID.TID 0000.0001)  cg2d: iter=    94 ; resid.=  3.23630212735571E-09
(PID.TID 0000.0001)  cg2d: iter=    95 ; resid.=  2.70204191813980E-09
(PID.TID 0000.0001)  cg2d: iter=    96 ; resid.=  2.08970871362196E-09
(PID.TID 0000.0001)  cg2d: iter=    97 ; resid.=  1.62202789462871E-09
(PID.TID 0000.0001)  cg2d: iter=    98 ; resid.=  1.29968932089631E-09
(PID.TID 0000.0001)  cg2d: iter=    99 ; resid.=  1.06624921880096E-09
(PID.TID 0000.0001)  cg2d: iter=   100 ; resid.=  8.61270502076289E-10
(PID.TID 0000.0001)  cg2d: iter=   101 ; resid.=  6.73977865820410E-10
(PID.TID 0000.0001)  cg2d: iter=   102 ; resid.=  5.48121816836774E-10
(PID.TID 0000.0001)  cg2d: iter=   103 ; resid.=  4.09975789824232E-10
(PID.TID 0000.0001)  cg2d: iter=   104 ; resid.=  3.15063970732879E-10
(PID.TID 0000.0001)  cg2d: iter=   105 ; resid.=  2.39848279281376E-10
(PID.TID 0000.0001)  cg2d: iter=   106 ; resid.=  2.06206106857011E-10
(PID.TID 0000.0001)  cg2d: iter=   107 ; resid.=  1.83453269737245E-10
(PID.TID 0000.0001)  cg2d: iter=   108 ; resid.=  1.61348219169752E-10
(PID.TID 0000.0001)  cg2d: iter=   109 ; resid.=  1.37593967153302E-10
(PID.TID 0000.0001)  cg2d: iter=   110 ; resid.=  1.10887695720125E-10
(PID.TID 0000.0001)  cg2d: iter=   111 ; resid.=  8.58713271724907E-11
(PID.TID 0000.0001)  cg2d: iter=   112 ; resid.=  7.07186463305509E-11
(PID.TID 0000.0001)  cg2d: iter=   113 ; resid.=  5.23006769128921E-11
(PID.TID 0000.0001)  cg2d: iter=   114 ; resid.=  3.87045504350865E-11
(PID.TID 0000.0001)  cg2d: iter=   115 ; resid.=  2.65605708308456E-11
(PID.TID 0000.0001)  cg2d: iter=   116 ; resid.=  1.94656098397963E-11
(PID.TID 0000.0001)  cg2d: iter=   117 ; resid.=  1.46277704638796E-11
(PID.TID 0000.0001)  cg2d: iter=   118 ; resid.=  1.05480787966045E-11
(PID.TID 0000.0001)  cg2d: iter=   119 ; resid.=  8.44667590795329E-12
(PID.TID 0000.0001)  cg2d: iter=   120 ; resid.=  6.48937985694487E-12
(PID.TID 0000.0001)  cg2d: iter=   121 ; resid.=  4.83034665949028E-12
(PID.TID 0000.0001)  cg2d: iter=   122 ; resid.=  3.63487246495352E-12
(PID.TID 0000.0001)  cg2d: iter=   123 ; resid.=  2.86040712259312E-12
(PID.TID 0000.0001)  cg2d: iter=   124 ; resid.=  2.44386647520689E-12
(PID.TID 0000.0001)  cg2d: iter=   125 ; resid.=  2.04574263053189E-12
(PID.TID 0000.0001)  cg2d: iter=   126 ; resid.=  1.50166413224292E-12
(PID.TID 0000.0001)  cg2d: iter=   127 ; resid.=  1.06492705969843E-12
(PID.TID 0000.0001)  cg2d: iter=   128 ; resid.=  7.85631536090258E-13
(PID.TID 0000.0001)  cg2d: iter=   129 ; resid.=  6.08142810520698E-13
(PID.TID 0000.0001)  cg2d: iter=   130 ; resid.=  4.70937025009694E-13
(PID.TID 0000.0001)  cg2d: iter=   131 ; resid.=  3.45351120160857E-13
(PID.TID 0000.0001)  cg2d: iter=   132 ; resid.=  2.23953153433586E-13
(PID.TID 0000.0001)  cg2d: iter=   133 ; resid.=  1.69881194725916E-13
(PID.TID 0000.0001)  cg2d: iter=   134 ; resid.=  1.20591604869313E-13
(PID.TID 0000.0001)  cg2d: iter=   135 ; resid.=  9.20962531791005E-14
DEBUG_STATS_RL:    cg2d_x (SOLVE_FOR_PRESSURE)  min= -1.95647702156344E+01
DEBUG_STATS_RL:    cg2d_x (SOLVE_FOR_PRESSURE)  max=  9.95535138174740E+00
DEBUG_STATS_RL:    cg2d_x (SOLVE_FOR_PRESSURE) mean= -1.43640856530236E+00
DEBUG_STATS_RL:    cg2d_x (SOLVE_FOR_PRESSURE) S.D.=  6.52684044660657E+00
(PID.TID 0000.0001)      cg2d_init_res =   4.91168951053241E-01
(PID.TID 0000.0001)      cg2d_iters(min,last) =      -1     135
(PID.TID 0000.0001)      cg2d_last_res =   9.20962531791005E-14
(PID.TID 0000.0001) // =======================================================
(PID.TID 0000.0001) // Begin MONITOR dynamic field statistics
(PID.TID 0000.0001) // =======================================================
(PID.TID 0000.0001) %MON time_tsnumber                =                    27
(PID.TID 0000.0001) %MON time_secondsf                =   2.3328000000000E+06
(PID.TID 0000.0001) %MON dynstat_eta_max              =   1.0148166546124E+00
(PID.TID 0000.0001) %MON dynstat_eta_min              =  -1.9943700525622E+00
(PID.TID 0000.0001) %MON dynstat_eta_mean             =  -1.9861121085230E-03
(PID.TID 0000.0001) %MON dynstat_eta_sd               =   5.6471183082490E-01
(PID.TID 0000.0001) %MON dynstat_eta_del2             =   2.0948638493692E-03
(PID.TID 0000.0001) %MON dynstat_uvel_max             =   1.4037052952269E-01
(PID.TID 0000.0001) %MON dynstat_uvel_min             =  -1.7392675363714E-01
(PID.TID 0000.0001) %MON dynstat_uvel_mean            =   8.3444262215128E-04
(PID.TID 0000.0001) %MON dynstat_uvel_sd              =   1.6889333398459E-02
(PID.TID 0000.0001) %MON dynstat_uvel_del2            =   9.2424765141643E-05
(PID.TID 0000.0001) %MON dynstat_vvel_max             =   1.2498622823739E-01
(PID.TID 0000.0001) %MON dynstat_vvel_min             =  -1.2876976946149E-01
(PID.TID 0000.0001) %MON dynstat_vvel_mean            =   1.3703781777019E-04
(PID.TID 0000.0001) %MON dynstat_vvel_sd              =   1.0909904469004E-02
(PID.TID 0000.0001) %MON dynstat_vvel_del2            =   8.6997273626420E-05
(PID.TID 0000.0001) %MON dynstat_wvel_max             =   1.4544549414253E-04
(PID.TID 0000.0001) %MON dynstat_wvel_min             =  -1.8230297698809E-04
(PID.TID 0000.0001) %MON dynstat_wvel_mean            =   1.4083270650330E-23
(PID.TID 0000.0001) %MON dynstat_wvel_sd              =   1.7250685300677E-05
(PID.TID 0000.0001) %MON dynstat_wvel_del2            =   1.8778243913119E-07
(PID.TID 0000.0001) %MON dynstat_theta_max            =   2.9937536293957E+01
(PID.TID 0000.0001) %MON dynstat_theta_min            =  -2.0091212552652E+00
(PID.TID 0000.0001) %MON dynstat_theta_mean           =   3.6407956628288E+00
(PID.TID 0000.0001) %MON dynstat_theta_sd             =   4.4169506453227E+00
(PID.TID 0000.0001) %MON dynstat_theta_del2           =   4.8677266192938E-03
(PID.TID 0000.0001) %MON dynstat_salt_max             =   3.7467126554963E+01
(PID.TID 0000.0001) %MON dynstat_salt_min             =   2.9841768992576E+01
(PID.TID 0000.0001) %MON dynstat_salt_mean            =   3.4737941470964E+01
(PID.TID 0000.0001) %MON dynstat_salt_sd              =   2.9616217872241E-01
(PID.TID 0000.0001) %MON dynstat_salt_del2            =   1.0024061705770E-03
(PID.TID 0000.0001) %MON dynstat_sst_max              =   2.9937536293957E+01
(PID.TID 0000.0001) %MON dynstat_sst_min              =  -2.0091212552652E+00
(PID.TID 0000.0001) %MON dynstat_sst_mean             =   1.8736341663349E+01
(PID.TID 0000.0001) %MON dynstat_sst_sd               =   9.0579674447692E+00
(PID.TID 0000.0001) %MON dynstat_sst_del2             =   2.6503385523871E-02
(PID.TID 0000.0001) %MON dynstat_sss_max              =   3.7450573257605E+01
(PID.TID 0000.0001) %MON dynstat_sss_min              =   2.9841768992576E+01
(PID.TID 0000.0001) %MON dynstat_sss_mean             =   3.4868391613731E+01
(PID.TID 0000.0001) %MON dynstat_sss_sd               =   9.7437224573073E-01
(PID.TID 0000.0001) %MON dynstat_sss_del2             =   7.8988058059474E-03
(PID.TID 0000.0001) %MON forcing_qnet_max             =   4.0510366312663E+02
(PID.TID 0000.0001) %MON forcing_qnet_min             =  -1.7738483479818E+02
(PID.TID 0000.0001) %MON forcing_qnet_mean            =  -1.5578525159607E+01
(PID.TID 0000.0001) %MON forcing_qnet_sd              =   9.8219108614254E+01
(PID.TID 0000.0001) %MON forcing_qnet_del2            =   9.8437596337033E-01
(PID.TID 0000.0001) %MON forcing_qsw_max              =   0.0000000000000E+00
(PID.TID 0000.0001) %MON forcing_qsw_min              =   0.0000000000000E+00
(PID.TID 0000.0001) %MON forcing_qsw_mean             =   0.0000000000000E+00
(PID.TID 0000.0001) %MON forcing_qsw_sd               =   0.0000000000000E+00
(PID.TID 0000.0001) %MON forcing_qsw_del2             =   0.0000000000000E+00
(PID.TID 0000.0001) %MON forcing_empmr_max            =   7.8719251916937E-05
(PID.TID 0000.0001) %MON forcing_empmr_min            =  -7.7032043085031E-05
(PID.TID 0000.0001) %MON forcing_empmr_mean           =   9.3044343197016E-07
(PID.TID 0000.0001) %MON forcing_empmr_sd             =   2.8310676615472E-05
(PID.TID 0000.0001) %MON forcing_empmr_del2           =   3.5708477950409E-07
(PID.TID 0000.0001) %MON forcing_fu_max               =   2.7827952206135E-01
(PID.TID 0000.0001) %MON forcing_fu_min               =  -1.8419379889965E-01
(PID.TID 0000.0001) %MON forcing_fu_mean              =   1.6599037522725E-02
(PID.TID 0000.0001) %MON forcing_fu_sd                =   8.9963961949749E-02
(PID.TID 0000.0001) %MON forcing_fu_del2              =   6.7044165395875E-04
(PID.TID 0000.0001) %MON forcing_fv_max               =   1.9782840361198E-01
(PID.TID 0000.0001) %MON forcing_fv_min               =  -1.6723260283470E-01
(PID.TID 0000.0001) %MON forcing_fv_mean              =  -5.9767677133721E-03
(PID.TID 0000.0001) %MON forcing_fv_sd                =   4.5481939075567E-02
(PID.TID 0000.0001) %MON forcing_fv_del2              =   4.6378982619852E-04
(PID.TID 0000.0001) %MON trAdv_CFL_u_max              =   4.2541478233027E-02
(PID.TID 0000.0001) %MON trAdv_CFL_v_max              =   2.5949524496748E-02
(PID.TID 0000.0001) %MON trAdv_CFL_w_max              =   5.6690278348840E-02
(PID.TID 0000.0001) %MON advcfl_uvel_max              =   4.6397459798900E-02
(PID.TID 0000.0001) %MON advcfl_vvel_max              =   2.5017900987558E-02
(PID.TID 0000.0001) %MON advcfl_wvel_max              =   6.5401550709488E-02
(PID.TID 0000.0001) %MON advcfl_W_hf_max              =   7.7080399050468E-02
(PID.TID 0000.0001) %MON pe_b_mean                    =   4.0807533416997E-04
(PID.TID 0000.0001) %MON ke_max                       =   1.4966099898828E-02
(PID.TID 0000.0001) %MON ke_mean                      =   1.8335396628649E-04
(PID.TID 0000.0001) %MON ke_vol                       =   1.3226782436723E+18
(PID.TID 0000.0001) %MON vort_r_min                   =  -4.8123881888284E-07
(PID.TID 0000.0001) %MON vort_r_max                   =   4.0705477017718E-07
(PID.TID 0000.0001) %MON vort_a_mean                  =  -2.5274807153431E-05
(PID.TID 0000.0001) %MON vort_a_sd                    =   7.3604377460794E-05
(PID.TID 0000.0001) %MON vort_p_mean                  =  -3.1845655492013E-05
(PID.TID 0000.0001) %MON vort_p_sd                    =   1.3162745265610E-04
(PID.TID 0000.0001) %MON surfExpan_theta_mean         =  -2.3231443055283E-07
(PID.TID 0000.0001) %MON surfExpan_salt_mean          =  -6.7905641351633E-08
(PID.TID 0000.0001) // =======================================================
(PID.TID 0000.0001) // End MONITOR dynamic field statistics
(PID.TID 0000.0001) // =======================================================
 EXTERNAL_FIELDS_LOAD,        27 : iP,iLd,i0,i1=    1    2    1    2 ; Wght=  0.6000000000  0.4000000000
 EXTERNAL_FIELDS_LOAD: (fu0,1),fu,fv= -3.5633E-02 -1.4435E-02 -2.7154E-02 -4.1408E-02
 EXTERNAL_FIELDS_LOAD: SST,SSS,Q,E-P=  3.6231E-01  3.4597E+01  2.5565E+02  1.0333E-05
DEBUG_STATS_RL:          Uvel (THERMODYNAMICS)  min= -1.73926753637144E-01
DEBUG_STATS_RL:          Uvel (THERMODYNAMICS)  max=  1.40370529522690E-01
DEBUG_STATS_RL:          Uvel (THERMODYNAMICS) mean=  2.68849612875362E-03
DEBUG_STATS_RL:          Uvel (THERMODYNAMICS) S.D.=  2.21761092178129E-02
DEBUG_STATS_RL:          Vvel (THERMODYNAMICS)  min= -1.28769769461491E-01
DEBUG_STATS_RL:          Vvel (THERMODYNAMICS)  max=  1.24986228237390E-01
DEBUG_STATS_RL:          Vvel (THERMODYNAMICS) mean=  1.23367936018939E-03
DEBUG_STATS_RL:          Vvel (THERMODYNAMICS) S.D.=  1.60565104806015E-02
DEBUG_STATS_RL:          Wvel (THERMODYNAMICS)  min= -1.82302976988094E-04
DEBUG_STATS_RL:          Wvel (THERMODYNAMICS)  max=  1.45445494142531E-04
DEBUG_STATS_RL:          Wvel (THERMODYNAMICS) mean=  1.84074997469079E-07
DEBUG_STATS_RL:          Wvel (THERMODYNAMICS) S.D.=  1.55520439773067E-05
DEBUG_STATS_RL:         Theta (THERMODYNAMICS)  min= -2.00839217180732E+00
DEBUG_STATS_RL:         Theta (THERMODYNAMICS)  max=  2.99531555175599E+01
DEBUG_STATS_RL:         Theta (THERMODYNAMICS) mean=  3.22859706365232E+00
DEBUG_STATS_RL:         Theta (THERMODYNAMICS) S.D.=  5.85812037011924E+00
DEBUG_STATS_RL:          Salt (THERMODYNAMICS)  min=  2.00000000000000E-02
DEBUG_STATS_RL:          Salt (THERMODYNAMICS)  max=  3.74682247288517E+01
DEBUG_STATS_RL:          Salt (THERMODYNAMICS) mean=  1.88649775017781E+01
DEBUG_STATS_RL:          Salt (THERMODYNAMICS) S.D.=  1.73004769944609E+01
DEBUG_STATS_RL:         GtNm1 (THERMODYNAMICS)  min= -3.70873637772864E-06
DEBUG_STATS_RL:         GtNm1 (THERMODYNAMICS)  max=  2.59236436148333E-06
DEBUG_STATS_RL:         GtNm1 (THERMODYNAMICS) mean=  1.23942612907643E-09
DEBUG_STATS_RL:         GtNm1 (THERMODYNAMICS) S.D.=  2.31326880058939E-07
DEBUG_STATS_RL:         GsNm1 (THERMODYNAMICS)  min= -8.10122510214661E-07
DEBUG_STATS_RL:         GsNm1 (THERMODYNAMICS)  max=  5.73248922495164E-07
DEBUG_STATS_RL:         GsNm1 (THERMODYNAMICS) mean= -6.64257773542489E-10
DEBUG_STATS_RL:         GsNm1 (THERMODYNAMICS) S.D.=  2.23898605598020E-08
DEBUG_STATS_RL:                EtaN (DYNAMICS)  min= -1.99437005256218E+00
DEBUG_STATS_RL:                EtaN (DYNAMICS)  max=  1.01481665461237E+00
DEBUG_STATS_RL:                EtaN (DYNAMICS) mean= -1.46422891468132E-01
DEBUG_STATS_RL:                EtaN (DYNAMICS) S.D.=  6.65325223915041E-01
DEBUG_STATS_RL:                Uvel (DYNAMICS)  min= -1.73926753637144E-01
DEBUG_STATS_RL:                Uvel (DYNAMICS)  max=  1.40370529522690E-01
DEBUG_STATS_RL:                Uvel (DYNAMICS) mean=  2.68849612875362E-03
DEBUG_STATS_RL:                Uvel (DYNAMICS) S.D.=  2.21761092178129E-02
DEBUG_STATS_RL:                Vvel (DYNAMICS)  min= -1.28769769461491E-01
DEBUG_STATS_RL:                Vvel (DYNAMICS)  max=  1.24986228237390E-01
DEBUG_STATS_RL:                Vvel (DYNAMICS) mean=  1.23367936018939E-03
DEBUG_STATS_RL:                Vvel (DYNAMICS) S.D.=  1.60565104806015E-02
DEBUG_STATS_RL:                Wvel (DYNAMICS)  min= -1.82302976988094E-04
DEBUG_STATS_RL:                Wvel (DYNAMICS)  max=  1.45445494142531E-04
DEBUG_STATS_RL:                Wvel (DYNAMICS) mean=  1.84074997469079E-07
DEBUG_STATS_RL:                Wvel (DYNAMICS) S.D.=  1.55520439773067E-05
DEBUG_STATS_RL:               Theta (DYNAMICS)  min= -2.00839217180732E+00
DEBUG_STATS_RL:               Theta (DYNAMICS)  max=  2.99531555175599E+01
DEBUG_STATS_RL:               Theta (DYNAMICS) mean=  3.22859706365232E+00
DEBUG_STATS_RL:               Theta (DYNAMICS) S.D.=  5.85812037011924E+00
DEBUG_STATS_RL:                Salt (DYNAMICS)  min=  2.00000000000000E-02
DEBUG_STATS_RL:                Salt (DYNAMICS)  max=  3.74682247288517E+01
DEBUG_STATS_RL:                Salt (DYNAMICS) mean=  1.88649775017781E+01
DEBUG_STATS_RL:                Salt (DYNAMICS) S.D.=  1.73004769944609E+01
DEBUG_STATS_RL:                  Gu (DYNAMICS)  min= -1.78386967889976E-01
DEBUG_STATS_RL:                  Gu (DYNAMICS)  max=  1.41443943770634E-01
DEBUG_STATS_RL:                  Gu (DYNAMICS) mean=  3.19763947364829E-03
DEBUG_STATS_RL:                  Gu (DYNAMICS) S.D.=  2.30848858953716E-02
DEBUG_STATS_RL:                  Gv (DYNAMICS)  min= -1.35611328009102E-01
DEBUG_STATS_RL:                  Gv (DYNAMICS)  max=  1.18575944671873E-01
DEBUG_STATS_RL:                  Gv (DYNAMICS) mean=  3.37412189083146E-03
DEBUG_STATS_RL:                  Gv (DYNAMICS) S.D.=  1.68875299537374E-02
DEBUG_STATS_RL:               GuNm1 (DYNAMICS)  min= -7.56034815225168E-06
DEBUG_STATS_RL:               GuNm1 (DYNAMICS)  max=  7.87403421164360E-06
DEBUG_STATS_RL:               GuNm1 (DYNAMICS) mean= -1.17025884834658E-08
DEBUG_STATS_RL:               GuNm1 (DYNAMICS) S.D.=  1.20557031219423E-06
DEBUG_STATS_RL:               GvNm1 (DYNAMICS)  min= -1.06301013590140E-05
DEBUG_STATS_RL:               GvNm1 (DYNAMICS)  max=  1.68201307906236E-05
DEBUG_STATS_RL:               GvNm1 (DYNAMICS) mean=  7.71457931416386E-07
DEBUG_STATS_RL:               GvNm1 (DYNAMICS) S.D.=  2.65745718656486E-06
DEBUG_STATS_RL:               GtNm1 (DYNAMICS)  min= -3.70873637772864E-06
DEBUG_STATS_RL:               GtNm1 (DYNAMICS)  max=  2.59236436148333E-06
DEBUG_STATS_RL:               GtNm1 (DYNAMICS) mean=  1.23942612907643E-09
DEBUG_STATS_RL:               GtNm1 (DYNAMICS) S.D.=  2.31326880058939E-07
DEBUG_STATS_RL:               GsNm1 (DYNAMICS)  min= -8.10122510214661E-07
DEBUG_STATS_RL:               GsNm1 (DYNAMICS)  max=  5.73248922495164E-07
DEBUG_STATS_RL:               GsNm1 (DYNAMICS) mean= -6.64257773542489E-10
DEBUG_STATS_RL:               GsNm1 (DYNAMICS) S.D.=  2.23898605598020E-08
DEBUG_STATS_RL:    cg2d_b (SOLVE_FOR_PRESSURE)  min= -2.27905878546045E+04
DEBUG_STATS_RL:    cg2d_b (SOLVE_FOR_PRESSURE)  max=  2.00888974428518E+04
DEBUG_STATS_RL:    cg2d_b (SOLVE_FOR_PRESSURE) mean=  1.97804134396490E+00
DEBUG_STATS_RL:    cg2d_b (SOLVE_FOR_PRESSURE) S.D.=  3.91403022213278E+03
 cg2d: Sum(rhs),rhsMax =   2.00923545302646E-01  1.49694683039633E+00
(PID.TID 0000.0001)  cg2d: iter=     1 ; resid.=  2.53737888666924E-01
(PID.TID 0000.0001)  cg2d: iter=     2 ; resid.=  2.17652745885345E-01
(PID.TID 0000.0001)  cg2d: iter=     3 ; resid.=  1.88074308696792E-01
(PID.TID 0000.0001)  cg2d: iter=     4 ; resid.=  1.50999079334729E-01
(PID.TID 0000.0001)  cg2d: iter=     5 ; resid.=  1.14220597076485E-01
(PID.TID 0000.0001)  cg2d: iter=     6 ; resid.=  9.13528212158644E-02
(PID.TID 0000.0001)  cg2d: iter=     7 ; resid.=  7.62726933005153E-02
(PID.TID 0000.0001)  cg2d: iter=     8 ; resid.=  6.34675100725911E-02
(PID.TID 0000.0001)  cg2d: iter=     9 ; resid.=  5.29224968949432E-02
(PID.TID 0000.0001)  cg2d: iter=    10 ; resid.=  4.89282765065316E-02
(PID.TID 0000.0001)  cg2d: iter=    11 ; resid.=  4.67252845973469E-02
(PID.TID 0000.0001)  cg2d: iter=    12 ; resid.=  4.06483867659800E-02
(PID.TID 0000.0001)  cg2d: iter=    13 ; resid.=  3.37755421686796E-02
(PID.TID 0000.0001)  cg2d: iter=    14 ; resid.=  2.59369033787929E-02
(PID.TID 0000.0001)  cg2d: iter=    15 ; resid.=  2.07595005169798E-02
(PID.TID 0000.0001)  cg2d: iter=    16 ; resid.=  1.79526622626034E-02
(PID.TID 0000.0001)  cg2d: iter=    17 ; resid.=  1.48935311092696E-02
(PID.TID 0000.0001)  cg2d: iter=    18 ; resid.=  1.22345663501708E-02
(PID.TID 0000.0001)  cg2d: iter=    19 ; resid.=  9.70752128777527E-03
(PID.TID 0000.0001)  cg2d: iter=    20 ; resid.=  7.90861012798559E-03
(PID.TID 0000.0001)  cg2d: iter=    21 ; resid.=  6.67416446023434E-03
(PID.TID 0000.0001)  cg2d: iter=    22 ; resid.=  5.81110537450240E-03
(PID.TID 0000.0001)  cg2d: iter=    23 ; resid.=  4.97982462555728E-03
(PID.TID 0000.0001)  cg2d: iter=    24 ; resid.=  4.12680907927566E-03
(PID.TID 0000.0001)  cg2d: iter=    25 ; resid.=  3.04042953082220E-03
(PID.TID 0000.0001)  cg2d: iter=    26 ; resid.=  2.50809694035397E-03
(PID.TID 0000.0001)  cg2d: iter=    27 ; resid.=  2.14095847509676E-03
(PID.TID 0000.0001)  cg2d: iter=    28 ; resid.=  1.69620750741561E-03
(PID.TID 0000.0001)  cg2d: iter=    29 ; resid.=  1.30395713187847E-03
(PID.TID 0000.0001)  cg2d: iter=    30 ; resid.=  1.03086630781664E-03
(PID.TID 0000.0001)  cg2d: iter=    31 ; resid.=  8.48885899349866E-04
(PID.TID 0000.0001)  cg2d: iter=    32 ; resid.=  6.82336926200940E-04
(PID.TID 0000.0001)  cg2d: iter=    33 ; resid.=  5.45044376484848E-04
(PID.TID 0000.0001)  cg2d: iter=    34 ; resid.=  4.53854249823850E-04
(PID.TID 0000.0001)  cg2d: iter=    35 ; resid.=  3.59949361015416E-04
(PID.TID 0000.0001)  cg2d: iter=    36 ; resid.=  2.91322230895074E-04
(PID.TID 0000.0001)  cg2d: iter=    37 ; resid.=  2.52278154889392E-04
(PID.TID 0000.0001)  cg2d: iter=    38 ; resid.=  2.12638076206795E-04
(PID.TID 0000.0001)  cg2d: iter=    39 ; resid.=  1.58042650364301E-04
(PID.TID 0000.0001)  cg2d: iter=    40 ; resid.=  1.20843639244126E-04
(PID.TID 0000.0001)  cg2d: iter=    41 ; resid.=  9.49025497811665E-05
(PID.TID 0000.0001)  cg2d: iter=    42 ; resid.=  7.80295242596273E-05
(PID.TID 0000.0001)  cg2d: iter=    43 ; resid.=  6.09889651109780E-05
(PID.TID 0000.0001)  cg2d: iter=    44 ; resid.=  4.84322281243940E-05
(PID.TID 0000.0001)  cg2d: iter=    45 ; resid.=  4.16452225917299E-05
(PID.TID 0000.0001)  cg2d: iter=    46 ; resid.=  3.32417714509446E-05
(PID.TID 0000.0001)  cg2d: iter=    47 ; resid.=  2.95678430894857E-05
(PID.TID 0000.0001)  cg2d: iter=    48 ; resid.=  2.62564506333391E-05
(PID.TID 0000.0001)  cg2d: iter=    49 ; resid.=  2.12690591533698E-05
(PID.TID 0000.0001)  cg2d: iter=    50 ; resid.=  1.65445839911846E-05
(PID.TID 0000.0001)  cg2d: iter=    51 ; resid.=  1.36018989404927E-05
(PID.TID 0000.0001)  cg2d: iter=    52 ; resid.=  1.11487364477252E-05
(PID.TID 0000.0001)  cg2d: iter=    53 ; resid.=  9.11515520917158E-06
(PID.TID 0000.0001)  cg2d: iter=    54 ; resid.=  6.87326261815465E-06
(PID.TID 0000.0001)  cg2d: iter=    55 ; resid.=  5.48850811550460E-06
(PID.TID 0000.0001)  cg2d: iter=    56 ; resid.=  4.90775983035834E-06
(PID.TID 0000.0001)  cg2d: iter=    57 ; resid.=  4.12247361114194E-06
(PID.TID 0000.0001)  cg2d: iter=    58 ; resid.=  3.44768713066035E-06
(PID.TID 0000.0001)  cg2d: iter=    59 ; resid.=  2.84537609393111E-06
(PID.TID 0000.0001)  cg2d: iter=    60 ; resid.=  2.35338078100525E-06
(PID.TID 0000.0001)  cg2d: iter=    61 ; resid.=  1.99044957136093E-06
(PID.TID 0000.0001)  cg2d: iter=    62 ; resid.=  1.76587514524430E-06
(PID.TID 0000.0001)  cg2d: iter=    63 ; resid.=  1.43133601555476E-06
(PID.TID 0000.0001)  cg2d: iter=    64 ; resid.=  1.21745025542912E-06
(PID.TID 0000.0001)  cg2d: iter=    65 ; resid.=  9.53581089991802E-07
(PID.TID 0000.0001)  cg2d: iter=    66 ; resid.=  7.24375826765010E-07
(PID.TID 0000.0001)  cg2d: iter=    67 ; resid.=  6.10784784014140E-07
(PID.TID 0000.0001)  cg2d: iter=    68 ; resid.=  5.04752353599270E-07
(PID.TID 0000.0001)  cg2d: iter=    69 ; resid.=  4.09797932392004E-07
(PID.TID 0000.0001)  cg2d: iter=    70 ; resid.=  3.56553813515504E-07
(PID.TID 0000.0001)  cg2d: iter=    71 ; resid.=  2.92258082189453E-07
(PID.TID 0000.0001)  cg2d: iter=    72 ; resid.=  2.46933199388250E-07
(PID.TID 0000.0001)  cg2d: iter=    73 ; resid.=  2.22137262966676E-07
(PID.TID 0000.0001)  cg2d: iter=    74 ; resid.=  1.91167562711830E-07
(PID.TID 0000.0001)  cg2d: iter=    75 ; resid.=  1.41792634178573E-07
(PID.TID 0000.0001)  cg2d: iter=    76 ; resid.=  1.12263381543401E-07
(PID.TID 0000.0001)  cg2d: iter=    77 ; resid.=  9.36830308995354E-08
(PID.TID 0000.0001)  cg2d: iter=    78 ; resid.=  7.13303196001122E-08
(PID.TID 0000.0001)  cg2d: iter=    79 ; resid.=  6.27936427771024E-08
(PID.TID 0000.0001)  cg2d: iter=    80 ; resid.=  5.26390460486663E-08
(PID.TID 0000.0001)  cg2d: iter=    81 ; resid.=  5.13522933684545E-08
(PID.TID 0000.0001)  cg2d: iter=    82 ; resid.=  4.87123960256978E-08
(PID.TID 0000.0001)  cg2d: iter=    83 ; resid.=  4.37304994013239E-08
(PID.TID 0000.0001)  cg2d: iter=    84 ; resid.=  3.85042076167008E-08
(PID.TID 0000.0001)  cg2d: iter=    85 ; resid.=  3.21687721643848E-08
(PID.TID 0000.0001)  cg2d: iter=    86 ; resid.=  2.47977343862312E-08
(PID.TID 0000.0001)  cg2d: iter=    87 ; resid.=  1.93915816297007E-08
(PID.TID 0000.0001)  cg2d: iter=    88 ; resid.=  1.62574244152204E-08
(PID.TID 0000.0001)  cg2d: iter=    89 ; resid.=  1.36868672047624E-08
(PID.TID 0000.0001)  cg2d: iter=    90 ; resid.=  1.07812995261811E-08
(PID.TID 0000.0001)  cg2d: iter=    91 ; resid.=  8.13672434330439E-09
(PID.TID 0000.0001)  cg2d: iter=    92 ; resid.=  5.64439287843536E-09
(PID.TID 0000.0001)  cg2d: iter=    93 ; resid.=  4.08740461719479E-09
(PID.TID 0000.0001)  cg2d: iter=    94 ; resid.=  2.96540611675295E-09
(PID.TID 0000.0001)  cg2d: iter=    95 ; resid.=  2.33786155177785E-09
(PID.TID 0000.0001)  cg2d: iter=    96 ; resid.=  1.70784991908563E-09
(PID.TID 0000.0001)  cg2d: iter=    97 ; resid.=  1.28884840500073E-09
(PID.TID 0000.0001)  cg2d: iter=    98 ; resid.=  1.02363375397081E-09
(PID.TID 0000.0001)  cg2d: iter=    99 ; resid.=  8.36508229012538E-10
(PID.TID 0000.0001)  cg2d: iter=   100 ; resid.=  6.77534786649977E-10
(PID.TID 0000.0001)  cg2d: iter=   101 ; resid.=  5.33204074476423E-10
(PID.TID 0000.0001)  cg2d: iter=   102 ; resid.=  4.27964567198873E-10
(PID.TID 0000.0001)  cg2d: iter=   103 ; resid.=  3.07412623675393E-10
(PID.TID 0000.0001)  cg2d: iter=   104 ; resid.=  2.22418250337604E-10
(PID.TID 0000.0001)  cg2d: iter=   105 ; resid.=  1.53982447168856E-10
(PID.TID 0000.0001)  cg2d: iter=   106 ; resid.=  1.15927315524811E-10
(PID.TID 0000.0001)  cg2d: iter=   107 ; resid.=  9.47666941209479E-11
(PID.TID 0000.0001)  cg2d: iter=   108 ; resid.=  7.85440460112118E-11
(PID.TID 0000.0001)  cg2d: iter=   109 ; resid.=  6.74056330999387E-11
(PID.TID 0000.0001)  cg2d: iter=   110 ; resid.=  5.78887120286110E-11
(PID.TID 0000.0001)  cg2d: iter=   111 ; resid.=  4.93528625540620E-11
(PID.TID 0000.0001)  cg2d: iter=   112 ; resid.=  4.63439525525535E-11
(PID.TID 0000.0001)  cg2d: iter=   113 ; resid.=  3.88005945976030E-11
(PID.TID 0000.0001)  cg2d: iter=   114 ; resid.=  3.25245923682287E-11
(PID.TID 0000.0001)  cg2d: iter=   115 ; resid.=  2.43301290006494E-11
(PID.TID 0000.0001)  cg2d: iter=   116 ; resid.=  1.86301107842284E-11
(PID.TID 0000.0001)  cg2d: iter=   117 ; resid.=  1.39349991264275E-11
(PID.TID 0000.0001)  cg2d: iter=   118 ; resid.=  9.94627187623838E-12
(PID.TID 0000.0001)  cg2d: iter=   119 ; resid.=  7.59743256991604E-12
(PID.TID 0000.0001)  cg2d: iter=   120 ; resid.=  5.57734242810353E-12
(PID.TID 0000.0001)  cg2d: iter=   121 ; resid.=  3.86825071234587E-12
(PID.TID 0000.0001)  cg2d: iter=   122 ; resid.=  2.65296527294974E-12
(PID.TID 0000.0001)  cg2d: iter=   123 ; resid.=  1.92204539097630E-12
(PID.TID 0000.0001)  cg2d: iter=   124 ; resid.=  1.60477749223450E-12
(PID.TID 0000.0001)  cg2d: iter=   125 ; resid.=  1.35720206476790E-12
(PID.TID 0000.0001)  cg2d: iter=   126 ; resid.=  1.00135341872080E-12
(PID.TID 0000.0001)  cg2d: iter=   127 ; resid.=  7.21665490783083E-13
(PID.TID 0000.0001)  cg2d: iter=   128 ; resid.=  5.57215547803233E-13
(PID.TID 0000.0001)  cg2d: iter=   129 ; resid.=  4.40088869438317E-13
(PID.TID 0000.0001)  cg2d: iter=   130 ; resid.=  3.55579961023221E-13
(PID.TID 0000.0001)  cg2d: iter=   131 ; resid.=  2.75639761519945E-13
(PID.TID 0000.0001)  cg2d: iter=   132 ; resid.=  1.92576601806013E-13
(PID.TID 0000.0001)  cg2d: iter=   133 ; resid.=  1.50634416883780E-13
(PID.TID 0000.0001)  cg2d: iter=   134 ; resid.=  1.11516293595121E-13
(PID.TID 0000.0001)  cg2d: iter=   135 ; resid.=  8.67558323132398E-14
DEBUG_STATS_RL:    cg2d_x (SOLVE_FOR_PRESSURE)  min= -1.93870171303486E+01
DEBUG_STATS_RL:    cg2d_x (SOLVE_FOR_PRESSURE)  max=  1.00045400965428E+01
DEBUG_STATS_RL:    cg2d_x (SOLVE_FOR_PRESSURE) mean= -1.43955987362627E+00
DEBUG_STATS_RL:    cg2d_x (SOLVE_FOR_PRESSURE) S.D.=  6.52170993450419E+00
(PID.TID 0000.0001)      cg2d_init_res =   4.99271411707268E-01
(PID.TID 0000.0001)      cg2d_iters(min,last) =      -1     135
(PID.TID 0000.0001)      cg2d_last_res =   8.67558323132398E-14
(PID.TID 0000.0001) // =======================================================
(PID.TID 0000.0001) // Begin MONITOR dynamic field statistics
(PID.TID 0000.0001) // =======================================================
(PID.TID 0000.0001) %MON time_tsnumber                =                    28
(PID.TID 0000.0001) %MON time_secondsf                =   2.4192000000000E+06
(PID.TID 0000.0001) %MON dynstat_eta_max              =   1.0198307947546E+00
(PID.TID 0000.0001) %MON dynstat_eta_min              =  -1.9762504720029E+00
(PID.TID 0000.0001) %MON dynstat_eta_mean             =  -2.0638408733980E-03
(PID.TID 0000.0001) %MON dynstat_eta_sd               =   5.6382643634616E-01
(PID.TID 0000.0001) %MON dynstat_eta_del2             =   2.1219606249279E-03
(PID.TID 0000.0001) %MON dynstat_uvel_max             =   1.5112068378016E-01
(PID.TID 0000.0001) %MON dynstat_uvel_min             =  -1.7696043129765E-01
(PID.TID 0000.0001) %MON dynstat_uvel_mean            =   1.3558913744198E-03
(PID.TID 0000.0001) %MON dynstat_uvel_sd              =   1.7129279308943E-02
(PID.TID 0000.0001) %MON dynstat_uvel_del2            =   9.2302176296265E-05
(PID.TID 0000.0001) %MON dynstat_vvel_max             =   1.2613802305409E-01
(PID.TID 0000.0001) %MON dynstat_vvel_min             =  -1.2643661892285E-01
(PID.TID 0000.0001) %MON dynstat_vvel_mean            =   5.1939068471505E-05
(PID.TID 0000.0001) %MON dynstat_vvel_sd              =   1.0725681173554E-02
(PID.TID 0000.0001) %MON dynstat_vvel_del2            =   8.5795255216099E-05
(PID.TID 0000.0001) %MON dynstat_wvel_max             =   1.5703794585959E-04
(PID.TID 0000.0001) %MON dynstat_wvel_min             =  -1.9296153578431E-04
(PID.TID 0000.0001) %MON dynstat_wvel_mean            =  -2.5372824093478E-22
(PID.TID 0000.0001) %MON dynstat_wvel_sd              =   1.7076859949379E-05
(PID.TID 0000.0001) %MON dynstat_wvel_del2            =   1.8874142513415E-07
(PID.TID 0000.0001) %MON dynstat_theta_max            =   2.9953155517560E+01
(PID.TID 0000.0001) %MON dynstat_theta_min            =  -2.0083921718073E+00
(PID.TID 0000.0001) %MON dynstat_theta_mean           =   3.6408854598649E+00
(PID.TID 0000.0001) %MON dynstat_theta_sd             =   4.4171182614748E+00
(PID.TID 0000.0001) %MON dynstat_theta_del2           =   4.8673847272430E-03
(PID.TID 0000.0001) %MON dynstat_salt_max             =   3.7468224728852E+01
(PID.TID 0000.0001) %MON dynstat_salt_min             =   2.9845726219715E+01
(PID.TID 0000.0001) %MON dynstat_salt_mean            =   3.4737944786694E+01
(PID.TID 0000.0001) %MON dynstat_salt_sd              =   2.9616721975567E-01
(PID.TID 0000.0001) %MON dynstat_salt_del2            =   1.0009681713037E-03
(PID.TID 0000.0001) %MON dynstat_sst_max              =   2.9953155517560E+01
(PID.TID 0000.0001) %MON dynstat_sst_min              =  -2.0083921718073E+00
(PID.TID 0000.0001) %MON dynstat_sst_mean             =   1.8742292557043E+01
(PID.TID 0000.0001) %MON dynstat_sst_sd               =   9.0562710260280E+00
(PID.TID 0000.0001) %MON dynstat_sst_del2             =   2.6563132843160E-02
(PID.TID 0000.0001) %MON dynstat_sss_max              =   3.7450759721571E+01
(PID.TID 0000.0001) %MON dynstat_sss_min              =   2.9845726219715E+01
(PID.TID 0000.0001) %MON dynstat_sss_mean             =   3.4867828654033E+01
(PID.TID 0000.0001) %MON dynstat_sss_sd               =   9.7465966376391E-01
(PID.TID 0000.0001) %MON dynstat_sss_del2             =   7.8873038884275E-03
(PID.TID 0000.0001) %MON forcing_qnet_max             =   4.0178457641602E+02
(PID.TID 0000.0001) %MON forcing_qnet_min             =  -1.7714531555176E+02
(PID.TID 0000.0001) %MON forcing_qnet_mean            =  -1.5493615992204E+01
(PID.TID 0000.0001) %MON forcing_qnet_sd              =   9.7185485181804E+01
(PID.TID 0000.0001) %MON forcing_qnet_del2            =   9.8140782401500E-01
(PID.TID 0000.0001) %MON forcing_qsw_max              =   0.0000000000000E+00
(PID.TID 0000.0001) %MON forcing_qsw_min              =   0.0000000000000E+00
(PID.TID 0000.0001) %MON forcing_qsw_mean             =   0.0000000000000E+00
(PID.TID 0000.0001) %MON forcing_qsw_sd               =   0.0000000000000E+00
(PID.TID 0000.0001) %MON forcing_qsw_del2             =   0.0000000000000E+00
(PID.TID 0000.0001) %MON forcing_empmr_max            =   7.8405162184936E-05
(PID.TID 0000.0001) %MON forcing_empmr_min            =  -7.7111687346587E-05
(PID.TID 0000.0001) %MON forcing_empmr_mean           =   9.3112582923013E-07
(PID.TID 0000.0001) %MON forcing_empmr_sd             =   2.8276845244070E-05
(PID.TID 0000.0001) %MON forcing_empmr_del2           =   3.5648229163624E-07
(PID.TID 0000.0001) %MON forcing_fu_max               =   2.7966668009758E-01
(PID.TID 0000.0001) %MON forcing_fu_min               =  -1.8585372269154E-01
(PID.TID 0000.0001) %MON forcing_fu_mean              =   1.6653337738194E-02
(PID.TID 0000.0001) %MON forcing_fu_sd                =   8.9968991920605E-02
(PID.TID 0000.0001) %MON forcing_fu_del2              =   6.6906282054806E-04
(PID.TID 0000.0001) %MON forcing_fv_max               =   1.9461995661259E-01
(PID.TID 0000.0001) %MON forcing_fv_min               =  -1.6624130308628E-01
(PID.TID 0000.0001) %MON forcing_fv_mean              =  -6.0420286200872E-03
(PID.TID 0000.0001) %MON forcing_fv_sd                =   4.5317127835513E-02
(PID.TID 0000.0001) %MON forcing_fv_del2              =   4.6354194610910E-04
(PID.TID 0000.0001) %MON trAdv_CFL_u_max              =   4.6406883454825E-02
(PID.TID 0000.0001) %MON trAdv_CFL_v_max              =   2.5596780175015E-02
(PID.TID 0000.0001) %MON trAdv_CFL_w_max              =   6.6567845393290E-02
(PID.TID 0000.0001) %MON advcfl_uvel_max              =   4.9950768685667E-02
(PID.TID 0000.0001) %MON advcfl_vvel_max              =   2.4564607257136E-02
(PID.TID 0000.0001) %MON advcfl_wvel_max              =   6.5757978399036E-02
(PID.TID 0000.0001) %MON advcfl_W_hf_max              =   7.7413921379273E-02
(PID.TID 0000.0001) %MON pe_b_mean                    =   4.0679713817092E-04
(PID.TID 0000.0001) %MON ke_max                       =   1.5391570252250E-02
(PID.TID 0000.0001) %MON ke_mean                      =   1.8578465520949E-04
(PID.TID 0000.0001) %MON ke_vol                       =   1.3226782436723E+18
(PID.TID 0000.0001) %MON vort_r_min                   =  -4.9749772216483E-07
(PID.TID 0000.0001) %MON vort_r_max                   =   3.9745207404793E-07
(PID.TID 0000.0001) %MON vort_a_mean                  =  -2.5274807417401E-05
(PID.TID 0000.0001) %MON vort_a_sd                    =   7.3604450043644E-05
(PID.TID 0000.0001) %MON vort_p_mean                  =  -3.1845655824608E-05
(PID.TID 0000.0001) %MON vort_p_sd                    =   1.3162768261062E-04
(PID.TID 0000.0001) %MON surfExpan_theta_mean         =  -7.2015774539440E-08
(PID.TID 0000.0001) %MON surfExpan_salt_mean          =  -1.2327925866078E-07
(PID.TID 0000.0001) // =======================================================
(PID.TID 0000.0001) // End MONITOR dynamic field statistics
(PID.TID 0000.0001) // =======================================================
 EXTERNAL_FIELDS_LOAD,        28 : iP,iLd,i0,i1=    1    2    1    2 ; Wght=  0.5666666667  0.4333333333
 EXTERNAL_FIELDS_LOAD: (fu0,1),fu,fv= -3.5633E-02 -1.4435E-02 -2.6447E-02 -4.0088E-02
 EXTERNAL_FIELDS_LOAD: SST,SSS,Q,E-P=  3.1264E-01  3.4587E+01  2.5481E+02  1.0224E-05
DEBUG_STATS_RL:          Uvel (THERMODYNAMICS)  min= -1.76960431297652E-01
DEBUG_STATS_RL:          Uvel (THERMODYNAMICS)  max=  1.51120683780165E-01
DEBUG_STATS_RL:          Uvel (THERMODYNAMICS) mean=  3.11324279410105E-03
DEBUG_STATS_RL:          Uvel (THERMODYNAMICS) S.D.=  2.25631024985567E-02
DEBUG_STATS_RL:          Vvel (THERMODYNAMICS)  min= -1.26436618922849E-01
DEBUG_STATS_RL:          Vvel (THERMODYNAMICS)  max=  1.26138023054095E-01
DEBUG_STATS_RL:          Vvel (THERMODYNAMICS) mean=  9.43298819171124E-04
DEBUG_STATS_RL:          Vvel (THERMODYNAMICS) S.D.=  1.55688207112169E-02
DEBUG_STATS_RL:          Wvel (THERMODYNAMICS)  min= -1.92961535784312E-04
DEBUG_STATS_RL:          Wvel (THERMODYNAMICS)  max=  1.57037945859590E-04
DEBUG_STATS_RL:          Wvel (THERMODYNAMICS) mean=  1.06598176500811E-07
DEBUG_STATS_RL:          Wvel (THERMODYNAMICS) S.D.=  1.54546353011179E-05
DEBUG_STATS_RL:         Theta (THERMODYNAMICS)  min= -2.00760352451675E+00
DEBUG_STATS_RL:         Theta (THERMODYNAMICS)  max=  2.99696050532019E+01
DEBUG_STATS_RL:         Theta (THERMODYNAMICS) mean=  3.22872112071980E+00
DEBUG_STATS_RL:         Theta (THERMODYNAMICS) S.D.=  5.85827523333518E+00
DEBUG_STATS_RL:          Salt (THERMODYNAMICS)  min=  2.00000000000000E-02
DEBUG_STATS_RL:          Salt (THERMODYNAMICS)  max=  3.74693233791482E+01
DEBUG_STATS_RL:          Salt (THERMODYNAMICS) mean=  1.88649503860434E+01
DEBUG_STATS_RL:          Salt (THERMODYNAMICS) S.D.=  1.73004526147802E+01
DEBUG_STATS_RL:         GtNm1 (THERMODYNAMICS)  min= -4.12531333437192E-06
DEBUG_STATS_RL:         GtNm1 (THERMODYNAMICS)  max=  2.55283386351315E-06
DEBUG_STATS_RL:         GtNm1 (THERMODYNAMICS) mean=  2.37635189541465E-09
DEBUG_STATS_RL:         GtNm1 (THERMODYNAMICS) S.D.=  2.27529794674078E-07
DEBUG_STATS_RL:         GsNm1 (THERMODYNAMICS)  min= -8.63496685735649E-07
DEBUG_STATS_RL:         GsNm1 (THERMODYNAMICS)  max=  6.62157029627390E-07
DEBUG_STATS_RL:         GsNm1 (THERMODYNAMICS) mean= -6.41478165826886E-10
DEBUG_STATS_RL:         GsNm1 (THERMODYNAMICS) S.D.=  2.15712685084507E-08
DEBUG_STATS_RL:                EtaN (DYNAMICS)  min= -1.97625047200288E+00
DEBUG_STATS_RL:                EtaN (DYNAMICS)  max=  1.01983079475463E+00
DEBUG_STATS_RL:                EtaN (DYNAMICS) mean= -1.46744125751914E-01
DEBUG_STATS_RL:                EtaN (DYNAMICS) S.D.=  6.64802235933147E-01
DEBUG_STATS_RL:                Uvel (DYNAMICS)  min= -1.76960431297652E-01
DEBUG_STATS_RL:                Uvel (DYNAMICS)  max=  1.51120683780165E-01
DEBUG_STATS_RL:                Uvel (DYNAMICS) mean=  3.11324279410105E-03
DEBUG_STATS_RL:                Uvel (DYNAMICS) S.D.=  2.25631024985567E-02
DEBUG_STATS_RL:                Vvel (DYNAMICS)  min= -1.26436618922849E-01
DEBUG_STATS_RL:                Vvel (DYNAMICS)  max=  1.26138023054095E-01
DEBUG_STATS_RL:                Vvel (DYNAMICS) mean=  9.43298819171124E-04
DEBUG_STATS_RL:                Vvel (DYNAMICS) S.D.=  1.55688207112169E-02
DEBUG_STATS_RL:                Wvel (DYNAMICS)  min= -1.92961535784312E-04
DEBUG_STATS_RL:                Wvel (DYNAMICS)  max=  1.57037945859590E-04
DEBUG_STATS_RL:                Wvel (DYNAMICS) mean=  1.06598176500811E-07
DEBUG_STATS_RL:                Wvel (DYNAMICS) S.D.=  1.54546353011179E-05
DEBUG_STATS_RL:               Theta (DYNAMICS)  min= -2.00760352451675E+00
DEBUG_STATS_RL:               Theta (DYNAMICS)  max=  2.99696050532019E+01
DEBUG_STATS_RL:               Theta (DYNAMICS) mean=  3.22872112071980E+00
DEBUG_STATS_RL:               Theta (DYNAMICS) S.D.=  5.85827523333518E+00
DEBUG_STATS_RL:                Salt (DYNAMICS)  min=  2.00000000000000E-02
DEBUG_STATS_RL:                Salt (DYNAMICS)  max=  3.74693233791482E+01
DEBUG_STATS_RL:                Salt (DYNAMICS) mean=  1.88649503860434E+01
DEBUG_STATS_RL:                Salt (DYNAMICS) S.D.=  1.73004526147802E+01
DEBUG_STATS_RL:                  Gu (DYNAMICS)  min= -1.80748637758522E-01
DEBUG_STATS_RL:                  Gu (DYNAMICS)  max=  1.49858945158497E-01
DEBUG_STATS_RL:                  Gu (DYNAMICS) mean=  3.57908157624878E-03
DEBUG_STATS_RL:                  Gu (DYNAMICS) S.D.=  2.34833160888511E-02
DEBUG_STATS_RL:                  Gv (DYNAMICS)  min= -1.32053640930500E-01
DEBUG_STATS_RL:                  Gv (DYNAMICS)  max=  1.18406386607181E-01
DEBUG_STATS_RL:                  Gv (DYNAMICS) mean=  3.12345799755834E-03
DEBUG_STATS_RL:                  Gv (DYNAMICS) S.D.=  1.62961915851501E-02
DEBUG_STATS_RL:               GuNm1 (DYNAMICS)  min= -7.67584899563518E-06
DEBUG_STATS_RL:               GuNm1 (DYNAMICS)  max=  7.77794274641120E-06
DEBUG_STATS_RL:               GuNm1 (DYNAMICS) mean= -1.34622316667829E-08
DEBUG_STATS_RL:               GuNm1 (DYNAMICS) S.D.=  1.20718339279608E-06
DEBUG_STATS_RL:               GvNm1 (DYNAMICS)  min= -1.07621765593129E-05
DEBUG_STATS_RL:               GvNm1 (DYNAMICS)  max=  1.67714774804325E-05
DEBUG_STATS_RL:               GvNm1 (DYNAMICS) mean=  7.69678515174390E-07
DEBUG_STATS_RL:               GvNm1 (DYNAMICS) S.D.=  2.66097151198917E-06
DEBUG_STATS_RL:               GtNm1 (DYNAMICS)  min= -4.12531333437192E-06
DEBUG_STATS_RL:               GtNm1 (DYNAMICS)  max=  2.55283386351315E-06
DEBUG_STATS_RL:               GtNm1 (DYNAMICS) mean=  2.37635189541465E-09
DEBUG_STATS_RL:               GtNm1 (DYNAMICS) S.D.=  2.27529794674078E-07
DEBUG_STATS_RL:               GsNm1 (DYNAMICS)  min= -8.63496685735649E-07
DEBUG_STATS_RL:               GsNm1 (DYNAMICS)  max=  6.62157029627390E-07
DEBUG_STATS_RL:               GsNm1 (DYNAMICS) mean= -6.41478165826886E-10
DEBUG_STATS_RL:               GsNm1 (DYNAMICS) S.D.=  2.15712685084507E-08
DEBUG_STATS_RL:    cg2d_b (SOLVE_FOR_PRESSURE)  min= -2.21419210604066E+04
DEBUG_STATS_RL:    cg2d_b (SOLVE_FOR_PRESSURE)  max=  1.99767723079948E+04
DEBUG_STATS_RL:    cg2d_b (SOLVE_FOR_PRESSURE) mean=  2.05259330788380E+00
DEBUG_STATS_RL:    cg2d_b (SOLVE_FOR_PRESSURE) S.D.=  3.92383131249948E+03
 cg2d: Sum(rhs),rhsMax =   2.14604392039470E-01  1.45434065859626E+00
(PID.TID 0000.0001)  cg2d: iter=     1 ; resid.=  2.65600079553802E-01
(PID.TID 0000.0001)  cg2d: iter=     2 ; resid.=  2.34788418882615E-01
(PID.TID 0000.0001)  cg2d: iter=     3 ; resid.=  2.05087783938822E-01
(PID.TID 0000.0001)  cg2d: iter=     4 ; resid.=  1.67414481918681E-01
(PID.TID 0000.0001)  cg2d: iter=     5 ; resid.=  1.36574398685618E-01
(PID.TID 0000.0001)  cg2d: iter=     6 ; resid.=  1.17743076820208E-01
(PID.TID 0000.0001)  cg2d: iter=     7 ; resid.=  9.97399342196712E-02
(PID.TID 0000.0001)  cg2d: iter=     8 ; resid.=  7.89525277097869E-02
(PID.TID 0000.0001)  cg2d: iter=     9 ; resid.=  6.48858460999250E-02
(PID.TID 0000.0001)  cg2d: iter=    10 ; resid.=  5.83865296924899E-02
(PID.TID 0000.0001)  cg2d: iter=    11 ; resid.=  5.26876751387825E-02
(PID.TID 0000.0001)  cg2d: iter=    12 ; resid.=  4.44419603797863E-02
(PID.TID 0000.0001)  cg2d: iter=    13 ; resid.=  3.56258099140854E-02
(PID.TID 0000.0001)  cg2d: iter=    14 ; resid.=  2.64902597223124E-02
(PID.TID 0000.0001)  cg2d: iter=    15 ; resid.=  2.10602227164876E-02
(PID.TID 0000.0001)  cg2d: iter=    16 ; resid.=  1.85472023767192E-02
(PID.TID 0000.0001)  cg2d: iter=    17 ; resid.=  1.54759396078434E-02
(PID.TID 0000.0001)  cg2d: iter=    18 ; resid.=  1.32168490531478E-02
(PID.TID 0000.0001)  cg2d: iter=    19 ; resid.=  1.07235692843272E-02
(PID.TID 0000.0001)  cg2d: iter=    20 ; resid.=  8.96644867848631E-03
(PID.TID 0000.0001)  cg2d: iter=    21 ; resid.=  7.76159314405754E-03
(PID.TID 0000.0001)  cg2d: iter=    22 ; resid.=  7.04167560869553E-03
(PID.TID 0000.0001)  cg2d: iter=    23 ; resid.=  6.12405853370480E-03
(PID.TID 0000.0001)  cg2d: iter=    24 ; resid.=  5.01160544703014E-03
(PID.TID 0000.0001)  cg2d: iter=    25 ; resid.=  3.68442367983651E-03
(PID.TID 0000.0001)  cg2d: iter=    26 ; resid.=  3.09413702829411E-03
(PID.TID 0000.0001)  cg2d: iter=    27 ; resid.=  2.62412499323175E-03
(PID.TID 0000.0001)  cg2d: iter=    28 ; resid.=  2.09255462713855E-03
(PID.TID 0000.0001)  cg2d: iter=    29 ; resid.=  1.64904495980772E-03
(PID.TID 0000.0001)  cg2d: iter=    30 ; resid.=  1.30838154667151E-03
(PID.TID 0000.0001)  cg2d: iter=    31 ; resid.=  1.07824904019387E-03
(PID.TID 0000.0001)  cg2d: iter=    32 ; resid.=  8.78224032163095E-04
(PID.TID 0000.0001)  cg2d: iter=    33 ; resid.=  7.04793395941049E-04
(PID.TID 0000.0001)  cg2d: iter=    34 ; resid.=  5.82011632497857E-04
(PID.TID 0000.0001)  cg2d: iter=    35 ; resid.=  4.64344601337899E-04
(PID.TID 0000.0001)  cg2d: iter=    36 ; resid.=  3.81585277908014E-04
(PID.TID 0000.0001)  cg2d: iter=    37 ; resid.=  3.33867153096568E-04
(PID.TID 0000.0001)  cg2d: iter=    38 ; resid.=  2.85549793067136E-04
(PID.TID 0000.0001)  cg2d: iter=    39 ; resid.=  2.21397559653738E-04
(PID.TID 0000.0001)  cg2d: iter=    40 ; resid.=  1.77820113823449E-04
(PID.TID 0000.0001)  cg2d: iter=    41 ; resid.=  1.52601383497637E-04
(PID.TID 0000.0001)  cg2d: iter=    42 ; resid.=  1.39043320116899E-04
(PID.TID 0000.0001)  cg2d: iter=    43 ; resid.=  1.16380665646498E-04
(PID.TID 0000.0001)  cg2d: iter=    44 ; resid.=  9.88061202439462E-05
(PID.TID 0000.0001)  cg2d: iter=    45 ; resid.=  8.87831203365365E-05
(PID.TID 0000.0001)  cg2d: iter=    46 ; resid.=  7.33063278364180E-05
(PID.TID 0000.0001)  cg2d: iter=    47 ; resid.=  6.38765626326996E-05
(PID.TID 0000.0001)  cg2d: iter=    48 ; resid.=  5.31976129493945E-05
(PID.TID 0000.0001)  cg2d: iter=    49 ; resid.=  4.04740405551155E-05
(PID.TID 0000.0001)  cg2d: iter=    50 ; resid.=  3.13255392578858E-05
(PID.TID 0000.0001)  cg2d: iter=    51 ; resid.=  2.67367397160283E-05
(PID.TID 0000.0001)  cg2d: iter=    52 ; resid.=  2.28969524624074E-05
(PID.TID 0000.0001)  cg2d: iter=    53 ; resid.=  1.95132732997778E-05
(PID.TID 0000.0001)  cg2d: iter=    54 ; resid.=  1.56825453112561E-05
(PID.TID 0000.0001)  cg2d: iter=    55 ; resid.=  1.41581181915105E-05
(PID.TID 0000.0001)  cg2d: iter=    56 ; resid.=  1.34384003579871E-05
(PID.TID 0000.0001)  cg2d: iter=    57 ; resid.=  1.12168281613242E-05
(PID.TID 0000.0001)  cg2d: iter=    58 ; resid.=  9.46614139962251E-06
(PID.TID 0000.0001)  cg2d: iter=    59 ; resid.=  7.68018605170692E-06
(PID.TID 0000.0001)  cg2d: iter=    60 ; resid.=  6.29748145328279E-06
(PID.TID 0000.0001)  cg2d: iter=    61 ; resid.=  5.28499345733662E-06
(PID.TID 0000.0001)  cg2d: iter=    62 ; resid.=  4.56886157986736E-06
(PID.TID 0000.0001)  cg2d: iter=    63 ; resid.=  3.44459960581806E-06
(PID.TID 0000.0001)  cg2d: iter=    64 ; resid.=  2.85741562079110E-06
(PID.TID 0000.0001)  cg2d: iter=    65 ; resid.=  2.16874963048773E-06
(PID.TID 0000.0001)  cg2d: iter=    66 ; resid.=  1.72374248338709E-06
(PID.TID 0000.0001)  cg2d: iter=    67 ; resid.=  1.53905509128442E-06
(PID.TID 0000.0001)  cg2d: iter=    68 ; resid.=  1.31631558345544E-06
(PID.TID 0000.0001)  cg2d: iter=    69 ; resid.=  1.08622980997658E-06
(PID.TID 0000.0001)  cg2d: iter=    70 ; resid.=  9.36476878876229E-07
(PID.TID 0000.0001)  cg2d: iter=    71 ; resid.=  7.66024176687954E-07
(PID.TID 0000.0001)  cg2d: iter=    72 ; resid.=  6.51602334072773E-07
(PID.TID 0000.0001)  cg2d: iter=    73 ; resid.=  5.58586849283431E-07
(PID.TID 0000.0001)  cg2d: iter=    74 ; resid.=  4.68113990098940E-07
(PID.TID 0000.0001)  cg2d: iter=    75 ; resid.=  3.59064510608180E-07
(PID.TID 0000.0001)  cg2d: iter=    76 ; resid.=  3.05531896388677E-07
(PID.TID 0000.0001)  cg2d: iter=    77 ; resid.=  2.62504740067626E-07
(PID.TID 0000.0001)  cg2d: iter=    78 ; resid.=  2.12318605683128E-07
(PID.TID 0000.0001)  cg2d: iter=    79 ; resid.=  1.86202998222390E-07
(PID.TID 0000.0001)  cg2d: iter=    80 ; resid.=  1.49848149607953E-07
(PID.TID 0000.0001)  cg2d: iter=    81 ; resid.=  1.32198939182230E-07
(PID.TID 0000.0001)  cg2d: iter=    82 ; resid.=  1.05088454057056E-07
(PID.TID 0000.0001)  cg2d: iter=    83 ; resid.=  7.94759898353616E-08
(PID.TID 0000.0001)  cg2d: iter=    84 ; resid.=  6.06342013621179E-08
(PID.TID 0000.0001)  cg2d: iter=    85 ; resid.=  4.50400896059863E-08
(PID.TID 0000.0001)  cg2d: iter=    86 ; resid.=  3.20206618649953E-08
(PID.TID 0000.0001)  cg2d: iter=    87 ; resid.=  2.35430063532670E-08
(PID.TID 0000.0001)  cg2d: iter=    88 ; resid.=  1.90785182913606E-08
(PID.TID 0000.0001)  cg2d: iter=    89 ; resid.=  1.58629263267140E-08
(PID.TID 0000.0001)  cg2d: iter=    90 ; resid.=  1.28641673768893E-08
(PID.TID 0000.0001)  cg2d: iter=    91 ; resid.=  9.96089294459103E-09
(PID.TID 0000.0001)  cg2d: iter=    92 ; resid.=  7.17363233907553E-09
(PID.TID 0000.0001)  cg2d: iter=    93 ; resid.=  5.54533675787465E-09
(PID.TID 0000.0001)  cg2d: iter=    94 ; resid.=  4.32508630037890E-09
(PID.TID 0000.0001)  cg2d: iter=    95 ; resid.=  3.55702432203132E-09
(PID.TID 0000.0001)  cg2d: iter=    96 ; resid.=  2.65539464430450E-09
(PID.TID 0000.0001)  cg2d: iter=    97 ; resid.=  2.14117481446843E-09
(PID.TID 0000.0001)  cg2d: iter=    98 ; resid.=  1.78812906791959E-09
(PID.TID 0000.0001)  cg2d: iter=    99 ; resid.=  1.49075351052805E-09
(PID.TID 0000.0001)  cg2d: iter=   100 ; resid.=  1.20717048595020E-09
(PID.TID 0000.0001)  cg2d: iter=   101 ; resid.=  9.58396855883497E-10
(PID.TID 0000.0001)  cg2d: iter=   102 ; resid.=  7.68905500466950E-10
(PID.TID 0000.0001)  cg2d: iter=   103 ; resid.=  5.79518872588585E-10
(PID.TID 0000.0001)  cg2d: iter=   104 ; resid.=  4.82387909704907E-10
(PID.TID 0000.0001)  cg2d: iter=   105 ; resid.=  4.01235596130408E-10
(PID.TID 0000.0001)  cg2d: iter=   106 ; resid.=  3.61497647438207E-10
(PID.TID 0000.0001)  cg2d: iter=   107 ; resid.=  3.33239498833772E-10
(PID.TID 0000.0001)  cg2d: iter=   108 ; resid.=  2.68891462664749E-10
(PID.TID 0000.0001)  cg2d: iter=   109 ; resid.=  2.13252090062801E-10
(PID.TID 0000.0001)  cg2d: iter=   110 ; resid.=  1.62390183855411E-10
(PID.TID 0000.0001)  cg2d: iter=   111 ; resid.=  1.17708834331392E-10
(PID.TID 0000.0001)  cg2d: iter=   112 ; resid.=  8.77748855001772E-11
(PID.TID 0000.0001)  cg2d: iter=   113 ; resid.=  6.14805695704249E-11
(PID.TID 0000.0001)  cg2d: iter=   114 ; resid.=  4.59236289528752E-11
(PID.TID 0000.0001)  cg2d: iter=   115 ; resid.=  3.19003680932694E-11
(PID.TID 0000.0001)  cg2d: iter=   116 ; resid.=  2.30002369232742E-11
(PID.TID 0000.0001)  cg2d: iter=   117 ; resid.=  1.68292321685283E-11
(PID.TID 0000.0001)  cg2d: iter=   118 ; resid.=  1.23957298129095E-11
(PID.TID 0000.0001)  cg2d: iter=   119 ; resid.=  9.50773611716096E-12
(PID.TID 0000.0001)  cg2d: iter=   120 ; resid.=  7.23001553546267E-12
(PID.TID 0000.0001)  cg2d: iter=   121 ; resid.=  5.31360249450131E-12
(PID.TID 0000.0001)  cg2d: iter=   122 ; resid.=  3.86568015352903E-12
(PID.TID 0000.0001)  cg2d: iter=   123 ; resid.=  3.04614093383904E-12
(PID.TID 0000.0001)  cg2d: iter=   124 ; resid.=  2.69205044054320E-12
(PID.TID 0000.0001)  cg2d: iter=   125 ; resid.=  2.13295263286902E-12
(PID.TID 0000.0001)  cg2d: iter=   126 ; resid.=  1.43868299701762E-12
(PID.TID 0000.0001)  cg2d: iter=   127 ; resid.=  9.79018366071703E-13
(PID.TID 0000.0001)  cg2d: iter=   128 ; resid.=  7.31092573122958E-13
(PID.TID 0000.0001)  cg2d: iter=   129 ; resid.=  5.42516377979237E-13
(PID.TID 0000.0001)  cg2d: iter=   130 ; resid.=  4.15558246191058E-13
(PID.TID 0000.0001)  cg2d: iter=   131 ; resid.=  3.06959754959747E-13
(PID.TID 0000.0001)  cg2d: iter=   132 ; resid.=  2.14071237634214E-13
(PID.TID 0000.0001)  cg2d: iter=   133 ; resid.=  1.63491439864240E-13
(PID.TID 0000.0001)  cg2d: iter=   134 ; resid.=  1.25074121214485E-13
(PID.TID 0000.0001)  cg2d: iter=   135 ; resid.=  9.74853287847472E-14
DEBUG_STATS_RL:    cg2d_x (SOLVE_FOR_PRESSURE)  min= -1.90923639613691E+01
DEBUG_STATS_RL:    cg2d_x (SOLVE_FOR_PRESSURE)  max=  1.01367769305377E+01
DEBUG_STATS_RL:    cg2d_x (SOLVE_FOR_PRESSURE) mean= -1.44801230789328E+00
DEBUG_STATS_RL:    cg2d_x (SOLVE_FOR_PRESSURE) S.D.=  6.49244988173630E+00
(PID.TID 0000.0001)      cg2d_init_res =   5.12286560503012E-01
(PID.TID 0000.0001)      cg2d_iters(min,last) =      -1     135
(PID.TID 0000.0001)      cg2d_last_res =   9.74853287847472E-14
(PID.TID 0000.0001) // =======================================================
(PID.TID 0000.0001) // Begin MONITOR dynamic field statistics
(PID.TID 0000.0001) // =======================================================
(PID.TID 0000.0001) %MON time_tsnumber                =                    29
(PID.TID 0000.0001) %MON time_secondsf                =   2.5056000000000E+06
(PID.TID 0000.0001) %MON dynstat_eta_max              =   1.0333105943464E+00
(PID.TID 0000.0001) %MON dynstat_eta_min              =  -1.9462144710876E+00
(PID.TID 0000.0001) %MON dynstat_eta_mean             =  -2.1416266036097E-03
(PID.TID 0000.0001) %MON dynstat_eta_sd               =   5.6167125472478E-01
(PID.TID 0000.0001) %MON dynstat_eta_del2             =   2.1437023210584E-03
(PID.TID 0000.0001) %MON dynstat_uvel_max             =   1.6075892907045E-01
(PID.TID 0000.0001) %MON dynstat_uvel_min             =  -1.7931133776507E-01
(PID.TID 0000.0001) %MON dynstat_uvel_mean            =   1.8083596058234E-03
(PID.TID 0000.0001) %MON dynstat_uvel_sd              =   1.7386083057059E-02
(PID.TID 0000.0001) %MON dynstat_uvel_del2            =   9.2188042987552E-05
(PID.TID 0000.0001) %MON dynstat_vvel_max             =   1.2694621235892E-01
(PID.TID 0000.0001) %MON dynstat_vvel_min             =  -1.2531752757677E-01
(PID.TID 0000.0001) %MON dynstat_vvel_mean            =  -2.0150341942162E-05
(PID.TID 0000.0001) %MON dynstat_vvel_sd              =   1.0574330511638E-02
(PID.TID 0000.0001) %MON dynstat_vvel_del2            =   8.5285671366489E-05
(PID.TID 0000.0001) %MON dynstat_wvel_max             =   1.6176852946503E-04
(PID.TID 0000.0001) %MON dynstat_wvel_min             =  -2.0045792445277E-04
(PID.TID 0000.0001) %MON dynstat_wvel_mean            =  -1.2865320045229E-22
(PID.TID 0000.0001) %MON dynstat_wvel_sd              =   1.7073193407736E-05
(PID.TID 0000.0001) %MON dynstat_wvel_del2            =   1.9139477532332E-07
(PID.TID 0000.0001) %MON dynstat_theta_max            =   2.9969605053202E+01
(PID.TID 0000.0001) %MON dynstat_theta_min            =  -2.0076035245167E+00
(PID.TID 0000.0001) %MON dynstat_theta_mean           =   3.6409707728176E+00
(PID.TID 0000.0001) %MON dynstat_theta_sd             =   4.4172769740053E+00
(PID.TID 0000.0001) %MON dynstat_theta_del2           =   4.8658032087645E-03
(PID.TID 0000.0001) %MON dynstat_salt_max             =   3.7469323379148E+01
(PID.TID 0000.0001) %MON dynstat_salt_min             =   2.9848054336985E+01
(PID.TID 0000.0001) %MON dynstat_salt_mean            =   3.4737949296734E+01
(PID.TID 0000.0001) %MON dynstat_salt_sd              =   2.9617725352461E-01
(PID.TID 0000.0001) %MON dynstat_salt_del2            =   9.9970065981312E-04
(PID.TID 0000.0001) %MON dynstat_sst_max              =   2.9969605053202E+01
(PID.TID 0000.0001) %MON dynstat_sst_min              =  -2.0076035245167E+00
(PID.TID 0000.0001) %MON dynstat_sst_mean             =   1.8748500607893E+01
(PID.TID 0000.0001) %MON dynstat_sst_sd               =   9.0541955330831E+00
(PID.TID 0000.0001) %MON dynstat_sst_del2             =   2.6636631967950E-02
(PID.TID 0000.0001) %MON dynstat_sss_max              =   3.7450950718724E+01
(PID.TID 0000.0001) %MON dynstat_sss_min              =   2.9848054336985E+01
(PID.TID 0000.0001) %MON dynstat_sss_mean             =   3.4867202559084E+01
(PID.TID 0000.0001) %MON dynstat_sss_sd               =   9.7489799194696E-01
(PID.TID 0000.0001) %MON dynstat_sss_del2             =   7.8843940689042E-03
(PID.TID 0000.0001) %MON forcing_qnet_max             =   3.9846548970540E+02
(PID.TID 0000.0001) %MON forcing_qnet_min             =  -1.7690579630534E+02
(PID.TID 0000.0001) %MON forcing_qnet_mean            =  -1.5408706824800E+01
(PID.TID 0000.0001) %MON forcing_qnet_sd              =   9.6156770907790E+01
(PID.TID 0000.0001) %MON forcing_qnet_del2            =   9.7855893917677E-01
(PID.TID 0000.0001) %MON forcing_qsw_max              =   0.0000000000000E+00
(PID.TID 0000.0001) %MON forcing_qsw_min              =   0.0000000000000E+00
(PID.TID 0000.0001) %MON forcing_qsw_mean             =   0.0000000000000E+00
(PID.TID 0000.0001) %MON forcing_qsw_sd               =   0.0000000000000E+00
(PID.TID 0000.0001) %MON forcing_qsw_del2             =   0.0000000000000E+00
(PID.TID 0000.0001) %MON forcing_empmr_max            =   7.8091072452935E-05
(PID.TID 0000.0001) %MON forcing_empmr_min            =  -7.7191331608143E-05
(PID.TID 0000.0001) %MON forcing_empmr_mean           =   9.3180822649008E-07
(PID.TID 0000.0001) %MON forcing_empmr_sd             =   2.8244821350011E-05
(PID.TID 0000.0001) %MON forcing_empmr_del2           =   3.5593995327088E-07
(PID.TID 0000.0001) %MON forcing_fu_max               =   2.8105383813381E-01
(PID.TID 0000.0001) %MON forcing_fu_min               =  -1.8751364648342E-01
(PID.TID 0000.0001) %MON forcing_fu_mean              =   1.6707637953663E-02
(PID.TID 0000.0001) %MON forcing_fu_sd                =   8.9991600126903E-02
(PID.TID 0000.0001) %MON forcing_fu_del2              =   6.6831144155872E-04
(PID.TID 0000.0001) %MON forcing_fv_max               =   1.9141846299171E-01
(PID.TID 0000.0001) %MON forcing_fv_min               =  -1.6525000333786E-01
(PID.TID 0000.0001) %MON forcing_fv_mean              =  -6.1072895268024E-03
(PID.TID 0000.0001) %MON forcing_fv_sd                =   4.5167602989543E-02
(PID.TID 0000.0001) %MON forcing_fv_del2              =   4.6381451541736E-04
(PID.TID 0000.0001) %MON trAdv_CFL_u_max              =   4.9960914044041E-02
(PID.TID 0000.0001) %MON trAdv_CFL_v_max              =   2.5132997862578E-02
(PID.TID 0000.0001) %MON trAdv_CFL_w_max              =   7.4410343977856E-02
(PID.TID 0000.0001) %MON advcfl_uvel_max              =   5.3136552054217E-02
(PID.TID 0000.0001) %MON advcfl_vvel_max              =   2.4663613088868E-02
(PID.TID 0000.0001) %MON advcfl_wvel_max              =   7.0673979076319E-02
(PID.TID 0000.0001) %MON advcfl_W_hf_max              =   7.9973186849519E-02
(PID.TID 0000.0001) %MON pe_b_mean                    =   4.0369364274098E-04
(PID.TID 0000.0001) %MON ke_max                       =   1.5770923924404E-02
(PID.TID 0000.0001) %MON ke_mean                      =   1.8901368916840E-04
(PID.TID 0000.0001) %MON ke_vol                       =   1.3226782436723E+18
(PID.TID 0000.0001) %MON vort_r_min                   =  -4.9180761769638E-07
(PID.TID 0000.0001) %MON vort_r_max                   =   4.2214330138017E-07
(PID.TID 0000.0001) %MON vort_a_mean                  =  -2.5274807645093E-05
(PID.TID 0000.0001) %MON vort_a_sd                    =   7.3604515511431E-05
(PID.TID 0000.0001) %MON vort_p_mean                  =  -3.1845656111496E-05
(PID.TID 0000.0001) %MON vort_p_sd                    =   1.3162779236429E-04
(PID.TID 0000.0001) %MON surfExpan_theta_mean         =   9.3903817549359E-08
(PID.TID 0000.0001) %MON surfExpan_salt_mean          =  -1.7127015725355E-07
(PID.TID 0000.0001) // =======================================================
(PID.TID 0000.0001) // End MONITOR dynamic field statistics
(PID.TID 0000.0001) // =======================================================
 EXTERNAL_FIELDS_LOAD,        29 : iP,iLd,i0,i1=    1    2    1    2 ; Wght=  0.5333333333  0.4666666667
 EXTERNAL_FIELDS_LOAD: (fu0,1),fu,fv= -3.5633E-02 -1.4435E-02 -2.5740E-02 -3.8767E-02
 EXTERNAL_FIELDS_LOAD: SST,SSS,Q,E-P=  2.6296E-01  3.4578E+01  2.5397E+02  1.0116E-05
DEBUG_STATS_RL:          Uvel (THERMODYNAMICS)  min= -1.79311337765069E-01
DEBUG_STATS_RL:          Uvel (THERMODYNAMICS)  max=  1.60758929070449E-01
DEBUG_STATS_RL:          Uvel (THERMODYNAMICS) mean=  3.48404000993988E-03
DEBUG_STATS_RL:          Uvel (THERMODYNAMICS) S.D.=  2.29978650790028E-02
DEBUG_STATS_RL:          Vvel (THERMODYNAMICS)  min= -1.25317527576771E-01
DEBUG_STATS_RL:          Vvel (THERMODYNAMICS)  max=  1.26946212358918E-01
DEBUG_STATS_RL:          Vvel (THERMODYNAMICS) mean=  6.63380844996551E-04
DEBUG_STATS_RL:          Vvel (THERMODYNAMICS) S.D.=  1.51549813781776E-02
DEBUG_STATS_RL:          Wvel (THERMODYNAMICS)  min= -2.00457924452771E-04
DEBUG_STATS_RL:          Wvel (THERMODYNAMICS)  max=  1.61768529465029E-04
DEBUG_STATS_RL:          Wvel (THERMODYNAMICS) mean=  2.66567678701807E-08
DEBUG_STATS_RL:          Wvel (THERMODYNAMICS) S.D.=  1.55114955896629E-05
DEBUG_STATS_RL:         Theta (THERMODYNAMICS)  min= -2.00684901813499E+00
DEBUG_STATS_RL:         Theta (THERMODYNAMICS)  max=  3.00019224171806E+01
DEBUG_STATS_RL:         Theta (THERMODYNAMICS) mean=  3.22890239471559E+00
DEBUG_STATS_RL:         Theta (THERMODYNAMICS) S.D.=  5.85844761114735E+00
DEBUG_STATS_RL:          Salt (THERMODYNAMICS)  min=  2.00000000000000E-02
DEBUG_STATS_RL:          Salt (THERMODYNAMICS)  max=  3.74703923445241E+01
DEBUG_STATS_RL:          Salt (THERMODYNAMICS) mean=  1.88649239542099E+01
DEBUG_STATS_RL:          Salt (THERMODYNAMICS) S.D.=  1.73004289365418E+01
DEBUG_STATS_RL:         GtNm1 (THERMODYNAMICS)  min= -3.67075565234824E-06
DEBUG_STATS_RL:         GtNm1 (THERMODYNAMICS)  max=  2.50293710733872E-06
DEBUG_STATS_RL:         GtNm1 (THERMODYNAMICS) mean=  3.54931781813176E-09
DEBUG_STATS_RL:         GtNm1 (THERMODYNAMICS) S.D.=  2.22853640389017E-07
DEBUG_STATS_RL:         GsNm1 (THERMODYNAMICS)  min= -7.34183714012631E-07
DEBUG_STATS_RL:         GsNm1 (THERMODYNAMICS)  max=  5.65587427342979E-07
DEBUG_STATS_RL:         GsNm1 (THERMODYNAMICS) mean= -6.12796182770261E-10
DEBUG_STATS_RL:         GsNm1 (THERMODYNAMICS) S.D.=  2.06636778358641E-08
DEBUG_STATS_RL:                EtaN (DYNAMICS)  min= -1.94621447108760E+00
DEBUG_STATS_RL:                EtaN (DYNAMICS)  max=  1.03331059434636E+00
DEBUG_STATS_RL:                EtaN (DYNAMICS) mean= -1.47605739846410E-01
DEBUG_STATS_RL:                EtaN (DYNAMICS) S.D.=  6.61819559810020E-01
DEBUG_STATS_RL:                Uvel (DYNAMICS)  min= -1.79311337765069E-01
DEBUG_STATS_RL:                Uvel (DYNAMICS)  max=  1.60758929070449E-01
DEBUG_STATS_RL:                Uvel (DYNAMICS) mean=  3.48404000993988E-03
DEBUG_STATS_RL:                Uvel (DYNAMICS) S.D.=  2.29978650790028E-02
DEBUG_STATS_RL:                Vvel (DYNAMICS)  min= -1.25317527576771E-01
DEBUG_STATS_RL:                Vvel (DYNAMICS)  max=  1.26946212358918E-01
DEBUG_STATS_RL:                Vvel (DYNAMICS) mean=  6.63380844996551E-04
DEBUG_STATS_RL:                Vvel (DYNAMICS) S.D.=  1.51549813781776E-02
DEBUG_STATS_RL:                Wvel (DYNAMICS)  min= -2.00457924452771E-04
DEBUG_STATS_RL:                Wvel (DYNAMICS)  max=  1.61768529465029E-04
DEBUG_STATS_RL:                Wvel (DYNAMICS) mean=  2.66567678701807E-08
DEBUG_STATS_RL:                Wvel (DYNAMICS) S.D.=  1.55114955896629E-05
DEBUG_STATS_RL:               Theta (DYNAMICS)  min= -2.00684901813499E+00
DEBUG_STATS_RL:               Theta (DYNAMICS)  max=  3.00019224171806E+01
DEBUG_STATS_RL:               Theta (DYNAMICS) mean=  3.22890239471559E+00
DEBUG_STATS_RL:               Theta (DYNAMICS) S.D.=  5.85844761114735E+00
DEBUG_STATS_RL:                Salt (DYNAMICS)  min=  2.00000000000000E-02
DEBUG_STATS_RL:                Salt (DYNAMICS)  max=  3.74703923445241E+01
DEBUG_STATS_RL:                Salt (DYNAMICS) mean=  1.88649239542099E+01
DEBUG_STATS_RL:                Salt (DYNAMICS) S.D.=  1.73004289365418E+01
DEBUG_STATS_RL:                  Gu (DYNAMICS)  min= -1.82418616577159E-01
DEBUG_STATS_RL:                  Gu (DYNAMICS)  max=  1.54650402312806E-01
DEBUG_STATS_RL:                  Gu (DYNAMICS) mean=  3.88209000382582E-03
DEBUG_STATS_RL:                  Gu (DYNAMICS) S.D.=  2.38984096833830E-02
DEBUG_STATS_RL:                  Gv (DYNAMICS)  min= -1.29612231553858E-01
DEBUG_STATS_RL:                  Gv (DYNAMICS)  max=  1.18957289205923E-01
DEBUG_STATS_RL:                  Gv (DYNAMICS) mean=  2.88164786634251E-03
DEBUG_STATS_RL:                  Gv (DYNAMICS) S.D.=  1.57916186138752E-02
DEBUG_STATS_RL:               GuNm1 (DYNAMICS)  min= -7.84914121153384E-06
DEBUG_STATS_RL:               GuNm1 (DYNAMICS)  max=  7.67412071388434E-06
DEBUG_STATS_RL:               GuNm1 (DYNAMICS) mean= -1.52436929656605E-08
DEBUG_STATS_RL:               GuNm1 (DYNAMICS) S.D.=  1.20734776928222E-06
DEBUG_STATS_RL:               GvNm1 (DYNAMICS)  min= -1.08604483889169E-05
DEBUG_STATS_RL:               GvNm1 (DYNAMICS)  max=  1.67217372886812E-05
DEBUG_STATS_RL:               GvNm1 (DYNAMICS) mean=  7.67657192832443E-07
DEBUG_STATS_RL:               GvNm1 (DYNAMICS) S.D.=  2.66254169287727E-06
DEBUG_STATS_RL:               GtNm1 (DYNAMICS)  min= -3.67075565234824E-06
DEBUG_STATS_RL:               GtNm1 (DYNAMICS)  max=  2.50293710733872E-06
DEBUG_STATS_RL:               GtNm1 (DYNAMICS) mean=  3.54931781813176E-09
DEBUG_STATS_RL:               GtNm1 (DYNAMICS) S.D.=  2.22853640389017E-07
DEBUG_STATS_RL:               GsNm1 (DYNAMICS)  min= -7.34183714012631E-07
DEBUG_STATS_RL:               GsNm1 (DYNAMICS)  max=  5.65587427342979E-07
DEBUG_STATS_RL:               GsNm1 (DYNAMICS) mean= -6.12796182770261E-10
DEBUG_STATS_RL:               GsNm1 (DYNAMICS) S.D.=  2.06636778358641E-08
DEBUG_STATS_RL:    cg2d_b (SOLVE_FOR_PRESSURE)  min= -2.14429006159403E+04
DEBUG_STATS_RL:    cg2d_b (SOLVE_FOR_PRESSURE)  max=  1.99886481394721E+04
DEBUG_STATS_RL:    cg2d_b (SOLVE_FOR_PRESSURE) mean=  2.12719986893492E+00
DEBUG_STATS_RL:    cg2d_b (SOLVE_FOR_PRESSURE) S.D.=  3.92562276323135E+03
 cg2d: Sum(rhs),rhsMax =   2.29654923313996E-01  1.40842712422840E+00
(PID.TID 0000.0001)  cg2d: iter=     1 ; resid.=  2.85993486014411E-01
(PID.TID 0000.0001)  cg2d: iter=     2 ; resid.=  2.61590623405688E-01
(PID.TID 0000.0001)  cg2d: iter=     3 ; resid.=  2.32948296573771E-01
(PID.TID 0000.0001)  cg2d: iter=     4 ; resid.=  1.96945657713479E-01
(PID.TID 0000.0001)  cg2d: iter=     5 ; resid.=  1.72956998266007E-01
(PID.TID 0000.0001)  cg2d: iter=     6 ; resid.=  1.52937567831659E-01
(PID.TID 0000.0001)  cg2d: iter=     7 ; resid.=  1.28005456790603E-01
(PID.TID 0000.0001)  cg2d: iter=     8 ; resid.=  9.63358077808122E-02
(PID.TID 0000.0001)  cg2d: iter=     9 ; resid.=  7.66999397523719E-02
(PID.TID 0000.0001)  cg2d: iter=    10 ; resid.=  6.70070568668934E-02
(PID.TID 0000.0001)  cg2d: iter=    11 ; resid.=  5.86367922230308E-02
(PID.TID 0000.0001)  cg2d: iter=    12 ; resid.=  4.91581478845931E-02
(PID.TID 0000.0001)  cg2d: iter=    13 ; resid.=  3.91008138503944E-02
(PID.TID 0000.0001)  cg2d: iter=    14 ; resid.=  2.94620984641366E-02
(PID.TID 0000.0001)  cg2d: iter=    15 ; resid.=  2.34497285618767E-02
(PID.TID 0000.0001)  cg2d: iter=    16 ; resid.=  2.09473847321711E-02
(PID.TID 0000.0001)  cg2d: iter=    17 ; resid.=  1.77977792964119E-02
(PID.TID 0000.0001)  cg2d: iter=    18 ; resid.=  1.55625450768785E-02
(PID.TID 0000.0001)  cg2d: iter=    19 ; resid.=  1.24231534743058E-02
(PID.TID 0000.0001)  cg2d: iter=    20 ; resid.=  1.03525972619568E-02
(PID.TID 0000.0001)  cg2d: iter=    21 ; resid.=  9.01044724489712E-03
(PID.TID 0000.0001)  cg2d: iter=    22 ; resid.=  8.12917024516961E-03
(PID.TID 0000.0001)  cg2d: iter=    23 ; resid.=  6.99967925224977E-03
(PID.TID 0000.0001)  cg2d: iter=    24 ; resid.=  5.76689380052911E-03
(PID.TID 0000.0001)  cg2d: iter=    25 ; resid.=  4.24277649447688E-03
(PID.TID 0000.0001)  cg2d: iter=    26 ; resid.=  3.58944934161732E-03
(PID.TID 0000.0001)  cg2d: iter=    27 ; resid.=  3.02639417912084E-03
(PID.TID 0000.0001)  cg2d: iter=    28 ; resid.=  2.46066646962047E-03
(PID.TID 0000.0001)  cg2d: iter=    29 ; resid.=  1.97600207795449E-03
(PID.TID 0000.0001)  cg2d: iter=    30 ; resid.=  1.58285847116591E-03
(PID.TID 0000.0001)  cg2d: iter=    31 ; resid.=  1.31750447613852E-03
(PID.TID 0000.0001)  cg2d: iter=    32 ; resid.=  1.08218248467999E-03
(PID.TID 0000.0001)  cg2d: iter=    33 ; resid.=  8.70348630978714E-04
(PID.TID 0000.0001)  cg2d: iter=    34 ; resid.=  7.17963380374181E-04
(PID.TID 0000.0001)  cg2d: iter=    35 ; resid.=  5.79855707427746E-04
(PID.TID 0000.0001)  cg2d: iter=    36 ; resid.=  4.80987531622791E-04
(PID.TID 0000.0001)  cg2d: iter=    37 ; resid.=  4.28753982056270E-04
(PID.TID 0000.0001)  cg2d: iter=    38 ; resid.=  3.76494945801932E-04
(PID.TID 0000.0001)  cg2d: iter=    39 ; resid.=  3.04415174478955E-04
(PID.TID 0000.0001)  cg2d: iter=    40 ; resid.=  2.51954039487837E-04
(PID.TID 0000.0001)  cg2d: iter=    41 ; resid.=  2.25038651958300E-04
(PID.TID 0000.0001)  cg2d: iter=    42 ; resid.=  2.09692907461513E-04
(PID.TID 0000.0001)  cg2d: iter=    43 ; resid.=  1.73212774717554E-04
(PID.TID 0000.0001)  cg2d: iter=    44 ; resid.=  1.43896466314171E-04
(PID.TID 0000.0001)  cg2d: iter=    45 ; resid.=  1.22784276078318E-04
(PID.TID 0000.0001)  cg2d: iter=    46 ; resid.=  9.91150604622493E-05
(PID.TID 0000.0001)  cg2d: iter=    47 ; resid.=  8.31885214251489E-05
(PID.TID 0000.0001)  cg2d: iter=    48 ; resid.=  6.62877145337738E-05
(PID.TID 0000.0001)  cg2d: iter=    49 ; resid.=  4.97147683583598E-05
(PID.TID 0000.0001)  cg2d: iter=    50 ; resid.=  3.98989411520379E-05
(PID.TID 0000.0001)  cg2d: iter=    51 ; resid.=  3.52489490878001E-05
(PID.TID 0000.0001)  cg2d: iter=    52 ; resid.=  3.07580341277244E-05
(PID.TID 0000.0001)  cg2d: iter=    53 ; resid.=  2.69795720928103E-05
(PID.TID 0000.0001)  cg2d: iter=    54 ; resid.=  2.20779928899909E-05
(PID.TID 0000.0001)  cg2d: iter=    55 ; resid.=  2.01359721624905E-05
(PID.TID 0000.0001)  cg2d: iter=    56 ; resid.=  1.86787724147567E-05
(PID.TID 0000.0001)  cg2d: iter=    57 ; resid.=  1.49607367751234E-05
(PID.TID 0000.0001)  cg2d: iter=    58 ; resid.=  1.22010126242824E-05
(PID.TID 0000.0001)  cg2d: iter=    59 ; resid.=  9.53806368116754E-06
(PID.TID 0000.0001)  cg2d: iter=    60 ; resid.=  7.63322292682969E-06
(PID.TID 0000.0001)  cg2d: iter=    61 ; resid.=  6.33099678762963E-06
(PID.TID 0000.0001)  cg2d: iter=    62 ; resid.=  5.38314796195227E-06
(PID.TID 0000.0001)  cg2d: iter=    63 ; resid.=  4.02166021335313E-06
(PID.TID 0000.0001)  cg2d: iter=    64 ; resid.=  3.36677521127307E-06
(PID.TID 0000.0001)  cg2d: iter=    65 ; resid.=  2.51571949216665E-06
(PID.TID 0000.0001)  cg2d: iter=    66 ; resid.=  2.06263640582603E-06
(PID.TID 0000.0001)  cg2d: iter=    67 ; resid.=  1.87885639029699E-06
(PID.TID 0000.0001)  cg2d: iter=    68 ; resid.=  1.61310570038546E-06
(PID.TID 0000.0001)  cg2d: iter=    69 ; resid.=  1.32150723693208E-06
(PID.TID 0000.0001)  cg2d: iter=    70 ; resid.=  1.12423727557109E-06
(PID.TID 0000.0001)  cg2d: iter=    71 ; resid.=  9.15515881596490E-07
(PID.TID 0000.0001)  cg2d: iter=    72 ; resid.=  7.90213475583718E-07
(PID.TID 0000.0001)  cg2d: iter=    73 ; resid.=  6.75752197253134E-07
(PID.TID 0000.0001)  cg2d: iter=    74 ; resid.=  5.79511642722479E-07
(PID.TID 0000.0001)  cg2d: iter=    75 ; resid.=  4.63178486531000E-07
(PID.TID 0000.0001)  cg2d: iter=    76 ; resid.=  4.01639160706196E-07
(PID.TID 0000.0001)  cg2d: iter=    77 ; resid.=  3.35190508821353E-07
(PID.TID 0000.0001)  cg2d: iter=    78 ; resid.=  2.67987473602698E-07
(PID.TID 0000.0001)  cg2d: iter=    79 ; resid.=  2.22990374785030E-07
(PID.TID 0000.0001)  cg2d: iter=    80 ; resid.=  1.70318560181599E-07
(PID.TID 0000.0001)  cg2d: iter=    81 ; resid.=  1.41554085422194E-07
(PID.TID 0000.0001)  cg2d: iter=    82 ; resid.=  1.09926996108381E-07
(PID.TID 0000.0001)  cg2d: iter=    83 ; resid.=  8.17900061047539E-08
(PID.TID 0000.0001)  cg2d: iter=    84 ; resid.=  6.14359886234140E-08
(PID.TID 0000.0001)  cg2d: iter=    85 ; resid.=  4.58167673619653E-08
(PID.TID 0000.0001)  cg2d: iter=    86 ; resid.=  3.28410455508443E-08
(PID.TID 0000.0001)  cg2d: iter=    87 ; resid.=  2.39360278413842E-08
(PID.TID 0000.0001)  cg2d: iter=    88 ; resid.=  1.92880411149799E-08
(PID.TID 0000.0001)  cg2d: iter=    89 ; resid.=  1.63954564785883E-08
(PID.TID 0000.0001)  cg2d: iter=    90 ; resid.=  1.40365937852990E-08
(PID.TID 0000.0001)  cg2d: iter=    91 ; resid.=  1.12263949659658E-08
(PID.TID 0000.0001)  cg2d: iter=    92 ; resid.=  8.38502239675318E-09
(PID.TID 0000.0001)  cg2d: iter=    93 ; resid.=  6.76047059622659E-09
(PID.TID 0000.0001)  cg2d: iter=    94 ; resid.=  5.34202154783584E-09
(PID.TID 0000.0001)  cg2d: iter=    95 ; resid.=  4.35877361472029E-09
(PID.TID 0000.0001)  cg2d: iter=    96 ; resid.=  3.24064482472506E-09
(PID.TID 0000.0001)  cg2d: iter=    97 ; resid.=  2.63539017608433E-09
(PID.TID 0000.0001)  cg2d: iter=    98 ; resid.=  2.19781206672857E-09
(PID.TID 0000.0001)  cg2d: iter=    99 ; resid.=  1.85606798537736E-09
(PID.TID 0000.0001)  cg2d: iter=   100 ; resid.=  1.53285658181933E-09
(PID.TID 0000.0001)  cg2d: iter=   101 ; resid.=  1.22636520172218E-09
(PID.TID 0000.0001)  cg2d: iter=   102 ; resid.=  9.87359401269184E-10
(PID.TID 0000.0001)  cg2d: iter=   103 ; resid.=  7.55351918116394E-10
(PID.TID 0000.0001)  cg2d: iter=   104 ; resid.=  6.49983711951322E-10
(PID.TID 0000.0001)  cg2d: iter=   105 ; resid.=  5.40210626356260E-10
(PID.TID 0000.0001)  cg2d: iter=   106 ; resid.=  4.75200734742524E-10
(PID.TID 0000.0001)  cg2d: iter=   107 ; resid.=  4.15157139152412E-10
(PID.TID 0000.0001)  cg2d: iter=   108 ; resid.=  3.08691199268551E-10
(PID.TID 0000.0001)  cg2d: iter=   109 ; resid.=  2.35728279417571E-10
(PID.TID 0000.0001)  cg2d: iter=   110 ; resid.=  1.74950731203115E-10
(PID.TID 0000.0001)  cg2d: iter=   111 ; resid.=  1.24013186301124E-10
(PID.TID 0000.0001)  cg2d: iter=   112 ; resid.=  9.05323803421560E-11
(PID.TID 0000.0001)  cg2d: iter=   113 ; resid.=  6.38081204595018E-11
(PID.TID 0000.0001)  cg2d: iter=   114 ; resid.=  4.88631955714249E-11
(PID.TID 0000.0001)  cg2d: iter=   115 ; resid.=  3.53840264038143E-11
(PID.TID 0000.0001)  cg2d: iter=   116 ; resid.=  2.61178399582472E-11
(PID.TID 0000.0001)  cg2d: iter=   117 ; resid.=  1.99689784012865E-11
(PID.TID 0000.0001)  cg2d: iter=   118 ; resid.=  1.56328850948912E-11
(PID.TID 0000.0001)  cg2d: iter=   119 ; resid.=  1.21746188690762E-11
(PID.TID 0000.0001)  cg2d: iter=   120 ; resid.=  9.46791637947860E-12
(PID.TID 0000.0001)  cg2d: iter=   121 ; resid.=  7.12538578157876E-12
(PID.TID 0000.0001)  cg2d: iter=   122 ; resid.=  5.17522535823108E-12
(PID.TID 0000.0001)  cg2d: iter=   123 ; resid.=  4.01821494121311E-12
(PID.TID 0000.0001)  cg2d: iter=   124 ; resid.=  3.36362234160071E-12
(PID.TID 0000.0001)  cg2d: iter=   125 ; resid.=  2.46890952865039E-12
(PID.TID 0000.0001)  cg2d: iter=   126 ; resid.=  1.58816655081064E-12
(PID.TID 0000.0001)  cg2d: iter=   127 ; resid.=  1.01960064719122E-12
(PID.TID 0000.0001)  cg2d: iter=   128 ; resid.=  7.29597826772511E-13
(PID.TID 0000.0001)  cg2d: iter=   129 ; resid.=  5.22613252356972E-13
(PID.TID 0000.0001)  cg2d: iter=   130 ; resid.=  3.94413104667739E-13
(PID.TID 0000.0001)  cg2d: iter=   131 ; resid.=  2.87869709268021E-13
(PID.TID 0000.0001)  cg2d: iter=   132 ; resid.=  2.06332817478271E-13
(PID.TID 0000.0001)  cg2d: iter=   133 ; resid.=  1.56285613971813E-13
(PID.TID 0000.0001)  cg2d: iter=   134 ; resid.=  1.24379078339117E-13
(PID.TID 0000.0001)  cg2d: iter=   135 ; resid.=  9.80932188870512E-14
DEBUG_STATS_RL:    cg2d_x (SOLVE_FOR_PRESSURE)  min= -1.86760324562441E+01
DEBUG_STATS_RL:    cg2d_x (SOLVE_FOR_PRESSURE)  max=  1.02964021882963E+01
DEBUG_STATS_RL:    cg2d_x (SOLVE_FOR_PRESSURE) mean= -1.46154898145168E+00
DEBUG_STATS_RL:    cg2d_x (SOLVE_FOR_PRESSURE) S.D.=  6.45437045900714E+00
(PID.TID 0000.0001)      cg2d_init_res =   5.27658045323313E-01
(PID.TID 0000.0001)      cg2d_iters(min,last) =      -1     135
(PID.TID 0000.0001)      cg2d_last_res =   9.80932188870512E-14
(PID.TID 0000.0001) // =======================================================
(PID.TID 0000.0001) // Begin MONITOR dynamic field statistics
(PID.TID 0000.0001) // =======================================================
(PID.TID 0000.0001) %MON time_tsnumber                =                    30
(PID.TID 0000.0001) %MON time_secondsf                =   2.5920000000000E+06
(PID.TID 0000.0001) %MON dynstat_eta_max              =   1.0495822821913E+00
(PID.TID 0000.0001) %MON dynstat_eta_min              =  -1.9037749700555E+00
(PID.TID 0000.0001) %MON dynstat_eta_mean             =  -2.2194692991571E-03
(PID.TID 0000.0001) %MON dynstat_eta_sd               =   5.5999510639981E-01
(PID.TID 0000.0001) %MON dynstat_eta_del2             =   2.1607611542302E-03
(PID.TID 0000.0001) %MON dynstat_uvel_max             =   1.6667899082902E-01
(PID.TID 0000.0001) %MON dynstat_uvel_min             =  -1.8095863393070E-01
(PID.TID 0000.0001) %MON dynstat_uvel_mean            =   2.1799995744344E-03
(PID.TID 0000.0001) %MON dynstat_uvel_sd              =   1.7629277979875E-02
(PID.TID 0000.0001) %MON dynstat_uvel_del2            =   9.2024678335441E-05
(PID.TID 0000.0001) %MON dynstat_vvel_max             =   1.2738148006945E-01
(PID.TID 0000.0001) %MON dynstat_vvel_min             =  -1.2304609951064E-01
(PID.TID 0000.0001) %MON dynstat_vvel_mean            =  -8.0077611274886E-05
(PID.TID 0000.0001) %MON dynstat_vvel_sd              =   1.0468839709489E-02
(PID.TID 0000.0001) %MON dynstat_vvel_del2            =   8.5411310992766E-05
(PID.TID 0000.0001) %MON dynstat_wvel_max             =   1.6873357135763E-04
(PID.TID 0000.0001) %MON dynstat_wvel_min             =  -2.0091470939350E-04
(PID.TID 0000.0001) %MON dynstat_wvel_mean            =  -3.8329891830240E-22
(PID.TID 0000.0001) %MON dynstat_wvel_sd              =   1.7173401069882E-05
(PID.TID 0000.0001) %MON dynstat_wvel_del2            =   1.9443885338754E-07
(PID.TID 0000.0001) %MON dynstat_theta_max            =   3.0001922417181E+01
(PID.TID 0000.0001) %MON dynstat_theta_min            =  -2.0068490181350E+00
(PID.TID 0000.0001) %MON dynstat_theta_mean           =   3.6410517788954E+00
(PID.TID 0000.0001) %MON dynstat_theta_sd             =   4.4174272507064E+00
(PID.TID 0000.0001) %MON dynstat_theta_del2           =   4.8623374193237E-03
(PID.TID 0000.0001) %MON dynstat_salt_max             =   3.7470392344524E+01
(PID.TID 0000.0001) %MON dynstat_salt_min             =   2.9848907048494E+01
(PID.TID 0000.0001) %MON dynstat_salt_mean            =   3.4737954789274E+01
(PID.TID 0000.0001) %MON dynstat_salt_sd              =   2.9619090997928E-01
(PID.TID 0000.0001) %MON dynstat_salt_del2            =   9.9862637263085E-04
(PID.TID 0000.0001) %MON dynstat_sst_max              =   3.0001922417181E+01
(PID.TID 0000.0001) %MON dynstat_sst_min              =  -2.0068490181350E+00
(PID.TID 0000.0001) %MON dynstat_sst_mean             =   1.8755132692476E+01
(PID.TID 0000.0001) %MON dynstat_sst_sd               =   9.0516132653540E+00
(PID.TID 0000.0001) %MON dynstat_sst_del2             =   2.6702429453398E-02
(PID.TID 0000.0001) %MON dynstat_sss_max              =   3.7451131879898E+01
(PID.TID 0000.0001) %MON dynstat_sss_min              =   2.9848907048494E+01
(PID.TID 0000.0001) %MON dynstat_sss_mean             =   3.4866583375486E+01
(PID.TID 0000.0001) %MON dynstat_sss_sd               =   9.7507356181577E-01
(PID.TID 0000.0001) %MON dynstat_sss_del2             =   7.8833596526784E-03
(PID.TID 0000.0001) %MON forcing_qnet_max             =   3.9514640299479E+02
(PID.TID 0000.0001) %MON forcing_qnet_min             =  -1.7666627705892E+02
(PID.TID 0000.0001) %MON forcing_qnet_mean            =  -1.5323797657397E+01
(PID.TID 0000.0001) %MON forcing_qnet_sd              =   9.5133125046695E+01
(PID.TID 0000.0001) %MON forcing_qnet_del2            =   9.7583035332786E-01
(PID.TID 0000.0001) %MON forcing_qsw_max              =   0.0000000000000E+00
(PID.TID 0000.0001) %MON forcing_qsw_min              =   0.0000000000000E+00
(PID.TID 0000.0001) %MON forcing_qsw_mean             =   0.0000000000000E+00
(PID.TID 0000.0001) %MON forcing_qsw_sd               =   0.0000000000000E+00
(PID.TID 0000.0001) %MON forcing_qsw_del2             =   0.0000000000000E+00
(PID.TID 0000.0001) %MON forcing_empmr_max            =   7.7776982720934E-05
(PID.TID 0000.0001) %MON forcing_empmr_min            =  -7.7270975869700E-05
(PID.TID 0000.0001) %MON forcing_empmr_mean           =   9.3249062375004E-07
(PID.TID 0000.0001) %MON forcing_empmr_sd             =   2.8214611087815E-05
(PID.TID 0000.0001) %MON forcing_empmr_del2           =   3.5545803972656E-07
(PID.TID 0000.0001) %MON forcing_fu_max               =   2.8244099617004E-01
(PID.TID 0000.0001) %MON forcing_fu_min               =  -1.8917357027531E-01
(PID.TID 0000.0001) %MON forcing_fu_mean              =   1.6761938169132E-02
(PID.TID 0000.0001) %MON forcing_fu_sd                =   9.0031773326239E-02
(PID.TID 0000.0001) %MON forcing_fu_del2              =   6.6818963371085E-04
(PID.TID 0000.0001) %MON forcing_fv_max               =   1.9031694233418E-01
(PID.TID 0000.0001) %MON forcing_fv_min               =  -1.6425870358944E-01
(PID.TID 0000.0001) %MON forcing_fv_mean              =  -6.1725504335176E-03
(PID.TID 0000.0001) %MON forcing_fv_sd                =   4.5033516804219E-02
(PID.TID 0000.0001) %MON forcing_fv_del2              =   4.6460661813294E-04
(PID.TID 0000.0001) %MON trAdv_CFL_u_max              =   5.3147344467978E-02
(PID.TID 0000.0001) %MON trAdv_CFL_v_max              =   2.4910545533113E-02
(PID.TID 0000.0001) %MON trAdv_CFL_w_max              =   7.9973186849519E-02
(PID.TID 0000.0001) %MON advcfl_uvel_max              =   5.5093343329312E-02
(PID.TID 0000.0001) %MON advcfl_vvel_max              =   2.4748178624169E-02
(PID.TID 0000.0001) %MON advcfl_wvel_max              =   7.3423286247857E-02
(PID.TID 0000.0001) %MON advcfl_W_hf_max              =   8.3084244964680E-02
(PID.TID 0000.0001) %MON pe_b_mean                    =   4.0128828920795E-04
(PID.TID 0000.0001) %MON ke_max                       =   1.6100039349154E-02
(PID.TID 0000.0001) %MON ke_mean                      =   1.9256194086535E-04
(PID.TID 0000.0001) %MON ke_vol                       =   1.3226782436723E+18
(PID.TID 0000.0001) %MON vort_r_min                   =  -4.6534107042406E-07
(PID.TID 0000.0001) %MON vort_r_max                   =   4.6397246843019E-07
(PID.TID 0000.0001) %MON vort_a_mean                  =  -2.5274807807589E-05
(PID.TID 0000.0001) %MON vort_a_sd                    =   7.3604572266597E-05
(PID.TID 0000.0001) %MON vort_p_mean                  =  -3.1845656316237E-05
(PID.TID 0000.0001) %MON vort_p_sd                    =   1.3162778958607E-04
(PID.TID 0000.0001) %MON surfExpan_theta_mean         =   2.4944838094319E-07
(PID.TID 0000.0001) %MON surfExpan_salt_mean          =  -2.0973473002371E-07
(PID.TID 0000.0001) // =======================================================
(PID.TID 0000.0001) // End MONITOR dynamic field statistics
(PID.TID 0000.0001) // =======================================================
(PID.TID 0000.0001) // =======================================================
(PID.TID 0000.0001) // Field Current uVel   at iteration         30
(PID.TID 0000.0001) // CMIN =         -1.809586339306989E-01
(PID.TID 0000.0001) // CMAX =          1.666789908290232E-01
(PID.TID 0000.0001) // CINT =          1.287546758369341E-02
(PID.TID 0000.0001) // SYMBOLS (CMIN->CMAX): -abcdefghijklmnopqrstuvwxyz+
(PID.TID 0000.0001) //                  0.0: .
(PID.TID 0000.0001) // RANGE I (Lo:Hi:Step):(     1:    90:     1)
(PID.TID 0000.0001) // RANGE J (Lo:Hi:Step):(    40:     1:    -1)
(PID.TID 0000.0001) // RANGE K (Lo:Hi:Step):(   1:   1:   1)
(PID.TID 0000.0001) // =======================================================
(PID.TID 0000.0001) K =   1
(PID.TID 0000.0001)                I=10      I=20      I=30      I=40      I=50      I=60      I=70      I=80      I=90
(PID.TID 0000.0001) |--J--|123456789|123456789|123456789|123456789|123456789|123456789|123456789|123456789|123456789|
(PID.TID 0000.0001)     40 nonnn..nmmmmmnnnnnn...................................................................nnnn
(PID.TID 0000.0001)     39 mnnmmnnnnnnnnn....n......................................................nnn.........mlklm
(PID.TID 0000.0001)     38 nnnnnnnooooon............................................................nnnn.......lkklmm
(PID.TID 0000.0001)     37 ooo...................................................................n....mn....mmlm..ooo
(PID.TID 0000.0001)     36 qp..........................................mmm.....................mnnooonmln..mlmnnooppq
(PID.TID 0000.0001)     35 on..................................mmn...nnmmln....mnno............on.....nnnnllnnnnoopoo
(PID.TID 0000.0001)     34 ....................................nnn..mnonnnn..nmmnnno...................onnnoooooooo..
(PID.TID 0000.0001)     33 .....................................mmmmnooonooonnnooooooo..................oqpppppoonmm.
(PID.TID 0000.0001)     32 .....................................llmmmnopoopoooooooppoo.................orrpppppnmmmm.
(PID.TID 0000.0001)     31 .....................................mmnnnooopoppppppppqppo...............nswvtrrqppnnmn..
(PID.TID 0000.0001)     30 ....................................oppooopppppppqqqqqrrqpo.............moqrssrrrrqponnn..
(PID.TID 0000.0001)     29 ..................................prsrqpqqqqqqqqqqqqrrrrqonn............qrrqqpppppponnmm..
(PID.TID 0000.0001)     28 ................................oprrrqpopqqqqrqqpqqrrrrqponnn..........qqqpppooooonnnmml..
(PID.TID 0000.0001)     27 ...............n...............oonnnonmnopppooooopppqqpponmmmm....nno..qqpppoonnnmmmml....
(PID.TID 0000.0001)     26 ...............nl............lkkkjiijijkmnnmlllmmllllmllkkkjkmnn..nooopoooonnmllllkjjj....
(PID.TID 0000.0001)     25 ...............mkl....mn....jghigdccdefggghhhggggggggggfeefgijlmn....lkjjjjjjhghhigfgh....
(PID.TID 0000.0001)     24 .............jjjjjl..ljm....hj..jb--abbbbbccccdeffeeedccccdeghijkkkl..jighffgfeffgfggh....
(PID.TID 0000.0001)     23 .............iegghj..jhk....hk...geddddddcdefghijjiiijiiihhhiijiiihij.....hhkhggghhjkk....
(PID.TID 0000.0001)     22 n............hfggfhkjjjl....l..nlmmkjjjjihijkkllllmnmnnonlllmmnnllkkkn.......ljihjkmnnmooo
(PID.TID 0000.0001)     21 lmm.........jjjiiikllmnnn......qoqpnnnonmllmnmmmmlnnmoononmlmoopmnllno.........ljlmnnnnnpn
(PID.TID 0000.0001)     20 mml........mmoppnmmnppoon.........ooppppopooponnononoonnonmlnpoomnmlmn..........mlmmmmmopn
(PID.TID 0000.0001)     19 nll........ooqrtqmmmoonnmln....op......nprqrrrpqqponoonoomllnnllkllklm............lmmmnonn
(PID.TID 0000.0001)     18 lkm........pjlmmjhijkjikllmnpqqno....ornrrqrrrqqqppoooonmlkkkjijjijjkmn...........lllmnmkl
(PID.TID 0000.0001)     17 hik..........igfedfghjiijkmnopq......nnopnnoommnnnoponnmlkjjihhihhhjjkm..........omkjkkihh
(PID.TID 0000.0001)     16 fgi.......p..ljihhkiilmkklmnnn........monnmmmlklnoooonmmlkjjiiiiiiijjjkm.........onljigffg
(PID.TID 0000.0001)     15 gffk.....mm..onoonqolnqnmllmn..........nmnnnnmmnqqqqqononmlllkkkjkjjjihim.......opnmljhggh
(PID.TID 0000.0001)     14 ihfh.....mjknooqpprpmnpomljkm..........nnmnpoooprssssrqqqqoonlklllkkkjihk......mpponnmkjii
(PID.TID 0000.0001)     13 kjii.....pnmnnnonopommnnmljjl..........ooonoooooqrrrrrrrrrqqqnmnmmmlllkjl.....looponoonmkk
(PID.TID 0000.0001)     12 mlkkmnlmnqommmmmmmnnnnnnmlllllmnnn.....oooooonmnoopppppppqpppoonmmnnnmml......noppooooonmm
(PID.TID 0000.0001)     11 nmmmnknpqrqpponmmmmnnnnnmmmmnnonnnn...nonno..oonnmnnnnnnmnnnnnonmmnnnnnm.....nopqpppppponn
(PID.TID 0000.0001)     10 oonnoopqqrssrrqpooooonoooooonoooonmn..oonnn..tsommmnnnnmmlmmmmnnnmnnoonn...lmooooppppppppp
(PID.TID 0000.0001)      9 qpppppqqqrssrsrrrrrqpppqqqqqpppooooopppoop..qsqpnnnnnnnnnmmmnnnnnnnnooon..oppoppppppppqqrq
(PID.TID 0000.0001)      8 rrrrrqqpqrrsssrrsxytsrrrrrrrrqqqqqqqrqqqqswvrqpppqppppppppopooooppoopooo..qsrpqrrpppppqrrr
(PID.TID 0000.0001)      7 srrrqqqqqqrsrrrrsv+zusrrrrrrrrrrrrstsrrssstsrqqrrsrssrrrrppqqpqqqqpqqqqstsrrsrrrsrqppppqqr
(PID.TID 0000.0001)      6 qqqppppqqqqrrrrrrtvwutqrrqqqqrrrrrrrqqrrrsssssrsssrsssrrrqpqqrqqrrrrqqqqrrrrrrrsrqqqpppqqq
(PID.TID 0000.0001)      5 ppppppppqqppppppqqrrqqqqqqpqqqqpppppppqqrsstsssssrrrrqqqqqqrrrqqrrrrrrrrssrsuutrqqqppppppp
(PID.TID 0000.0001)      4 oooooooopoooonnoooooooooponnnnnnnnnoooppqqrrrrrrqqqpppopppqqqqqqqqqqqqqqpo...pqpppoooooooo
(PID.TID 0000.0001)      3 nnmmmmmnnn.............................nmnopppooooooonnooppppppppoooooonn...nponnnnoopponn
(PID.TID 0000.0001)      2 ...........................................mmmmmmmmmmmmmnnnnnnnn...nmn......nmmmmmmnnnn...
(PID.TID 0000.0001)      1 ..........................................................................................
(PID.TID 0000.0001) // =======================================================
(PID.TID 0000.0001) // END OF FIELD                                          =
(PID.TID 0000.0001) // =======================================================
(PID.TID 0000.0001) 
(PID.TID 0000.0001) // =======================================================
(PID.TID 0000.0001) // Field Current vVel   at iteration         30
(PID.TID 0000.0001) // CMIN =         -1.230460995106360E-01
(PID.TID 0000.0001) // CMAX =          1.273814800694452E-01
(PID.TID 0000.0001) // CINT =          9.275095540003005E-03
(PID.TID 0000.0001) // SYMBOLS (CMIN->CMAX): -abcdefghijklmnopqrstuvwxyz+
(PID.TID 0000.0001) //                  0.0: .
(PID.TID 0000.0001) // RANGE I (Lo:Hi:Step):(     1:    90:     1)
(PID.TID 0000.0001) // RANGE J (Lo:Hi:Step):(    40:     1:    -1)
(PID.TID 0000.0001) // RANGE K (Lo:Hi:Step):(   1:   1:   1)
(PID.TID 0000.0001) // =======================================================
(PID.TID 0000.0001) K =   1
(PID.TID 0000.0001)                I=10      I=20      I=30      I=40      I=50      I=60      I=70      I=80      I=90
(PID.TID 0000.0001) |--J--|123456789|123456789|123456789|123456789|123456789|123456789|123456789|123456789|123456789|
(PID.TID 0000.0001)     40 lmnnm.lkllmnnn...mm..................................................................mmmml
(PID.TID 0000.0001)     39 mnnnmllmmmnon...........................................................lmnn........jklmmm
(PID.TID 0000.0001)     38 non.......................................................................mom......ki.lnnn
(PID.TID 0000.0001)     37 oo...................................................................nl...mol...kloom.lmmn
(PID.TID 0000.0001)     36 on.........................................oppo....................kno....lmll.jkmoponllmm
(PID.TID 0000.0001)     35 ...................................lnon..oppponm...mnnon...................jkkkllnoonnom..
(PID.TID 0000.0001)     34 ....................................mpo.nppoooon.lmnnnnmk...................ijklmmmnnnol..
(PID.TID 0000.0001)     33 ....................................lonnoponnonmnnmmllkjjkl.................ggimlkklllkll.
(PID.TID 0000.0001)     32 ....................................kmllmmmmllkkkjiiiihhhik................olhijihiijjkk..
(PID.TID 0000.0001)     31 ....................................jihhhhhhihgggfffffggghj..............jjiffffghhhijkk..
(PID.TID 0000.0001)     30 ...................................igecbccbabcccccddeffgggh............lkihgfggghhhijjkl..
(PID.TID 0000.0001)     29 .................................jiifdaaaaa-abcddddefgghihgi...........nkjjiiijkkkjkkllk..
(PID.TID 0000.0001)     28 ...............................pnmlkiigeffeefffghhhhijjklkjij.........omlmllllmoponnml....
(PID.TID 0000.0001)     27 ..............mm..............rppopppomllkjjkkjklmlllmnnnnmlkk...nnoq.pononnmmnqrqppol....
(PID.TID 0000.0001)     26 ..............nnp...........ntwvsrrrqqqppoonnnnoppooopppponnmmmn....rqqopqppppqrsrqpnj....
(PID.TID 0000.0001)     25 ..............qqss...nll...mnp.vpopoopqrqqpppopqrqqoooonoonoonmmm....qqoonpqqpqrsrpnmn....
(PID.TID 0000.0001)     24 ............mloqssp.mnnl...loo..eiklmnoqqpppoonopppnnnnlnppppomllmno.....knomnqrronmmq....
(PID.TID 0000.0001)     23 ............knpqqpl.hjii...jp...bfhiijkmnmmnnnooprrpqrsstutsqpommnpqp.......korsrppqrq....
(PID.TID 0000.0001)     22 q...........hklnnkhgdfin......ojggjkkkkkkjkkkmoqqssssstuurqppmmmnooolk........nnnopqsspnmn
(PID.TID 0000.0001)     21 kjj........jjkkhffhihjmpo......n.lnnnnoonmmnooqqqqrssstttsrrpnnnonmnnn.........klopqqrpnll
(PID.TID 0000.0001)     20 hik.......nmnnmhfhknpqrqo......n......mqpnnnooooonpqrstsssssrrrrqqppqo...........rsrqpnnpl
(PID.TID 0000.0001)     19 iij.......sqvxxvrpoqrrsqnlm...ljl.....vuponmmmmmnnmoqqqqqqqqrttrpoooqo...........qoonnmnol
(PID.TID 0000.0001)     18 mkm.......t.+yzyvrnnpponmlkkmpn.....lmqmnnnnlmmmnmkkmnonmlmopqppoljlqqm..........qpnnpnmoo
(PID.TID 0000.0001)     17 onn.......r.ssrpnjfgjlkkkjllmo.......nmlllmmlllllkjjkmnlkklnonnnmkkmppn.........mnnmnpqoop
(PID.TID 0000.0001)     16 nnn......sp.momlkgegghhghkmll.........nnllllklllkjijklkjijklklnomkklnoon........nmmlloonnn
(PID.TID 0000.0001)     15 mmmm....loo.loonmjknmihhjklll.........moljkklllllkklmmkjjkljjmoolkklmmnom......lmonmmnmlmm
(PID.TID 0000.0001)     14 mmmk....illlmnnnmlnqojhjlmlkk.........mnmlmmmmmmmnnnnnnnnnnmmppnmlmnnoppn.....jlmnonnnmnon
(PID.TID 0000.0001)     13 qppm....jnponmnnmmoomlmpqomkm.........mppononmooooonnoopqppqrrpopppppppo.....ilnnppooppqrq
(PID.TID 0000.0001)     12 srqpkijnnprqooqrqqqqppqrqppponnnnm....nqppo.lnoppponnoooppqrrqopqrqqqqqm.....mopprsqqrqqss
(PID.TID 0000.0001)     11 ttssqoqrqpqqppstuusssrsssssrqqqqppn..moponn.kmmnoonnnooppppqqooprssrqqqm....jnqrrrsrqqqqst
(PID.TID 0000.0001)     10 ssrsssrqpnmprrrtuutrrsssssssrrrrqppo.nnoom..gilnoooooooppqqpoooprsrrqqpl..jginqrrrrrqqqqqr
(PID.TID 0000.0001)      9 qqqqrrqonlknpqqqttpnoprrqqqqqqpppnoqonnnml.pklmnnonoppooopqpnnnprrqqqpmh.pkjklnoppqqpppoop
(PID.TID 0000.0001)      8 nooopponnnlmnoonpvupnnopppopppooonnmllkjijnpommnnmkklllnnmnnmmnnpppppokf.wrqommnonooooonnn
(PID.TID 0000.0001)      7 nnnnnnonnmmnnnmmnptspnnonnnoooonmmoolkjihilnnmmnnnmlkjjlmmmnmmmmnonnnonnpolllllklmnmnnonmm
(PID.TID 0000.0001)      6 nnmmmmnnnmlmnmmmmnoonnnnmllmmmmmlllnmlkihhjllmmmmlmmlkjjkklnmlllmmmmmmlllmmmllkkllllmmnnnn
(PID.TID 0000.0001)      5 nmmmmllmmmlmmmmlmmmmmmnonnmmmllllkkklllkkkkkklmmlllllllllllmmmllmmmmmmmmnp..hjlllllmmmnnnn
(PID.TID 0000.0001)      4 mmlmmlllmm............................mnnnnmllmmmmmmlllmmmmmmmlllmmmmmmmm...mnmllllmmmmmmm
(PID.TID 0000.0001)      3 ..........................................oonnmmmmmmlllmnnnmmmmm..mmlm.....onnnmlllmmmn...
(PID.TID 0000.0001)      2 ..........................................................................................
(PID.TID 0000.0001)      1 ..........................................................................................
(PID.TID 0000.0001) // =======================================================
(PID.TID 0000.0001) // END OF FIELD                                          =
(PID.TID 0000.0001) // =======================================================
(PID.TID 0000.0001) 
(PID.TID 0000.0001) // =======================================================
(PID.TID 0000.0001) // Field Current theta  at iteration         30
(PID.TID 0000.0001) // CMIN =         -2.006849018134992E+00
(PID.TID 0000.0001) // CMAX =          3.000192241718057E+01
(PID.TID 0000.0001) // CINT =          1.185510053159836E+00
(PID.TID 0000.0001) // SYMBOLS (CMIN->CMAX): -abcdefghijklmnopqrstuvwxyz+
(PID.TID 0000.0001) //                  0.0: .
(PID.TID 0000.0001) // RANGE I (Lo:Hi:Step):(     1:    90:     1)
(PID.TID 0000.0001) // RANGE J (Lo:Hi:Step):(    40:     1:    -1)
(PID.TID 0000.0001) // RANGE K (Lo:Hi:Step):(   1:   1:   1)
(PID.TID 0000.0001) // =======================================================
(PID.TID 0000.0001) K =   1
(PID.TID 0000.0001)                I=10      I=20      I=30      I=40      I=50      I=60      I=70      I=80      I=90
(PID.TID 0000.0001) |--J--|123456789|123456789|123456789|123456789|123456789|123456789|123456789|123456789|123456789|
(PID.TID 0000.0001)     40 aabcdbaa-----aacdddbbbbbbbbbbbbbbbbbbbbbbbbbbbbbbbbbbbbbbbbbbbbbbbbbbbbbbbbbbbbbbbbbbbbaaa
(PID.TID 0000.0001)     39 bccddcccbba---bbbddbbbbbbbbbbbbbbbbbbbbbbbbbbbbbbbbbbbbbbbbbbbbbbbbbbbbb----bbbbbbbbbbaaab
(PID.TID 0000.0001)     38 eeffeecddccaabbbbbbbbbbbbbbbbbbbbbbbbbbbbbbbbbbbbbbbbbbbbbbbbbbbbbbbbbbb-----bbbbbbcaaabcd
(PID.TID 0000.0001)     37 fggbbbbbbbbbbbbbbbbbbbbbbbbbbbbbbbbbbbbbbbbbbbbbbbbbbbbbbbbbbbbbbbbbbbbbbbbabbbbdccdfbddee
(PID.TID 0000.0001)     36 hgbbbbbbbbbbbbbbbbbbbbbbbbbbbbbbbbbbbbbbbbbcba-bbbbbbbbbbbbbbbbbbbbccccbbbbccdbdefgghhhhhh
(PID.TID 0000.0001)     35 ggbbbbbbbbbbbbbbbbbbbbbbbbbbbbbbbbba---bbbcccccbbbbeeeefbbbbbbbbbbbbbbbbbbbcdeeeefghiiiihh
(PID.TID 0000.0001)     34 bbbbbbbbbbbbbbbbbbbbbbbbbbbbbbbbbbb----bbcddddddbddeeffggbbbbbbbbbbbbbbbbbbcaceefghijjjjbb
(PID.TID 0000.0001)     33 bbbbbbbbbbbbbbbbbbbbbbbbbbbbbbbbbbbb-abbccdddddeeeffffgghhibbbbbbbbbbbbbbbbbaadhijjkkkkkkb
(PID.TID 0000.0001)     32 bbbbbbbbbbbbbbbbbbbbbbbbbbbbbbbbbbbb-abccdeeeeffggggghhhiiibbbbbbbbbbbbbbbbccbdjlmmmlllkkb
(PID.TID 0000.0001)     31 bbbbbbbbbbbbbbbbbbbbbbbbbbbbbbbbbbbbdfggghhiiiiiiiijjkkkkkkbbbbbbbbbbbbbbgjljilnnnnnmmmmbb
(PID.TID 0000.0001)     30 bbbbbbbbbbbbbbbbbbbbbbbbbbbbbbbbbbblkkllllllllllllllmmmmmmlbbbbbbbbbbbbnnopqpppppppooonobb
(PID.TID 0000.0001)     29 bbbbbbbbbbbbbbbbbbbbbbbbbbbbbbbbboooooooooooooooooooopppoonmbbbbbbbbbbbqqrrrrqqqqqqqppopbb
(PID.TID 0000.0001)     28 bbbbbbbbbbbbbbbbbbbbbbbbbbbbbbboqqqqqqqqqqqqqqqqqqqqqrrqqponobbbbbbbbbsssssssrrrrrrqqqqpbb
(PID.TID 0000.0001)     27 bbbbbbbbbbbbbbvvbbbbbbbbbbbbbbrrsssssssssttttttstttssssrrrqppqbbbssttbuuuuttuttttsssrrbbbb
(PID.TID 0000.0001)     26 bbbbbbbbbbbbbbvuubbbbbbbbbbbttuuuuuuvvvvvvvuuuuuuuuuuttsssrrrstubttvwvvvvvvvvuuuutssrqbbbb
(PID.TID 0000.0001)     25 bbbbbbbbbbbbbbvvvwbbbwwxbbbuuvwwvwwwwwwwwwwwvvvvvvvvuuuttttttuvwwbbbwwwwwwvvvvvuuutsrpbbbb
(PID.TID 0000.0001)     24 bbbbbbbbbbbbwvvwxyybwwxxbbbwwwbxxxxxxxxxxxwwwwwwwwvvvvvvvuuvvvwwwvvvbxwwwwwwwwvvvuutsrbbbb
(PID.TID 0000.0001)     23 bbbbbbbbbbbbwwwxxyzbxxxxbbbxxwbbyyyyyyxxxxxxxxxxxxxxxxxxxwxxxxxwwxwxwbbbbwwwwwwwwvvvvvbbbb
(PID.TID 0000.0001)     22 wbbbbbbbbbbbxxxyyyyyxxyybbbxxbyyzzyzzzyzzyyyyyyyyyxyxyxwwwwwxxwwwwwwwwbbbbbbxxxxxxxxxyxxww
(PID.TID 0000.0001)     21 xwwbbbbbbbbxxxxyyzzyyzz++bbbbbzyzzzzzzz++zzzyzyyyyyyyyxxwwwwwwwvwvvvvvbbbbbbbbyyyyyyyyyxxx
(PID.TID 0000.0001)     20 xwwbbbbbbbyxyxyyyzzzzzzz+bbbbbbzbzzzzz++++zzzzzzzyyyyyxxxwxxxwwwwwvvvvbbbbbbbbbyyyyyyyyxxx
(PID.TID 0000.0001)     19 wvvbbbbbbbzzzzyyyyyzzzzzzzzbbbzzzbbbbb++++++z++z+zzzyyyyxxxxxxwwwwwwvvbbbbbbbbbbbyyyxxwwwx
(PID.TID 0000.0001)     18 vutbbbbbbbzzzyyyyyyzyyyzzzzzzz+zzbbb++++++++++++++zzzzzyyyyxxwwwvvwvvvubbbbbbbbbbyyxxwvvww
(PID.TID 0000.0001)     17 uutbbbbbbbzbzyxxyxxyyyyyyyyyyzzbbbbbzzzzzzzzzzzzzzzzzzyyyyyxxwwvvvvuuuvbbbbbbbbbyyyyxwuuvv
(PID.TID 0000.0001)     16 utsbbbbbbzzbzyyxxxxxxxxwwxxxxzbbbbbbbyyyyyyzzyyzzyyyzyyyyyyyxxwwvvvuutttbbbbbbbbyyyyywvvvu
(PID.TID 0000.0001)     15 utsrbbbbxyybxxxxxwwwwwwwvvwwxbbbbbbbbbxxxxxxxxxxxxxxyyxyyyyyxxwwwvuuutsssbbbbbbxxyxxxxxwvu
(PID.TID 0000.0001)     14 utsqbbbbxyxwxxwwwxwwvuuuuuuuubbbbbbbbbwwwwwwwwwwwxxxxxwwxxxxxwwwvvvutssssbbbbbwwxxwxxxwwvu
(PID.TID 0000.0001)     13 uttrbbbbwxwvwwuuvvvvvuuttttttbbbbbbbbbvvvvvvvvvvvvuuuvvvvwwxxwvvvuuuusssqbbbbvwwwwvwwwwvvu
(PID.TID 0000.0001)     12 tstsststuutttttssssstutrrssssqqrrqbbbbuuuuttttssssssssssstuuuttttsstssrqbbbbbuvvuuttuutttt
(PID.TID 0000.0001)     11 qpqqssssrrrrrrrqqpppprqppqpppqqqqqqbbtttsssbrrqqqrrrrqrrqrrrqqqrrrrsrrqpbbbbprsssrrrrrqqqq
(PID.TID 0000.0001)     10 mmlmooooonoonoonnnnmmnmmmmmlmnnooooobqrrqqqbpqqqqqpppppppppooooopooopppobbonopppoonnooonnm
(PID.TID 0000.0001)      9 jiiijjjjiijjijjjiijjjjiiiijjijkllnnmmnoooobnnnnoooonnnnoonmmlmmmmmllmmmmbnnmnmmmllkjkkkjii
(PID.TID 0000.0001)      8 ffffffggffghhhgggggghhgggghhhiijjjkkjklllmlllllllllmmllllkkkjjklkkkkkkljbllkkjjiihhgggffff
(PID.TID 0000.0001)      7 dddeeeefffeefgfffffffeeeefgggggghhghhiijjkjjjkkkjiiihhiiiiiiiiiiiiiiijjjijjjihhgfeeeeeeedd
(PID.TID 0000.0001)      6 cccddeeeeeddeeeeeeeeeeeeeeeedeefeeefffgghhhhhhiihgfeeffffggffffghhhhhhhhhhhggffedddddccccc
(PID.TID 0000.0001)      5 ccddddddddddeeeeeeddddeddddddeeeeeeeeeeefffffffffddccddddeeeeeeeeffffffefffeedddcccccccccc
(PID.TID 0000.0001)      4 dddddcccccccccccccccccbbbbbbccccccccccccddddcccccccccccccccccddddddddddddcbbbaabcccccccccc
(PID.TID 0000.0001)      3 bccbbbaaaabbbbbbbbbbbbbbbbbbbbbbbbbbbbbbbbbbbbbbbbbbbbbbbbbbbbbbbbbbbbbbbbbbaaaabbcccccbbb
(PID.TID 0000.0001)      2 bbbbbbbbbbbbbbbbbbbbbbbbbbbbbbbbbbbbbbbbbbbccccbbbbbaaaaaaaaaaaabbaaaabbbbbaaaaabbbbbbbbbb
(PID.TID 0000.0001)      1 bbbbbbbbbbbbbbbbbbbbbbbbbbbbbbbbbbbbbbbbbbbbbbbbbbbbbbbbbbbbbbbbbbbbbbbbbbbbbbbbbbbbbbbbbb
(PID.TID 0000.0001) // =======================================================
(PID.TID 0000.0001) // END OF FIELD                                          =
(PID.TID 0000.0001) // =======================================================
(PID.TID 0000.0001) 
(PID.TID 0000.0001) // =======================================================
(PID.TID 0000.0001) // Field Current etaN   at iteration         30
(PID.TID 0000.0001) // CMIN =         -1.903774970055505E+00
(PID.TID 0000.0001) // CMAX =          1.049582282191260E+00
(PID.TID 0000.0001) // CINT =          1.093836019350654E-01
(PID.TID 0000.0001) // SYMBOLS (CMIN->CMAX): -abcdefghijklmnopqrstuvwxyz+
(PID.TID 0000.0001) //                  0.0: .
(PID.TID 0000.0001) // RANGE I (Lo:Hi:Step):(    -1:    92:     1)
(PID.TID 0000.0001) // RANGE J (Lo:Hi:Step):(    42:    -1:    -1)
(PID.TID 0000.0001) // RANGE K (Lo:Hi:Step):(   1:   1:   1)
(PID.TID 0000.0001) // =======================================================
(PID.TID 0000.0001) K =   1
(PID.TID 0000.0001)                I=8       I=18      I=28      I=38      I=48      I=58      I=68      I=78      I=88
(PID.TID 0000.0001) |--J--|101234567|901234567|901234567|901234567|901234567|901234567|901234567|901234567|901234567|9012
(PID.TID 0000.0001)     42 ............................................--aabbbccddeeeeeeddeee..feee.....-aabbccddddd.....
(PID.TID 0000.0001)     41 ..............................................................................................
(PID.TID 0000.0001)     40 uutttuu.ppqqqqqqqqqqq..................................................................vvuuutt
(PID.TID 0000.0001)     39 ttssssssrrrrrrrs...oo.....................................................ssss........vuutttss
(PID.TID 0000.0001)     38 ssssstssrrrrrrs...........................................................rrrss......uttssssss
(PID.TID 0000.0001)     37 sssst..................................................................st...qrr...tssss.rrssss
(PID.TID 0000.0001)     36 ssst.........................................oppp....................rrsttsqqqrq.srqrrssssssst
(PID.TID 0000.0001)     35 tttu.................................jjjk..nnooppp...ssrss...........rrs....qpoopppppqrrsstttu
(PID.TID 0000.0001)     34 .....................................jjjk.nnonoooo.qpppqqrs..................qponnoopqqrsu....
(PID.TID 0000.0001)     33 s.....................................jkkmmnnnnnooopppppqqrrr.................nnnooppqrssss...
(PID.TID 0000.0001)     32 r.....................................kklllmnnnopppppqqqqqrqq................ilnnpqrrsssrrr...
(PID.TID 0000.0001)     31 ......................................jkllmmnoopppqqqqrrrrrrr..............mmooopqrrrrrrrr....
(PID.TID 0000.0001)     30 .....................................klmnnnopppqqrrrrrrsssssr............kmnprsssssssssrrr....
(PID.TID 0000.0001)     29 ...................................nnopqqqqrrrrrsssssssttttsrq...........oprssttttttssssrs....
(PID.TID 0000.0001)     28 .................................pqqqrsssssstttttttttttttttssrr.........rrrsssttttttssssss....
(PID.TID 0000.0001)     27 ................rr..............tssssssstttttttttttttttttttsssrr...uttt.ssssstttssssssrr......
(PID.TID 0000.0001)     26 ................rrr...........uttttssstttttuuuuuuuuuuuuttttssssrrr.vutuuuutuuuuttttssssr......
(PID.TID 0000.0001)     25 ................ssst...utt...uutuuttttttttuuuuuuuuuuuutttttssssssss...vvvuuuuuutttttssrq......
(PID.TID 0000.0001)     24 ..............tttstuu.uuut...vut.wutttttttttuuuuuuuutttttsssssssssssss.vvvvuuuuutttsssrr......
(PID.TID 0000.0001)     23 ..............tttttuu.uuut...vut..vttttuttuuuuuuuuuuuuutttsssssssssssss....uvvvuutttssss......
(PID.TID 0000.0001)     22 rrr...........ttttttttuuuu...vu.ttutttttuuuuuuuuuuuuututttssssssssssssss......vuuuttttssssrrr.
(PID.TID 0000.0001)     21 rrrrr........ttttttuuuuuuuu.....tsssssstttuuuuuuutuuuutttttssssssrrsssss........uuttttsssrrrrr
(PID.TID 0000.0001)     20 rrrrr.......uuutttuuuuuuuuu......t.ssssttuuuuuuuuuuuuuuuutttttssssssrsss.........uttttsssrrrrr
(PID.TID 0000.0001)     19 rrrqq.......vvvuuuuuuuuuuuuuu...ttt.....uvvvvvvvvvvvuvuuuuuuttttsssssrss...........uttssrrrrrq
(PID.TID 0000.0001)     18 rqqqq.......vvwvvvuvvvvuuuuuuuuuutt...xxwwwvvvvvvvvvvvuuuuuutttttssssssss..........uttssrrrqqq
(PID.TID 0000.0001)     17 rqqqq.......w.ywwvvvvvvvvuuuuuuut.....xxwwvvvvvvvvvvvvuuuuuuuttttssssssss.........vuttssrrrqqq
(PID.TID 0000.0001)     16 rrqqq......zx.zxxwwvvvvvvuuuuutu.......xwwvvvvvuvvvvvuuuuuuuuuutttttssssrr........vuuttssrrrqq
(PID.TID 0000.0001)     15 srrrqp....+zw.zyxxwvwwuuvuutttt.........xwvvuuvuuvvuuuuuuuuuuuuuuttttsssrqq......vvuutttsssrrr
(PID.TID 0000.0001)     14 sssrqp....zzxxyxwwvvwvttuuttssr.........wwvuuuuuuuuuuuuuuuuvuuvuuttttttssrq.....uuuuttttttsssr
(PID.TID 0000.0001)     13 tssrqp....yzyxwwwvvuuuttuutssrr.........vvuuuutttttsssstttttuuvututttttssrq....stttttttttutssr
(PID.TID 0000.0001)     12 tssrrqpptvxyxwwwwvvuutttttsssrrrrrqq....uuttttssssrrrrrrrrrsssttttttssssrq.....rrssssssstttssr
(PID.TID 0000.0001)     11 rrrrqqqsstuvwwvwwvvuutsttsssrrqrqqqqq..rssstt.srrrqqqqrrrrrrrrrrsttsrsrrrq....nppqqrqqrrrrrrrr
(PID.TID 0000.0001)     10 qpppppoppppqrrrtttsrrrrqqqqqqpppppppon.pqrrss.pppqqqqqqqrrrqqqqrrssrqqqqqp..gilnnnnnooopppqppp
(PID.TID 0000.0001)      9 mmnmmnmmlllmnonnooonmnnonnnnnnnnnooppnnoppqr.klmopppppqqqrrrqppqqrqppppooo.fgijkllllkkllllmmnm
(PID.TID 0000.0001)      8 iijjjjiihiiijklkkkmkjjjkkjjjjjkkllllmmmmnnoonlklmnnooopppppppooopqpooonnnp.gghhiiihhhhiiihiijj
(PID.TID 0000.0001)      7 fffffffffgghhhhiiiiihfffggggggghhhhhhgghijklkkkkkkkjjkkklmlmmmmmnnnnnmmllkjhhhhgggffffggffffff
(PID.TID 0000.0001)      6 dddddeeefffffgfffggfedddeedeeeffeeeeeddeefgiiiihhhgggffghijjkkkkklllkkkjjiihgffeeeeeeeeeeedddd
(PID.TID 0000.0001)      5 cddddddeeeeeeeeeeeeddcccccccccccccccccccccdeeeffeeddddddefghiihhhiihhhhhggfeeddccccccddddccddd
(PID.TID 0000.0001)      4 ccccdddddddddedddddddcccccbbbbbbbbccbbbbbbbbbbbccccccccdeeffffffffgffffffeef..bbbbbccccccccccc
(PID.TID 0000.0001)      3 ddddddddddee............................bbbaaaabbbbccccddeeeeeeeeeeeeeeeffg..aaaabbccccddddddd
(PID.TID 0000.0001)      2 ............................................--aabbbccddeeeeeeddeee..feee.....-aabbccddddd.....
(PID.TID 0000.0001)      1 ..............................................................................................
(PID.TID 0000.0001)      0 uutttuu.ppqqqqqqqqqqq..................................................................vvuuutt
(PID.TID 0000.0001)     -1 ttssssssrrrrrrrs...oo.....................................................ssss........vuutttss
(PID.TID 0000.0001) // =======================================================
(PID.TID 0000.0001) // END OF FIELD                                          =
(PID.TID 0000.0001) // =======================================================
(PID.TID 0000.0001) 
(PID.TID 0000.0001)  MDS_WRITE_FIELD: it,rec,kS,kL,kH=      30     1  15   1  15 file=U.0000000030
(PID.TID 0000.0001)  MDS_WRITE_FIELD: it,rec,kS,kL,kH=      30     1  15   1  15 file=V.0000000030
(PID.TID 0000.0001)  MDS_WRITE_FIELD: it,rec,kS,kL,kH=      30     1  15   1  15 file=T.0000000030
(PID.TID 0000.0001)  MDS_WRITE_FIELD: it,rec,kS,kL,kH=      30     1  15   1  15 file=S.0000000030
(PID.TID 0000.0001)  MDS_WRITE_FIELD: it,rec,kS,kL,kH=      30     1   1   1   1 file=Eta.0000000030
(PID.TID 0000.0001)  MDS_WRITE_FIELD: it,rec,kS,kL,kH=      30     1  15   1  15 file=W.0000000030
(PID.TID 0000.0001)  MDS_WRITE_FIELD: it,rec,kS,kL,kH=      30     1  15   1  15 file=PH.0000000030
(PID.TID 0000.0001)  MDS_WRITE_FIELD: it,rec,kS,kL,kH=      30     1   1   1   1 file=PHL.0000000030
(PID.TID 0000.0001)  MDS_WRITE_FIELD: it,rec,kS,kL,kH=      30     1   1   1   1 file=ETAtave.0000000030
(PID.TID 0000.0001)  MDS_WRITE_FIELD: it,rec,kS,kL,kH=      30     1  15   1  15 file=Ttave.0000000030
(PID.TID 0000.0001)  MDS_WRITE_FIELD: it,rec,kS,kL,kH=      30     1  15   1  15 file=Stave.0000000030
(PID.TID 0000.0001)  MDS_WRITE_FIELD: it,rec,kS,kL,kH=      30     1  15   1  15 file=uVeltave.0000000030
(PID.TID 0000.0001)  MDS_WRITE_FIELD: it,rec,kS,kL,kH=      30     1  15   1  15 file=vVeltave.0000000030
(PID.TID 0000.0001)  MDS_WRITE_FIELD: it,rec,kS,kL,kH=      30     1  15   1  15 file=wVeltave.0000000030
(PID.TID 0000.0001)  MDS_WRITE_FIELD: it,rec,kS,kL,kH=      30     1   1   1   1 file=Eta2tave.0000000030
(PID.TID 0000.0001)  MDS_WRITE_FIELD: it,rec,kS,kL,kH=      30     1  15   1  15 file=UTtave.0000000030
(PID.TID 0000.0001)  MDS_WRITE_FIELD: it,rec,kS,kL,kH=      30     1  15   1  15 file=VTtave.0000000030
(PID.TID 0000.0001)  MDS_WRITE_FIELD: it,rec,kS,kL,kH=      30     1  15   1  15 file=WTtave.0000000030
(PID.TID 0000.0001)  MDS_WRITE_FIELD: it,rec,kS,kL,kH=      30     1  15   1  15 file=UStave.0000000030
(PID.TID 0000.0001)  MDS_WRITE_FIELD: it,rec,kS,kL,kH=      30     1  15   1  15 file=VStave.0000000030
(PID.TID 0000.0001)  MDS_WRITE_FIELD: it,rec,kS,kL,kH=      30     1  15   1  15 file=WStave.0000000030
(PID.TID 0000.0001)  MDS_WRITE_FIELD: it,rec,kS,kL,kH=      30     1  15   1  15 file=TTtave.0000000030
(PID.TID 0000.0001)  MDS_WRITE_FIELD: it,rec,kS,kL,kH=      30     1  15   1  15 file=UUtave.0000000030
(PID.TID 0000.0001)  MDS_WRITE_FIELD: it,rec,kS,kL,kH=      30     1  15   1  15 file=VVtave.0000000030
(PID.TID 0000.0001)  MDS_WRITE_FIELD: it,rec,kS,kL,kH=      30     1  15   1  15 file=UVtave.0000000030
(PID.TID 0000.0001)  MDS_WRITE_FIELD: it,rec,kS,kL,kH=      30     1  15   1  15 file=Tdiftave.0000000030
(PID.TID 0000.0001)  MDS_WRITE_FIELD: it,rec,kS,kL,kH=      30     1  15   1  15 file=PhHytave.0000000030
(PID.TID 0000.0001)  MDS_WRITE_FIELD: it,rec,kS,kL,kH=      30     1   1   1   1 file=PHLtave.0000000030
(PID.TID 0000.0001)  MDS_WRITE_FIELD: it,rec,kS,kL,kH=      30     1   1   1   1 file=uFluxtave.0000000030
(PID.TID 0000.0001)  MDS_WRITE_FIELD: it,rec,kS,kL,kH=      30     1   1   1   1 file=vFluxtave.0000000030
(PID.TID 0000.0001)  MDS_WRITE_FIELD: it,rec,kS,kL,kH=      30     1   1   1   1 file=tFluxtave.0000000030
(PID.TID 0000.0001)  MDS_WRITE_FIELD: it,rec,kS,kL,kH=      30     1   1   1   1 file=sFluxtave.0000000030
(PID.TID 0000.0001)  MDS_WRITE_FIELD: it,rec,kS,kL,kH=      30     1   1   1   1 file=PHL2tave.0000000030
(PID.TID 0000.0001)  MDS_WRITE_FIELD: it,rec,kS,kL,kH=      30     1  15   1  15 file=Convtave.0000000030
(PID.TID 0000.0001) // Time-average data written, t-step        30
(PID.TID 0000.0001) 
(PID.TID 0000.0001)  MDS_WRITE_FIELD: it,rec,kS,kL,kH=      30     1  15   1  15 file=GM_Kwx-T.0000000030
(PID.TID 0000.0001)  MDS_WRITE_FIELD: it,rec,kS,kL,kH=      30     1  15   1  15 file=GM_Kwy-T.0000000030
(PID.TID 0000.0001)  MDS_WRITE_FIELD: it,rec,kS,kL,kH=      30     1  15   1  15 file=GM_Kwz-T.0000000030
(PID.TID 0000.0001)  MDS_WRITE_FIELD: it,rec,kS,kL,kH=      30     1  15   1  15 file=pickup_cd.0000000030
(PID.TID 0000.0001)  MDS_WRITE_FIELD: it,rec,kS,kL,kH=      30     2  15   1  15 file=pickup_cd.0000000030
(PID.TID 0000.0001)  MDS_WRITE_FIELD: it,rec,kS,kL,kH=      30     3  15   1  15 file=pickup_cd.0000000030
(PID.TID 0000.0001)  MDS_WRITE_FIELD: it,rec,kS,kL,kH=      30     4  15   1  15 file=pickup_cd.0000000030
(PID.TID 0000.0001)  MDS_WRITE_FIELD: it,rec,kS,kL,kH=      30    61   1   1   1 file=pickup_cd.0000000030
(PID.TID 0000.0001)  MDS_WRITE_FIELD: it,rec,kS,kL,kH=      30    -1  15   1  15 file=pickup.0000000030
(PID.TID 0000.0001)  MDS_WRITE_FIELD: it,rec,kS,kL,kH=      30    -2  15   1  15 file=pickup.0000000030
(PID.TID 0000.0001)  MDS_WRITE_FIELD: it,rec,kS,kL,kH=      30    -3  15   1  15 file=pickup.0000000030
(PID.TID 0000.0001)  MDS_WRITE_FIELD: it,rec,kS,kL,kH=      30    -4  15   1  15 file=pickup.0000000030
(PID.TID 0000.0001)  MDS_WRITE_FIELD: it,rec,kS,kL,kH=      30    -5  15   1  15 file=pickup.0000000030
(PID.TID 0000.0001)  MDS_WRITE_FIELD: it,rec,kS,kL,kH=      30    -6  15   1  15 file=pickup.0000000030
(PID.TID 0000.0001)  MDS_WRITE_FIELD: it,rec,kS,kL,kH=      30    -7  15   1  15 file=pickup.0000000030
(PID.TID 0000.0001)  MDS_WRITE_FIELD: it,rec,kS,kL,kH=      30    -8  15   1  15 file=pickup.0000000030
(PID.TID 0000.0001)  MDS_WRITE_FIELD: it,rec,kS,kL,kH=      30  -121   1   1   1 file=pickup.0000000030
(PID.TID 0000.0001)  MDS_WRITE_FIELD: it,rec,kS,kL,kH=      30  -122   1   1   1 file=pickup.0000000030
(PID.TID 0000.0001)  MDS_WRITE_FIELD: it,rec,kS,kL,kH=      30  -123   1   1   1 file=pickup.0000000030
(PID.TID 0000.0001) %CHECKPOINT        30 0000000030
 EXTERNAL_FIELDS_LOAD,        30 : iP,iLd,i0,i1=    1    2    1    2 ; Wght=  0.5000000000  0.5000000000
 EXTERNAL_FIELDS_LOAD: (fu0,1),fu,fv= -3.5633E-02 -1.4435E-02 -2.5034E-02 -3.7446E-02
 EXTERNAL_FIELDS_LOAD: SST,SSS,Q,E-P=  2.1328E-01  3.4568E+01  2.5313E+02  1.0007E-05
DEBUG_STATS_RL:          Uvel (THERMODYNAMICS)  min= -1.80958633930699E-01
DEBUG_STATS_RL:          Uvel (THERMODYNAMICS)  max=  1.66678990829023E-01
DEBUG_STATS_RL:          Uvel (THERMODYNAMICS) mean=  3.78700696974339E-03
DEBUG_STATS_RL:          Uvel (THERMODYNAMICS) S.D.=  2.34459333461096E-02
DEBUG_STATS_RL:          Vvel (THERMODYNAMICS)  min= -1.23046099510636E-01
DEBUG_STATS_RL:          Vvel (THERMODYNAMICS)  max=  1.27381480069445E-01
DEBUG_STATS_RL:          Vvel (THERMODYNAMICS) mean=  4.02835266818204E-04
DEBUG_STATS_RL:          Vvel (THERMODYNAMICS) S.D.=  1.48496729721732E-02
DEBUG_STATS_RL:          Wvel (THERMODYNAMICS)  min= -2.00914709393499E-04
DEBUG_STATS_RL:          Wvel (THERMODYNAMICS)  max=  1.68733571357630E-04
DEBUG_STATS_RL:          Wvel (THERMODYNAMICS) mean= -5.21172847497441E-08
DEBUG_STATS_RL:          Wvel (THERMODYNAMICS) S.D.=  1.56461504340581E-05
DEBUG_STATS_RL:         Theta (THERMODYNAMICS)  min= -2.00620043636824E+00
DEBUG_STATS_RL:         Theta (THERMODYNAMICS)  max=  3.00275628250873E+01
DEBUG_STATS_RL:         Theta (THERMODYNAMICS) mean=  3.22915339990660E+00
DEBUG_STATS_RL:         Theta (THERMODYNAMICS) S.D.=  5.85867036851286E+00
DEBUG_STATS_RL:          Salt (THERMODYNAMICS)  min=  2.00000000000000E-02
DEBUG_STATS_RL:          Salt (THERMODYNAMICS)  max=  3.74714062048233E+01
DEBUG_STATS_RL:          Salt (THERMODYNAMICS) mean=  1.88649011977715E+01
DEBUG_STATS_RL:          Salt (THERMODYNAMICS) S.D.=  1.73004089297213E+01
DEBUG_STATS_RL:         GtNm1 (THERMODYNAMICS)  min= -3.96203912985132E-06
DEBUG_STATS_RL:         GtNm1 (THERMODYNAMICS)  max=  2.44422105731728E-06
DEBUG_STATS_RL:         GtNm1 (THERMODYNAMICS) mean=  4.91403222697742E-09
DEBUG_STATS_RL:         GtNm1 (THERMODYNAMICS) S.D.=  2.21317971649327E-07
DEBUG_STATS_RL:         GsNm1 (THERMODYNAMICS)  min= -8.21045580499435E-07
DEBUG_STATS_RL:         GsNm1 (THERMODYNAMICS)  max=  6.23537715598150E-07
DEBUG_STATS_RL:         GsNm1 (THERMODYNAMICS) mean= -5.68006916022463E-10
DEBUG_STATS_RL:         GsNm1 (THERMODYNAMICS) S.D.=  2.07602848938020E-08
DEBUG_STATS_RL:                EtaN (DYNAMICS)  min= -1.90377497005551E+00
DEBUG_STATS_RL:                EtaN (DYNAMICS)  max=  1.04958228219126E+00
DEBUG_STATS_RL:                EtaN (DYNAMICS) mean= -1.48985625020559E-01
DEBUG_STATS_RL:                EtaN (DYNAMICS) S.D.=  6.57937865342215E-01
DEBUG_STATS_RL:                Uvel (DYNAMICS)  min= -1.80958633930699E-01
DEBUG_STATS_RL:                Uvel (DYNAMICS)  max=  1.66678990829023E-01
DEBUG_STATS_RL:                Uvel (DYNAMICS) mean=  3.78700696974339E-03
DEBUG_STATS_RL:                Uvel (DYNAMICS) S.D.=  2.34459333461096E-02
DEBUG_STATS_RL:                Vvel (DYNAMICS)  min= -1.23046099510636E-01
DEBUG_STATS_RL:                Vvel (DYNAMICS)  max=  1.27381480069445E-01
DEBUG_STATS_RL:                Vvel (DYNAMICS) mean=  4.02835266818204E-04
DEBUG_STATS_RL:                Vvel (DYNAMICS) S.D.=  1.48496729721732E-02
DEBUG_STATS_RL:                Wvel (DYNAMICS)  min= -2.00914709393499E-04
DEBUG_STATS_RL:                Wvel (DYNAMICS)  max=  1.68733571357630E-04
DEBUG_STATS_RL:                Wvel (DYNAMICS) mean= -5.21172847497441E-08
DEBUG_STATS_RL:                Wvel (DYNAMICS) S.D.=  1.56461504340581E-05
DEBUG_STATS_RL:               Theta (DYNAMICS)  min= -2.00620043636824E+00
DEBUG_STATS_RL:               Theta (DYNAMICS)  max=  3.00275628250873E+01
DEBUG_STATS_RL:               Theta (DYNAMICS) mean=  3.22915339990660E+00
DEBUG_STATS_RL:               Theta (DYNAMICS) S.D.=  5.85867036851286E+00
DEBUG_STATS_RL:                Salt (DYNAMICS)  min=  2.00000000000000E-02
DEBUG_STATS_RL:                Salt (DYNAMICS)  max=  3.74714062048233E+01
DEBUG_STATS_RL:                Salt (DYNAMICS) mean=  1.88649011977715E+01
DEBUG_STATS_RL:                Salt (DYNAMICS) S.D.=  1.73004089297213E+01
DEBUG_STATS_RL:                  Gu (DYNAMICS)  min= -1.83380958429835E-01
DEBUG_STATS_RL:                  Gu (DYNAMICS)  max=  1.55584268829973E-01
DEBUG_STATS_RL:                  Gu (DYNAMICS) mean=  4.09896625177954E-03
DEBUG_STATS_RL:                  Gu (DYNAMICS) S.D.=  2.43103113709593E-02
DEBUG_STATS_RL:                  Gv (DYNAMICS)  min= -1.26103766227863E-01
DEBUG_STATS_RL:                  Gv (DYNAMICS)  max=  1.19149466862304E-01
DEBUG_STATS_RL:                  Gv (DYNAMICS) mean=  2.65742150437312E-03
DEBUG_STATS_RL:                  Gv (DYNAMICS) S.D.=  1.54013623957148E-02
DEBUG_STATS_RL:               GuNm1 (DYNAMICS)  min= -8.01850383899499E-06
DEBUG_STATS_RL:               GuNm1 (DYNAMICS)  max=  7.60460914491881E-06
DEBUG_STATS_RL:               GuNm1 (DYNAMICS) mean= -1.69323259234355E-08
DEBUG_STATS_RL:               GuNm1 (DYNAMICS) S.D.=  1.20624556037296E-06
DEBUG_STATS_RL:               GvNm1 (DYNAMICS)  min= -1.09246890626856E-05
DEBUG_STATS_RL:               GvNm1 (DYNAMICS)  max=  1.66720691376622E-05
DEBUG_STATS_RL:               GvNm1 (DYNAMICS) mean=  7.65460110683319E-07
DEBUG_STATS_RL:               GvNm1 (DYNAMICS) S.D.=  2.66219377291184E-06
DEBUG_STATS_RL:               GtNm1 (DYNAMICS)  min= -3.96203912985132E-06
DEBUG_STATS_RL:               GtNm1 (DYNAMICS)  max=  2.44422105731728E-06
DEBUG_STATS_RL:               GtNm1 (DYNAMICS) mean=  4.91403222697742E-09
DEBUG_STATS_RL:               GtNm1 (DYNAMICS) S.D.=  2.21317971649327E-07
DEBUG_STATS_RL:               GsNm1 (DYNAMICS)  min= -8.21045580499435E-07
DEBUG_STATS_RL:               GsNm1 (DYNAMICS)  max=  6.23537715598150E-07
DEBUG_STATS_RL:               GsNm1 (DYNAMICS) mean= -5.68006916022463E-10
DEBUG_STATS_RL:               GsNm1 (DYNAMICS) S.D.=  2.07602848938020E-08
DEBUG_STATS_RL:    cg2d_b (SOLVE_FOR_PRESSURE)  min= -2.07487064637478E+04
DEBUG_STATS_RL:    cg2d_b (SOLVE_FOR_PRESSURE)  max=  1.99415935879262E+04
DEBUG_STATS_RL:    cg2d_b (SOLVE_FOR_PRESSURE) mean=  2.20186102711591E+00
DEBUG_STATS_RL:    cg2d_b (SOLVE_FOR_PRESSURE) S.D.=  3.92068403492780E+03
 cg2d: Sum(rhs),rhsMax =   2.45668725743462E-01  1.36283059365913E+00
(PID.TID 0000.0001)  cg2d: iter=     1 ; resid.=  3.08274843101062E-01
(PID.TID 0000.0001)  cg2d: iter=     2 ; resid.=  2.87146246452975E-01
(PID.TID 0000.0001)  cg2d: iter=     3 ; resid.=  2.60554928826770E-01
(PID.TID 0000.0001)  cg2d: iter=     4 ; resid.=  2.28186727099598E-01
(PID.TID 0000.0001)  cg2d: iter=     5 ; resid.=  2.10625667728749E-01
(PID.TID 0000.0001)  cg2d: iter=     6 ; resid.=  1.84347289709093E-01
(PID.TID 0000.0001)  cg2d: iter=     7 ; resid.=  1.51943485450594E-01
(PID.TID 0000.0001)  cg2d: iter=     8 ; resid.=  1.10444401337456E-01
(PID.TID 0000.0001)  cg2d: iter=     9 ; resid.=  8.48751522532846E-02
(PID.TID 0000.0001)  cg2d: iter=    10 ; resid.=  7.27575729853608E-02
(PID.TID 0000.0001)  cg2d: iter=    11 ; resid.=  6.34056176639918E-02
(PID.TID 0000.0001)  cg2d: iter=    12 ; resid.=  5.35971227183071E-02
(PID.TID 0000.0001)  cg2d: iter=    13 ; resid.=  4.29036124355194E-02
(PID.TID 0000.0001)  cg2d: iter=    14 ; resid.=  3.34874980066510E-02
(PID.TID 0000.0001)  cg2d: iter=    15 ; resid.=  2.66080474380262E-02
(PID.TID 0000.0001)  cg2d: iter=    16 ; resid.=  2.38614661956785E-02
(PID.TID 0000.0001)  cg2d: iter=    17 ; resid.=  2.06238335856917E-02
(PID.TID 0000.0001)  cg2d: iter=    18 ; resid.=  1.82144903130031E-02
(PID.TID 0000.0001)  cg2d: iter=    19 ; resid.=  1.41253252157831E-02
(PID.TID 0000.0001)  cg2d: iter=    20 ; resid.=  1.16786247325891E-02
(PID.TID 0000.0001)  cg2d: iter=    21 ; resid.=  1.01738503520547E-02
(PID.TID 0000.0001)  cg2d: iter=    22 ; resid.=  9.02773743747561E-03
(PID.TID 0000.0001)  cg2d: iter=    23 ; resid.=  7.77540256725758E-03
(PID.TID 0000.0001)  cg2d: iter=    24 ; resid.=  6.59512922271227E-03
(PID.TID 0000.0001)  cg2d: iter=    25 ; resid.=  4.85022670132905E-03
(PID.TID 0000.0001)  cg2d: iter=    26 ; resid.=  4.09222930930759E-03
(PID.TID 0000.0001)  cg2d: iter=    27 ; resid.=  3.42009088040804E-03
(PID.TID 0000.0001)  cg2d: iter=    28 ; resid.=  2.79740315202425E-03
(PID.TID 0000.0001)  cg2d: iter=    29 ; resid.=  2.23589388808810E-03
(PID.TID 0000.0001)  cg2d: iter=    30 ; resid.=  1.80149266416742E-03
(PID.TID 0000.0001)  cg2d: iter=    31 ; resid.=  1.51066143758083E-03
(PID.TID 0000.0001)  cg2d: iter=    32 ; resid.=  1.24577084472657E-03
(PID.TID 0000.0001)  cg2d: iter=    33 ; resid.=  1.00913986904913E-03
(PID.TID 0000.0001)  cg2d: iter=    34 ; resid.=  8.37238273617781E-04
(PID.TID 0000.0001)  cg2d: iter=    35 ; resid.=  6.86046600257545E-04
(PID.TID 0000.0001)  cg2d: iter=    36 ; resid.=  5.74102115978909E-04
(PID.TID 0000.0001)  cg2d: iter=    37 ; resid.=  5.21290427557974E-04
(PID.TID 0000.0001)  cg2d: iter=    38 ; resid.=  4.66244834217459E-04
(PID.TID 0000.0001)  cg2d: iter=    39 ; resid.=  3.85220959364827E-04
(PID.TID 0000.0001)  cg2d: iter=    40 ; resid.=  3.20883519412562E-04
(PID.TID 0000.0001)  cg2d: iter=    41 ; resid.=  2.85728877202978E-04
(PID.TID 0000.0001)  cg2d: iter=    42 ; resid.=  2.61925451331370E-04
(PID.TID 0000.0001)  cg2d: iter=    43 ; resid.=  2.12243914135453E-04
(PID.TID 0000.0001)  cg2d: iter=    44 ; resid.=  1.72048618976203E-04
(PID.TID 0000.0001)  cg2d: iter=    45 ; resid.=  1.39686404501768E-04
(PID.TID 0000.0001)  cg2d: iter=    46 ; resid.=  1.13401314964429E-04
(PID.TID 0000.0001)  cg2d: iter=    47 ; resid.=  9.48586363199317E-05
(PID.TID 0000.0001)  cg2d: iter=    48 ; resid.=  7.40433618728034E-05
(PID.TID 0000.0001)  cg2d: iter=    49 ; resid.=  5.64137542382757E-05
(PID.TID 0000.0001)  cg2d: iter=    50 ; resid.=  4.76162571911391E-05
(PID.TID 0000.0001)  cg2d: iter=    51 ; resid.=  4.29356050867877E-05
(PID.TID 0000.0001)  cg2d: iter=    52 ; resid.=  3.75552231489806E-05
(PID.TID 0000.0001)  cg2d: iter=    53 ; resid.=  3.36200754687695E-05
(PID.TID 0000.0001)  cg2d: iter=    54 ; resid.=  2.73056853580770E-05
(PID.TID 0000.0001)  cg2d: iter=    55 ; resid.=  2.40774448335364E-05
(PID.TID 0000.0001)  cg2d: iter=    56 ; resid.=  2.19187674489460E-05
(PID.TID 0000.0001)  cg2d: iter=    57 ; resid.=  1.72579164324176E-05
(PID.TID 0000.0001)  cg2d: iter=    58 ; resid.=  1.37212732266220E-05
(PID.TID 0000.0001)  cg2d: iter=    59 ; resid.=  1.05584860477648E-05
(PID.TID 0000.0001)  cg2d: iter=    60 ; resid.=  8.38877162861544E-06
(PID.TID 0000.0001)  cg2d: iter=    61 ; resid.=  6.93239504487989E-06
(PID.TID 0000.0001)  cg2d: iter=    62 ; resid.=  5.86401322377703E-06
(PID.TID 0000.0001)  cg2d: iter=    63 ; resid.=  4.44913505338848E-06
(PID.TID 0000.0001)  cg2d: iter=    64 ; resid.=  3.75378141910019E-06
(PID.TID 0000.0001)  cg2d: iter=    65 ; resid.=  2.77270001680889E-06
(PID.TID 0000.0001)  cg2d: iter=    66 ; resid.=  2.34808221162037E-06
(PID.TID 0000.0001)  cg2d: iter=    67 ; resid.=  2.14096796704100E-06
(PID.TID 0000.0001)  cg2d: iter=    68 ; resid.=  1.84155608819646E-06
(PID.TID 0000.0001)  cg2d: iter=    69 ; resid.=  1.51240864798009E-06
(PID.TID 0000.0001)  cg2d: iter=    70 ; resid.=  1.27172368971428E-06
(PID.TID 0000.0001)  cg2d: iter=    71 ; resid.=  1.03022183892127E-06
(PID.TID 0000.0001)  cg2d: iter=    72 ; resid.=  9.05279023746090E-07
(PID.TID 0000.0001)  cg2d: iter=    73 ; resid.=  7.81431389637550E-07
(PID.TID 0000.0001)  cg2d: iter=    74 ; resid.=  6.83523504011453E-07
(PID.TID 0000.0001)  cg2d: iter=    75 ; resid.=  5.58520517942966E-07
(PID.TID 0000.0001)  cg2d: iter=    76 ; resid.=  4.86877530771556E-07
(PID.TID 0000.0001)  cg2d: iter=    77 ; resid.=  3.86448967463495E-07
(PID.TID 0000.0001)  cg2d: iter=    78 ; resid.=  2.98026607146267E-07
(PID.TID 0000.0001)  cg2d: iter=    79 ; resid.=  2.38033897959760E-07
(PID.TID 0000.0001)  cg2d: iter=    80 ; resid.=  1.73738835282639E-07
(PID.TID 0000.0001)  cg2d: iter=    81 ; resid.=  1.38566262581229E-07
(PID.TID 0000.0001)  cg2d: iter=    82 ; resid.=  1.08368018286691E-07
(PID.TID 0000.0001)  cg2d: iter=    83 ; resid.=  8.02135921525246E-08
(PID.TID 0000.0001)  cg2d: iter=    84 ; resid.=  5.87627994846716E-08
(PID.TID 0000.0001)  cg2d: iter=    85 ; resid.=  4.38864998047633E-08
(PID.TID 0000.0001)  cg2d: iter=    86 ; resid.=  3.16826842623688E-08
(PID.TID 0000.0001)  cg2d: iter=    87 ; resid.=  2.26573243694778E-08
(PID.TID 0000.0001)  cg2d: iter=    88 ; resid.=  1.77281842566227E-08
(PID.TID 0000.0001)  cg2d: iter=    89 ; resid.=  1.51226481875808E-08
(PID.TID 0000.0001)  cg2d: iter=    90 ; resid.=  1.34603405259493E-08
(PID.TID 0000.0001)  cg2d: iter=    91 ; resid.=  1.11408188171131E-08
(PID.TID 0000.0001)  cg2d: iter=    92 ; resid.=  8.72662564932689E-09
(PID.TID 0000.0001)  cg2d: iter=    93 ; resid.=  7.37520890215282E-09
(PID.TID 0000.0001)  cg2d: iter=    94 ; resid.=  5.88010048242239E-09
(PID.TID 0000.0001)  cg2d: iter=    95 ; resid.=  4.82294785915805E-09
(PID.TID 0000.0001)  cg2d: iter=    96 ; resid.=  3.61982679636584E-09
(PID.TID 0000.0001)  cg2d: iter=    97 ; resid.=  2.93976993755418E-09
(PID.TID 0000.0001)  cg2d: iter=    98 ; resid.=  2.43617437363731E-09
(PID.TID 0000.0001)  cg2d: iter=    99 ; resid.=  2.07228973038245E-09
(PID.TID 0000.0001)  cg2d: iter=   100 ; resid.=  1.71836917363678E-09
(PID.TID 0000.0001)  cg2d: iter=   101 ; resid.=  1.36248362990537E-09
(PID.TID 0000.0001)  cg2d: iter=   102 ; resid.=  1.07521380767960E-09
(PID.TID 0000.0001)  cg2d: iter=   103 ; resid.=  7.95520004819181E-10
(PID.TID 0000.0001)  cg2d: iter=   104 ; resid.=  6.67610766531551E-10
(PID.TID 0000.0001)  cg2d: iter=   105 ; resid.=  5.37258221132466E-10
(PID.TID 0000.0001)  cg2d: iter=   106 ; resid.=  4.60882521941867E-10
(PID.TID 0000.0001)  cg2d: iter=   107 ; resid.=  3.92011537445572E-10
(PID.TID 0000.0001)  cg2d: iter=   108 ; resid.=  2.87046748833592E-10
(PID.TID 0000.0001)  cg2d: iter=   109 ; resid.=  2.19758030490087E-10
(PID.TID 0000.0001)  cg2d: iter=   110 ; resid.=  1.63485382476154E-10
(PID.TID 0000.0001)  cg2d: iter=   111 ; resid.=  1.18271791796146E-10
(PID.TID 0000.0001)  cg2d: iter=   112 ; resid.=  8.79104916739276E-11
(PID.TID 0000.0001)  cg2d: iter=   113 ; resid.=  6.26700352758803E-11
(PID.TID 0000.0001)  cg2d: iter=   114 ; resid.=  4.89028614156558E-11
(PID.TID 0000.0001)  cg2d: iter=   115 ; resid.=  3.71341910483388E-11
(PID.TID 0000.0001)  cg2d: iter=   116 ; resid.=  2.77290603644919E-11
(PID.TID 0000.0001)  cg2d: iter=   117 ; resid.=  2.16753280523258E-11
(PID.TID 0000.0001)  cg2d: iter=   118 ; resid.=  1.75124256051656E-11
(PID.TID 0000.0001)  cg2d: iter=   119 ; resid.=  1.35401851072460E-11
(PID.TID 0000.0001)  cg2d: iter=   120 ; resid.=  1.04491854546546E-11
(PID.TID 0000.0001)  cg2d: iter=   121 ; resid.=  7.91227705711796E-12
(PID.TID 0000.0001)  cg2d: iter=   122 ; resid.=  5.67853873754055E-12
(PID.TID 0000.0001)  cg2d: iter=   123 ; resid.=  4.27022848216004E-12
(PID.TID 0000.0001)  cg2d: iter=   124 ; resid.=  3.39696683880170E-12
(PID.TID 0000.0001)  cg2d: iter=   125 ; resid.=  2.48043795486525E-12
(PID.TID 0000.0001)  cg2d: iter=   126 ; resid.=  1.61463951635809E-12
(PID.TID 0000.0001)  cg2d: iter=   127 ; resid.=  9.97582140370671E-13
(PID.TID 0000.0001)  cg2d: iter=   128 ; resid.=  6.89072793821189E-13
(PID.TID 0000.0001)  cg2d: iter=   129 ; resid.=  4.78923830736797E-13
(PID.TID 0000.0001)  cg2d: iter=   130 ; resid.=  3.51201222105704E-13
(PID.TID 0000.0001)  cg2d: iter=   131 ; resid.=  2.48445970648162E-13
(PID.TID 0000.0001)  cg2d: iter=   132 ; resid.=  1.77666944476408E-13
(PID.TID 0000.0001)  cg2d: iter=   133 ; resid.=  1.29609108430378E-13
(PID.TID 0000.0001)  cg2d: iter=   134 ; resid.=  1.02789495310552E-13
(PID.TID 0000.0001)  cg2d: iter=   135 ; resid.=  8.09830142777184E-14
DEBUG_STATS_RL:    cg2d_x (SOLVE_FOR_PRESSURE)  min= -1.81492382314194E+01
DEBUG_STATS_RL:    cg2d_x (SOLVE_FOR_PRESSURE)  max=  1.04286515976549E+01
DEBUG_STATS_RL:    cg2d_x (SOLVE_FOR_PRESSURE) mean= -1.47987120542944E+00
DEBUG_STATS_RL:    cg2d_x (SOLVE_FOR_PRESSURE) S.D.=  6.42744432737480E+00
(PID.TID 0000.0001)      cg2d_init_res =   5.42850160719292E-01
(PID.TID 0000.0001)      cg2d_iters(min,last) =      -1     135
(PID.TID 0000.0001)      cg2d_last_res =   8.09830142777184E-14
(PID.TID 0000.0001) // =======================================================
(PID.TID 0000.0001) // Begin MONITOR dynamic field statistics
(PID.TID 0000.0001) // =======================================================
(PID.TID 0000.0001) %MON time_tsnumber                =                    31
(PID.TID 0000.0001) %MON time_secondsf                =   2.6784000000000E+06
(PID.TID 0000.0001) %MON dynstat_eta_max              =   1.0630633636753E+00
(PID.TID 0000.0001) %MON dynstat_eta_min              =  -1.8500752529479E+00
(PID.TID 0000.0001) %MON dynstat_eta_mean             =  -2.2973689600418E-03
(PID.TID 0000.0001) %MON dynstat_eta_sd               =   5.6082920726325E-01
(PID.TID 0000.0001) %MON dynstat_eta_del2             =   2.1743961302788E-03
(PID.TID 0000.0001) %MON dynstat_uvel_max             =   1.6861402249187E-01
(PID.TID 0000.0001) %MON dynstat_uvel_min             =  -1.8189144102189E-01
(PID.TID 0000.0001) %MON dynstat_uvel_mean            =   2.4625324161913E-03
(PID.TID 0000.0001) %MON dynstat_uvel_sd              =   1.7839047707457E-02
(PID.TID 0000.0001) %MON dynstat_uvel_del2            =   9.1832426325733E-05
(PID.TID 0000.0001) %MON dynstat_vvel_max             =   1.2742902856826E-01
(PID.TID 0000.0001) %MON dynstat_vvel_min             =  -1.1968206659658E-01
(PID.TID 0000.0001) %MON dynstat_vvel_mean            =  -1.2806013393096E-04
(PID.TID 0000.0001) %MON dynstat_vvel_sd              =   1.0414207059629E-02
(PID.TID 0000.0001) %MON dynstat_vvel_del2            =   8.6026278351952E-05
(PID.TID 0000.0001) %MON dynstat_wvel_max             =   1.7111763118989E-04
(PID.TID 0000.0001) %MON dynstat_wvel_min             =  -1.9457195097049E-04
(PID.TID 0000.0001) %MON dynstat_wvel_mean            =   2.4514983177643E-22
(PID.TID 0000.0001) %MON dynstat_wvel_sd              =   1.7312531530728E-05
(PID.TID 0000.0001) %MON dynstat_wvel_del2            =   1.9684162399418E-07
(PID.TID 0000.0001) %MON dynstat_theta_max            =   3.0027562825087E+01
(PID.TID 0000.0001) %MON dynstat_theta_min            =  -2.0062004363682E+00
(PID.TID 0000.0001) %MON dynstat_theta_mean           =   3.6411289294505E+00
(PID.TID 0000.0001) %MON dynstat_theta_sd             =   4.4175717051016E+00
(PID.TID 0000.0001) %MON dynstat_theta_del2           =   4.8553225451024E-03
(PID.TID 0000.0001) %MON dynstat_salt_max             =   3.7471406204823E+01
(PID.TID 0000.0001) %MON dynstat_salt_min             =   2.9848511481881E+01
(PID.TID 0000.0001) %MON dynstat_salt_mean            =   3.4737961020571E+01
(PID.TID 0000.0001) %MON dynstat_salt_sd              =   2.9620789756104E-01
(PID.TID 0000.0001) %MON dynstat_salt_del2            =   9.9709577174533E-04
(PID.TID 0000.0001) %MON dynstat_sst_max              =   3.0027562825087E+01
(PID.TID 0000.0001) %MON dynstat_sst_min              =  -2.0062004363682E+00
(PID.TID 0000.0001) %MON dynstat_sst_mean             =   1.8762695493029E+01
(PID.TID 0000.0001) %MON dynstat_sst_sd               =   9.0484540552274E+00
(PID.TID 0000.0001) %MON dynstat_sst_del2             =   2.6739021799587E-02
(PID.TID 0000.0001) %MON dynstat_sss_max              =   3.7451287454062E+01
(PID.TID 0000.0001) %MON dynstat_sss_min              =   2.9848511481881E+01
(PID.TID 0000.0001) %MON dynstat_sss_mean             =   3.4866077073249E+01
(PID.TID 0000.0001) %MON dynstat_sss_sd               =   9.7532124413268E-01
(PID.TID 0000.0001) %MON dynstat_sss_del2             =   7.8802954538489E-03
(PID.TID 0000.0001) %MON forcing_qnet_max             =   3.9182731628418E+02
(PID.TID 0000.0001) %MON forcing_qnet_min             =  -1.7642675781250E+02
(PID.TID 0000.0001) %MON forcing_qnet_mean            =  -1.5238888489994E+01
(PID.TID 0000.0001) %MON forcing_qnet_sd              =   9.4114712979606E+01
(PID.TID 0000.0001) %MON forcing_qnet_del2            =   9.7322307830092E-01
(PID.TID 0000.0001) %MON forcing_qsw_max              =   0.0000000000000E+00
(PID.TID 0000.0001) %MON forcing_qsw_min              =   0.0000000000000E+00
(PID.TID 0000.0001) %MON forcing_qsw_mean             =   0.0000000000000E+00
(PID.TID 0000.0001) %MON forcing_qsw_sd               =   0.0000000000000E+00
(PID.TID 0000.0001) %MON forcing_qsw_del2             =   0.0000000000000E+00
(PID.TID 0000.0001) %MON forcing_empmr_max            =   7.7462892988933E-05
(PID.TID 0000.0001) %MON forcing_empmr_min            =  -7.7350620131256E-05
(PID.TID 0000.0001) %MON forcing_empmr_mean           =   9.3317302101000E-07
(PID.TID 0000.0001) %MON forcing_empmr_sd             =   2.8186220289087E-05
(PID.TID 0000.0001) %MON forcing_empmr_del2           =   3.5503679705846E-07
(PID.TID 0000.0001) %MON forcing_fu_max               =   2.8382815420628E-01
(PID.TID 0000.0001) %MON forcing_fu_min               =  -1.9083349406719E-01
(PID.TID 0000.0001) %MON forcing_fu_mean              =   1.6816238384601E-02
(PID.TID 0000.0001) %MON forcing_fu_sd                =   9.0089488020582E-02
(PID.TID 0000.0001) %MON forcing_fu_del2              =   6.6869774104657E-04
(PID.TID 0000.0001) %MON forcing_fv_max               =   1.8921542167664E-01
(PID.TID 0000.0001) %MON forcing_fv_min               =  -1.6326740384102E-01
(PID.TID 0000.0001) %MON forcing_fv_mean              =  -6.2378113402327E-03
(PID.TID 0000.0001) %MON forcing_fv_sd                =   4.4915007548310E-02
(PID.TID 0000.0001) %MON forcing_fv_del2              =   4.6591560448849E-04
(PID.TID 0000.0001) %MON trAdv_CFL_u_max              =   5.5104533181376E-02
(PID.TID 0000.0001) %MON trAdv_CFL_v_max              =   2.4953514251767E-02
(PID.TID 0000.0001) %MON trAdv_CFL_w_max              =   8.3084244964680E-02
(PID.TID 0000.0001) %MON advcfl_uvel_max              =   5.5732940216863E-02
(PID.TID 0000.0001) %MON advcfl_vvel_max              =   2.4757416534903E-02
(PID.TID 0000.0001) %MON advcfl_wvel_max              =   7.3929870109498E-02
(PID.TID 0000.0001) %MON advcfl_W_hf_max              =   8.3657484597590E-02
(PID.TID 0000.0001) %MON pe_b_mean                    =   4.0248503177455E-04
(PID.TID 0000.0001) %MON ke_max                       =   1.6513623174534E-02
(PID.TID 0000.0001) %MON ke_mean                      =   1.9603032346432E-04
(PID.TID 0000.0001) %MON ke_vol                       =   1.3226782436723E+18
(PID.TID 0000.0001) %MON vort_r_min                   =  -4.2065049435774E-07
(PID.TID 0000.0001) %MON vort_r_max                   =   4.9388724343618E-07
(PID.TID 0000.0001) %MON vort_a_mean                  =  -2.5274807889759E-05
(PID.TID 0000.0001) %MON vort_a_sd                    =   7.3604618912605E-05
(PID.TID 0000.0001) %MON vort_p_mean                  =  -3.1845656419769E-05
(PID.TID 0000.0001) %MON vort_p_sd                    =   1.3162768471841E-04
(PID.TID 0000.0001) %MON surfExpan_theta_mean         =   3.8540942020394E-07
(PID.TID 0000.0001) %MON surfExpan_salt_mean          =  -2.3768563613931E-07
(PID.TID 0000.0001) // =======================================================
(PID.TID 0000.0001) // End MONITOR dynamic field statistics
(PID.TID 0000.0001) // =======================================================
 EXTERNAL_FIELDS_LOAD,        31 : iP,iLd,i0,i1=    1    2    1    2 ; Wght=  0.4666666667  0.5333333333
 EXTERNAL_FIELDS_LOAD: (fu0,1),fu,fv= -3.5633E-02 -1.4435E-02 -2.4327E-02 -3.6125E-02
 EXTERNAL_FIELDS_LOAD: SST,SSS,Q,E-P=  1.6361E-01  3.4558E+01  2.5228E+02  9.8983E-06
DEBUG_STATS_RL:          Uvel (THERMODYNAMICS)  min= -1.81891441021885E-01
DEBUG_STATS_RL:          Uvel (THERMODYNAMICS)  max=  1.68614022491873E-01
DEBUG_STATS_RL:          Uvel (THERMODYNAMICS) mean=  4.01293928316298E-03
DEBUG_STATS_RL:          Uvel (THERMODYNAMICS) S.D.=  2.38837842684627E-02
DEBUG_STATS_RL:          Vvel (THERMODYNAMICS)  min= -1.19682066596583E-01
DEBUG_STATS_RL:          Vvel (THERMODYNAMICS)  max=  1.27429028568265E-01
DEBUG_STATS_RL:          Vvel (THERMODYNAMICS) mean=  1.70673846926683E-04
DEBUG_STATS_RL:          Vvel (THERMODYNAMICS) S.D.=  1.46696321787771E-02
DEBUG_STATS_RL:          Wvel (THERMODYNAMICS)  min= -1.94571950970491E-04
DEBUG_STATS_RL:          Wvel (THERMODYNAMICS)  max=  1.71117631189885E-04
DEBUG_STATS_RL:          Wvel (THERMODYNAMICS) mean= -1.26550260234395E-07
DEBUG_STATS_RL:          Wvel (THERMODYNAMICS) S.D.=  1.57877336609609E-05
DEBUG_STATS_RL:         Theta (THERMODYNAMICS)  min= -2.00567282757690E+00
DEBUG_STATS_RL:         Theta (THERMODYNAMICS)  max=  3.00472784989128E+01
DEBUG_STATS_RL:         Theta (THERMODYNAMICS) mean=  3.22946926628788E+00
DEBUG_STATS_RL:         Theta (THERMODYNAMICS) S.D.=  5.85893854265750E+00
DEBUG_STATS_RL:          Salt (THERMODYNAMICS)  min=  2.00000000000000E-02
DEBUG_STATS_RL:          Salt (THERMODYNAMICS)  max=  3.74723458223999E+01
DEBUG_STATS_RL:          Salt (THERMODYNAMICS) mean=  1.88648813860996E+01
DEBUG_STATS_RL:          Salt (THERMODYNAMICS) S.D.=  1.73003917324491E+01
DEBUG_STATS_RL:         GtNm1 (THERMODYNAMICS)  min= -3.82033994239293E-06
DEBUG_STATS_RL:         GtNm1 (THERMODYNAMICS)  max=  2.52200356535703E-06
DEBUG_STATS_RL:         GtNm1 (THERMODYNAMICS) mean=  6.24321332661129E-09
DEBUG_STATS_RL:         GtNm1 (THERMODYNAMICS) S.D.=  2.17993354701683E-07
DEBUG_STATS_RL:         GsNm1 (THERMODYNAMICS)  min= -7.82284021181394E-07
DEBUG_STATS_RL:         GsNm1 (THERMODYNAMICS)  max=  5.94496955730223E-07
DEBUG_STATS_RL:         GsNm1 (THERMODYNAMICS) mean= -5.14287539261068E-10
DEBUG_STATS_RL:         GsNm1 (THERMODYNAMICS) S.D.=  2.04867485360109E-08
DEBUG_STATS_RL:                EtaN (DYNAMICS)  min= -1.85007525294790E+00
DEBUG_STATS_RL:                EtaN (DYNAMICS)  max=  1.06306336367531E+00
DEBUG_STATS_RL:                EtaN (DYNAMICS) mean= -1.50853333886794E-01
DEBUG_STATS_RL:                EtaN (DYNAMICS) S.D.=  6.55193101669195E-01
DEBUG_STATS_RL:                Uvel (DYNAMICS)  min= -1.81891441021885E-01
DEBUG_STATS_RL:                Uvel (DYNAMICS)  max=  1.68614022491873E-01
DEBUG_STATS_RL:                Uvel (DYNAMICS) mean=  4.01293928316298E-03
DEBUG_STATS_RL:                Uvel (DYNAMICS) S.D.=  2.38837842684627E-02
DEBUG_STATS_RL:                Vvel (DYNAMICS)  min= -1.19682066596583E-01
DEBUG_STATS_RL:                Vvel (DYNAMICS)  max=  1.27429028568265E-01
DEBUG_STATS_RL:                Vvel (DYNAMICS) mean=  1.70673846926683E-04
DEBUG_STATS_RL:                Vvel (DYNAMICS) S.D.=  1.46696321787771E-02
DEBUG_STATS_RL:                Wvel (DYNAMICS)  min= -1.94571950970491E-04
DEBUG_STATS_RL:                Wvel (DYNAMICS)  max=  1.71117631189885E-04
DEBUG_STATS_RL:                Wvel (DYNAMICS) mean= -1.26550260234395E-07
DEBUG_STATS_RL:                Wvel (DYNAMICS) S.D.=  1.57877336609609E-05
DEBUG_STATS_RL:               Theta (DYNAMICS)  min= -2.00567282757690E+00
DEBUG_STATS_RL:               Theta (DYNAMICS)  max=  3.00472784989128E+01
DEBUG_STATS_RL:               Theta (DYNAMICS) mean=  3.22946926628788E+00
DEBUG_STATS_RL:               Theta (DYNAMICS) S.D.=  5.85893854265750E+00
DEBUG_STATS_RL:                Salt (DYNAMICS)  min=  2.00000000000000E-02
DEBUG_STATS_RL:                Salt (DYNAMICS)  max=  3.74723458223999E+01
DEBUG_STATS_RL:                Salt (DYNAMICS) mean=  1.88648813860996E+01
DEBUG_STATS_RL:                Salt (DYNAMICS) S.D.=  1.73003917324491E+01
DEBUG_STATS_RL:                  Gu (DYNAMICS)  min= -1.83629551935591E-01
DEBUG_STATS_RL:                  Gu (DYNAMICS)  max=  1.52571070808998E-01
DEBUG_STATS_RL:                  Gu (DYNAMICS) mean=  4.22694786491906E-03
DEBUG_STATS_RL:                  Gu (DYNAMICS) S.D.=  2.47081415139508E-02
DEBUG_STATS_RL:                  Gv (DYNAMICS)  min= -1.21612303703891E-01
DEBUG_STATS_RL:                  Gv (DYNAMICS)  max=  1.18968997525165E-01
DEBUG_STATS_RL:                  Gv (DYNAMICS) mean=  2.45929353189447E-03
DEBUG_STATS_RL:                  Gv (DYNAMICS) S.D.=  1.51358393822528E-02
DEBUG_STATS_RL:               GuNm1 (DYNAMICS)  min= -8.18093524896749E-06
DEBUG_STATS_RL:               GuNm1 (DYNAMICS)  max=  7.68694379619914E-06
DEBUG_STATS_RL:               GuNm1 (DYNAMICS) mean= -1.84350165101176E-08
DEBUG_STATS_RL:               GuNm1 (DYNAMICS) S.D.=  1.20409067509460E-06
DEBUG_STATS_RL:               GvNm1 (DYNAMICS)  min= -1.09556753716994E-05
DEBUG_STATS_RL:               GvNm1 (DYNAMICS)  max=  1.66234798237575E-05
DEBUG_STATS_RL:               GvNm1 (DYNAMICS) mean=  7.63153709435336E-07
DEBUG_STATS_RL:               GvNm1 (DYNAMICS) S.D.=  2.66004707835554E-06
DEBUG_STATS_RL:               GtNm1 (DYNAMICS)  min= -3.82033994239293E-06
DEBUG_STATS_RL:               GtNm1 (DYNAMICS)  max=  2.52200356535703E-06
DEBUG_STATS_RL:               GtNm1 (DYNAMICS) mean=  6.24321332661129E-09
DEBUG_STATS_RL:               GtNm1 (DYNAMICS) S.D.=  2.17993354701683E-07
DEBUG_STATS_RL:               GsNm1 (DYNAMICS)  min= -7.82284021181394E-07
DEBUG_STATS_RL:               GsNm1 (DYNAMICS)  max=  5.94496955730223E-07
DEBUG_STATS_RL:               GsNm1 (DYNAMICS) mean= -5.14287539261068E-10
DEBUG_STATS_RL:               GsNm1 (DYNAMICS) S.D.=  2.04867485360109E-08
DEBUG_STATS_RL:    cg2d_b (SOLVE_FOR_PRESSURE)  min= -2.01073617987395E+04
DEBUG_STATS_RL:    cg2d_b (SOLVE_FOR_PRESSURE)  max=  1.97491476335852E+04
DEBUG_STATS_RL:    cg2d_b (SOLVE_FOR_PRESSURE) mean=  2.27657678242797E+00
DEBUG_STATS_RL:    cg2d_b (SOLVE_FOR_PRESSURE) S.D.=  3.91032488108392E+03
 cg2d: Sum(rhs),rhsMax =   2.62106749959279E-01  1.32070535890869E+00
(PID.TID 0000.0001)  cg2d: iter=     1 ; resid.=  3.27297994067557E-01
(PID.TID 0000.0001)  cg2d: iter=     2 ; resid.=  3.05545233721819E-01
(PID.TID 0000.0001)  cg2d: iter=     3 ; resid.=  2.82359250577488E-01
(PID.TID 0000.0001)  cg2d: iter=     4 ; resid.=  2.54549917414672E-01
(PID.TID 0000.0001)  cg2d: iter=     5 ; resid.=  2.42151104746041E-01
(PID.TID 0000.0001)  cg2d: iter=     6 ; resid.=  2.08098685060263E-01
(PID.TID 0000.0001)  cg2d: iter=     7 ; resid.=  1.70191062096714E-01
(PID.TID 0000.0001)  cg2d: iter=     8 ; resid.=  1.21429509425257E-01
(PID.TID 0000.0001)  cg2d: iter=     9 ; resid.=  9.06242704612360E-02
(PID.TID 0000.0001)  cg2d: iter=    10 ; resid.=  7.67675138842864E-02
(PID.TID 0000.0001)  cg2d: iter=    11 ; resid.=  6.72398387515697E-02
(PID.TID 0000.0001)  cg2d: iter=    12 ; resid.=  5.74564989842972E-02
(PID.TID 0000.0001)  cg2d: iter=    13 ; resid.=  4.64673802598157E-02
(PID.TID 0000.0001)  cg2d: iter=    14 ; resid.=  3.76474198981196E-02
(PID.TID 0000.0001)  cg2d: iter=    15 ; resid.=  2.96952153310168E-02
(PID.TID 0000.0001)  cg2d: iter=    16 ; resid.=  2.66048738598804E-02
(PID.TID 0000.0001)  cg2d: iter=    17 ; resid.=  2.32144099803065E-02
(PID.TID 0000.0001)  cg2d: iter=    18 ; resid.=  2.05385074635055E-02
(PID.TID 0000.0001)  cg2d: iter=    19 ; resid.=  1.55708072451002E-02
(PID.TID 0000.0001)  cg2d: iter=    20 ; resid.=  1.28076272798395E-02
(PID.TID 0000.0001)  cg2d: iter=    21 ; resid.=  1.11095159829080E-02
(PID.TID 0000.0001)  cg2d: iter=    22 ; resid.=  9.72497094051983E-03
(PID.TID 0000.0001)  cg2d: iter=    23 ; resid.=  8.45983949045327E-03
(PID.TID 0000.0001)  cg2d: iter=    24 ; resid.=  7.41154800069407E-03
(PID.TID 0000.0001)  cg2d: iter=    25 ; resid.=  5.43766617083037E-03
(PID.TID 0000.0001)  cg2d: iter=    26 ; resid.=  4.54689863305874E-03
(PID.TID 0000.0001)  cg2d: iter=    27 ; resid.=  3.72665637751069E-03
(PID.TID 0000.0001)  cg2d: iter=    28 ; resid.=  3.01698573141646E-03
(PID.TID 0000.0001)  cg2d: iter=    29 ; resid.=  2.37612595136966E-03
(PID.TID 0000.0001)  cg2d: iter=    30 ; resid.=  1.92989512024473E-03
(PID.TID 0000.0001)  cg2d: iter=    31 ; resid.=  1.62918813753991E-03
(PID.TID 0000.0001)  cg2d: iter=    32 ; resid.=  1.35994716769944E-03
(PID.TID 0000.0001)  cg2d: iter=    33 ; resid.=  1.12415141916381E-03
(PID.TID 0000.0001)  cg2d: iter=    34 ; resid.=  9.40360720261537E-04
(PID.TID 0000.0001)  cg2d: iter=    35 ; resid.=  7.82661549097877E-04
(PID.TID 0000.0001)  cg2d: iter=    36 ; resid.=  6.59751474528883E-04
(PID.TID 0000.0001)  cg2d: iter=    37 ; resid.=  6.01637513178547E-04
(PID.TID 0000.0001)  cg2d: iter=    38 ; resid.=  5.40526367844791E-04
(PID.TID 0000.0001)  cg2d: iter=    39 ; resid.=  4.50378631604154E-04
(PID.TID 0000.0001)  cg2d: iter=    40 ; resid.=  3.72387618841877E-04
(PID.TID 0000.0001)  cg2d: iter=    41 ; resid.=  3.25127594317654E-04
(PID.TID 0000.0001)  cg2d: iter=    42 ; resid.=  2.93077403841838E-04
(PID.TID 0000.0001)  cg2d: iter=    43 ; resid.=  2.36226095269662E-04
(PID.TID 0000.0001)  cg2d: iter=    44 ; resid.=  1.88942541040216E-04
(PID.TID 0000.0001)  cg2d: iter=    45 ; resid.=  1.48259701606409E-04
(PID.TID 0000.0001)  cg2d: iter=    46 ; resid.=  1.22385457074388E-04
(PID.TID 0000.0001)  cg2d: iter=    47 ; resid.=  1.02839067953725E-04
(PID.TID 0000.0001)  cg2d: iter=    48 ; resid.=  7.93995334602684E-05
(PID.TID 0000.0001)  cg2d: iter=    49 ; resid.=  6.21241003671550E-05
(PID.TID 0000.0001)  cg2d: iter=    50 ; resid.=  5.46837471281737E-05
(PID.TID 0000.0001)  cg2d: iter=    51 ; resid.=  4.98896246215426E-05
(PID.TID 0000.0001)  cg2d: iter=    52 ; resid.=  4.35678214213434E-05
(PID.TID 0000.0001)  cg2d: iter=    53 ; resid.=  3.92182217676195E-05
(PID.TID 0000.0001)  cg2d: iter=    54 ; resid.=  3.13041297932538E-05
(PID.TID 0000.0001)  cg2d: iter=    55 ; resid.=  2.64428392292067E-05
(PID.TID 0000.0001)  cg2d: iter=    56 ; resid.=  2.36364352672500E-05
(PID.TID 0000.0001)  cg2d: iter=    57 ; resid.=  1.85009552283296E-05
(PID.TID 0000.0001)  cg2d: iter=    58 ; resid.=  1.45494561506103E-05
(PID.TID 0000.0001)  cg2d: iter=    59 ; resid.=  1.12083269908020E-05
(PID.TID 0000.0001)  cg2d: iter=    60 ; resid.=  8.87003540204088E-06
(PID.TID 0000.0001)  cg2d: iter=    61 ; resid.=  7.34354557453998E-06
(PID.TID 0000.0001)  cg2d: iter=    62 ; resid.=  6.22626083684269E-06
(PID.TID 0000.0001)  cg2d: iter=    63 ; resid.=  4.82099529017864E-06
(PID.TID 0000.0001)  cg2d: iter=    64 ; resid.=  4.07849035178823E-06
(PID.TID 0000.0001)  cg2d: iter=    65 ; resid.=  3.01514179928776E-06
(PID.TID 0000.0001)  cg2d: iter=    66 ; resid.=  2.60986110362505E-06
(PID.TID 0000.0001)  cg2d: iter=    67 ; resid.=  2.35343890843218E-06
(PID.TID 0000.0001)  cg2d: iter=    68 ; resid.=  2.05067678725254E-06
(PID.TID 0000.0001)  cg2d: iter=    69 ; resid.=  1.68512282245194E-06
(PID.TID 0000.0001)  cg2d: iter=    70 ; resid.=  1.39512637281963E-06
(PID.TID 0000.0001)  cg2d: iter=    71 ; resid.=  1.12960153727732E-06
(PID.TID 0000.0001)  cg2d: iter=    72 ; resid.=  1.00976526188998E-06
(PID.TID 0000.0001)  cg2d: iter=    73 ; resid.=  8.86541932457306E-07
(PID.TID 0000.0001)  cg2d: iter=    74 ; resid.=  7.77688159151628E-07
(PID.TID 0000.0001)  cg2d: iter=    75 ; resid.=  6.32412816849001E-07
(PID.TID 0000.0001)  cg2d: iter=    76 ; resid.=  5.38827408351227E-07
(PID.TID 0000.0001)  cg2d: iter=    77 ; resid.=  4.09128518577188E-07
(PID.TID 0000.0001)  cg2d: iter=    78 ; resid.=  3.07937900528170E-07
(PID.TID 0000.0001)  cg2d: iter=    79 ; resid.=  2.41308660351302E-07
(PID.TID 0000.0001)  cg2d: iter=    80 ; resid.=  1.69139624534235E-07
(PID.TID 0000.0001)  cg2d: iter=    81 ; resid.=  1.30485606539876E-07
(PID.TID 0000.0001)  cg2d: iter=    82 ; resid.=  1.03324306661003E-07
(PID.TID 0000.0001)  cg2d: iter=    83 ; resid.=  7.68418134991995E-08
(PID.TID 0000.0001)  cg2d: iter=    84 ; resid.=  5.54185136432192E-08
(PID.TID 0000.0001)  cg2d: iter=    85 ; resid.=  4.13482755993994E-08
(PID.TID 0000.0001)  cg2d: iter=    86 ; resid.=  2.99781002468313E-08
(PID.TID 0000.0001)  cg2d: iter=    87 ; resid.=  2.13645531115358E-08
(PID.TID 0000.0001)  cg2d: iter=    88 ; resid.=  1.63164632040768E-08
(PID.TID 0000.0001)  cg2d: iter=    89 ; resid.=  1.38148766485927E-08
(PID.TID 0000.0001)  cg2d: iter=    90 ; resid.=  1.26153287640276E-08
(PID.TID 0000.0001)  cg2d: iter=    91 ; resid.=  1.08092417954952E-08
(PID.TID 0000.0001)  cg2d: iter=    92 ; resid.=  8.85080162628965E-09
(PID.TID 0000.0001)  cg2d: iter=    93 ; resid.=  7.82742354630207E-09
(PID.TID 0000.0001)  cg2d: iter=    94 ; resid.=  6.34848038966990E-09
(PID.TID 0000.0001)  cg2d: iter=    95 ; resid.=  5.24066584769802E-09
(PID.TID 0000.0001)  cg2d: iter=    96 ; resid.=  3.89938610773314E-09
(PID.TID 0000.0001)  cg2d: iter=    97 ; resid.=  3.09098410752122E-09
(PID.TID 0000.0001)  cg2d: iter=    98 ; resid.=  2.47887531246991E-09
(PID.TID 0000.0001)  cg2d: iter=    99 ; resid.=  2.05197475794024E-09
(PID.TID 0000.0001)  cg2d: iter=   100 ; resid.=  1.66861987444425E-09
(PID.TID 0000.0001)  cg2d: iter=   101 ; resid.=  1.30868545280150E-09
(PID.TID 0000.0001)  cg2d: iter=   102 ; resid.=  9.98943149960758E-10
(PID.TID 0000.0001)  cg2d: iter=   103 ; resid.=  7.00165682625558E-10
(PID.TID 0000.0001)  cg2d: iter=   104 ; resid.=  5.56049952621808E-10
(PID.TID 0000.0001)  cg2d: iter=   105 ; resid.=  4.23919004520329E-10
(PID.TID 0000.0001)  cg2d: iter=   106 ; resid.=  3.46915123737867E-10
(PID.TID 0000.0001)  cg2d: iter=   107 ; resid.=  2.87359703191702E-10
(PID.TID 0000.0001)  cg2d: iter=   108 ; resid.=  2.10586648905381E-10
(PID.TID 0000.0001)  cg2d: iter=   109 ; resid.=  1.59457966018907E-10
(PID.TID 0000.0001)  cg2d: iter=   110 ; resid.=  1.18378894778141E-10
(PID.TID 0000.0001)  cg2d: iter=   111 ; resid.=  8.81026276686662E-11
(PID.TID 0000.0001)  cg2d: iter=   112 ; resid.=  6.69722498120677E-11
(PID.TID 0000.0001)  cg2d: iter=   113 ; resid.=  4.75294177813644E-11
(PID.TID 0000.0001)  cg2d: iter=   114 ; resid.=  3.70113809073555E-11
(PID.TID 0000.0001)  cg2d: iter=   115 ; resid.=  2.85579834077123E-11
(PID.TID 0000.0001)  cg2d: iter=   116 ; resid.=  2.09878728150916E-11
(PID.TID 0000.0001)  cg2d: iter=   117 ; resid.=  1.64209665618340E-11
(PID.TID 0000.0001)  cg2d: iter=   118 ; resid.=  1.37121718438021E-11
(PID.TID 0000.0001)  cg2d: iter=   119 ; resid.=  1.08938143304458E-11
(PID.TID 0000.0001)  cg2d: iter=   120 ; resid.=  8.72357749428174E-12
(PID.TID 0000.0001)  cg2d: iter=   121 ; resid.=  6.99007611593754E-12
(PID.TID 0000.0001)  cg2d: iter=   122 ; resid.=  5.17402863863503E-12
(PID.TID 0000.0001)  cg2d: iter=   123 ; resid.=  3.91924417240796E-12
(PID.TID 0000.0001)  cg2d: iter=   124 ; resid.=  3.06411269510737E-12
(PID.TID 0000.0001)  cg2d: iter=   125 ; resid.=  2.30860648220960E-12
(PID.TID 0000.0001)  cg2d: iter=   126 ; resid.=  1.57306940230740E-12
(PID.TID 0000.0001)  cg2d: iter=   127 ; resid.=  9.72909245643176E-13
(PID.TID 0000.0001)  cg2d: iter=   128 ; resid.=  6.71265543928389E-13
(PID.TID 0000.0001)  cg2d: iter=   129 ; resid.=  4.62934173672124E-13
(PID.TID 0000.0001)  cg2d: iter=   130 ; resid.=  3.37420572211079E-13
(PID.TID 0000.0001)  cg2d: iter=   131 ; resid.=  2.37933839229586E-13
(PID.TID 0000.0001)  cg2d: iter=   132 ; resid.=  1.71458164795071E-13
(PID.TID 0000.0001)  cg2d: iter=   133 ; resid.=  1.26540684272453E-13
(PID.TID 0000.0001)  cg2d: iter=   134 ; resid.=  1.05486260999640E-13
(PID.TID 0000.0001)  cg2d: iter=   135 ; resid.=  8.71898924820007E-14
DEBUG_STATS_RL:    cg2d_x (SOLVE_FOR_PRESSURE)  min= -1.81305065270383E+01
DEBUG_STATS_RL:    cg2d_x (SOLVE_FOR_PRESSURE)  max=  1.04868130974005E+01
DEBUG_STATS_RL:    cg2d_x (SOLVE_FOR_PRESSURE) mean= -1.50268663869659E+00
DEBUG_STATS_RL:    cg2d_x (SOLVE_FOR_PRESSURE) S.D.=  6.43042835724841E+00
(PID.TID 0000.0001)      cg2d_init_res =   5.55914958093723E-01
(PID.TID 0000.0001)      cg2d_iters(min,last) =      -1     135
(PID.TID 0000.0001)      cg2d_last_res =   8.71898924820007E-14
(PID.TID 0000.0001) // =======================================================
(PID.TID 0000.0001) // Begin MONITOR dynamic field statistics
(PID.TID 0000.0001) // =======================================================
(PID.TID 0000.0001) %MON time_tsnumber                =                    32
(PID.TID 0000.0001) %MON time_secondsf                =   2.7648000000000E+06
(PID.TID 0000.0001) %MON dynstat_eta_max              =   1.0689921607952E+00
(PID.TID 0000.0001) %MON dynstat_eta_min              =  -1.8481658029599E+00
(PID.TID 0000.0001) %MON dynstat_eta_mean             =  -2.3753255862626E-03
(PID.TID 0000.0001) %MON dynstat_eta_sd               =   5.6582955351946E-01
(PID.TID 0000.0001) %MON dynstat_eta_del2             =   2.1857692092263E-03
(PID.TID 0000.0001) %MON dynstat_uvel_max             =   1.6645921150467E-01
(PID.TID 0000.0001) %MON dynstat_uvel_min             =  -1.8210699063480E-01
(PID.TID 0000.0001) %MON dynstat_uvel_mean            =   2.6511845749149E-03
(PID.TID 0000.0001) %MON dynstat_uvel_sd              =   1.8006882703515E-02
(PID.TID 0000.0001) %MON dynstat_uvel_del2            =   9.1696568557550E-05
(PID.TID 0000.0001) %MON dynstat_vvel_max             =   1.2708819812265E-01
(PID.TID 0000.0001) %MON dynstat_vvel_min             =  -1.1530069767604E-01
(PID.TID 0000.0001) %MON dynstat_vvel_mean            =  -1.6381187341494E-04
(PID.TID 0000.0001) %MON dynstat_vvel_sd              =   1.0408093990842E-02
(PID.TID 0000.0001) %MON dynstat_vvel_del2            =   8.6940779412003E-05
(PID.TID 0000.0001) %MON dynstat_wvel_max             =   1.6892304356329E-04
(PID.TID 0000.0001) %MON dynstat_wvel_min             =  -1.8192610586696E-04
(PID.TID 0000.0001) %MON dynstat_wvel_mean            =  -2.7766291996348E-22
(PID.TID 0000.0001) %MON dynstat_wvel_sd              =   1.7440410818977E-05
(PID.TID 0000.0001) %MON dynstat_wvel_del2            =   1.9797957704524E-07
(PID.TID 0000.0001) %MON dynstat_theta_max            =   3.0047278498913E+01
(PID.TID 0000.0001) %MON dynstat_theta_min            =  -2.0056728275769E+00
(PID.TID 0000.0001) %MON dynstat_theta_mean           =   3.6412027922048E+00
(PID.TID 0000.0001) %MON dynstat_theta_sd             =   4.4177131515073E+00
(PID.TID 0000.0001) %MON dynstat_theta_del2           =   4.8463663234602E-03
(PID.TID 0000.0001) %MON dynstat_salt_max             =   3.7472345822400E+01
(PID.TID 0000.0001) %MON dynstat_salt_min             =   2.9847157960274E+01
(PID.TID 0000.0001) %MON dynstat_salt_mean            =   3.4737967740297E+01
(PID.TID 0000.0001) %MON dynstat_salt_sd              =   2.9622709359704E-01
(PID.TID 0000.0001) %MON dynstat_salt_del2            =   9.9559794808666E-04
(PID.TID 0000.0001) %MON dynstat_sst_max              =   3.0047278498913E+01
(PID.TID 0000.0001) %MON dynstat_sst_min              =  -2.0056728275769E+00
(PID.TID 0000.0001) %MON dynstat_sst_mean             =   1.8770907660569E+01
(PID.TID 0000.0001) %MON dynstat_sst_sd               =   9.0448413026007E+00
(PID.TID 0000.0001) %MON dynstat_sst_del2             =   2.6770288135695E-02
(PID.TID 0000.0001) %MON dynstat_sss_max              =   3.7451401760119E+01
(PID.TID 0000.0001) %MON dynstat_sss_min              =   2.9847157960274E+01
(PID.TID 0000.0001) %MON dynstat_sss_mean             =   3.4865644233330E+01
(PID.TID 0000.0001) %MON dynstat_sss_sd               =   9.7555820580949E-01
(PID.TID 0000.0001) %MON dynstat_sss_del2             =   7.8776432989338E-03
(PID.TID 0000.0001) %MON forcing_qnet_max             =   3.8850822957357E+02
(PID.TID 0000.0001) %MON forcing_qnet_min             =  -1.7618723856608E+02
(PID.TID 0000.0001) %MON forcing_qnet_mean            =  -1.5153979322590E+01
(PID.TID 0000.0001) %MON forcing_qnet_sd              =   9.3101706459460E+01
(PID.TID 0000.0001) %MON forcing_qnet_del2            =   9.7073809157123E-01
(PID.TID 0000.0001) %MON forcing_qsw_max              =   0.0000000000000E+00
(PID.TID 0000.0001) %MON forcing_qsw_min              =   0.0000000000000E+00
(PID.TID 0000.0001) %MON forcing_qsw_mean             =   0.0000000000000E+00
(PID.TID 0000.0001) %MON forcing_qsw_sd               =   0.0000000000000E+00
(PID.TID 0000.0001) %MON forcing_qsw_del2             =   0.0000000000000E+00
(PID.TID 0000.0001) %MON forcing_empmr_max            =   7.7148803256932E-05
(PID.TID 0000.0001) %MON forcing_empmr_min            =  -7.7430264392812E-05
(PID.TID 0000.0001) %MON forcing_empmr_mean           =   9.3385541826996E-07
(PID.TID 0000.0001) %MON forcing_empmr_sd             =   2.8159654457023E-05
(PID.TID 0000.0001) %MON forcing_empmr_del2           =   3.5467644143970E-07
(PID.TID 0000.0001) %MON forcing_fu_max               =   2.8521531224251E-01
(PID.TID 0000.0001) %MON forcing_fu_min               =  -1.9249341785908E-01
(PID.TID 0000.0001) %MON forcing_fu_mean              =   1.6870538600070E-02
(PID.TID 0000.0001) %MON forcing_fu_sd                =   9.0164710524852E-02
(PID.TID 0000.0001) %MON forcing_fu_del2              =   6.6983433008820E-04
(PID.TID 0000.0001) %MON forcing_fv_max               =   1.8811390101910E-01
(PID.TID 0000.0001) %MON forcing_fv_min               =  -1.6227610409260E-01
(PID.TID 0000.0001) %MON forcing_fv_mean              =  -6.3030722469479E-03
(PID.TID 0000.0001) %MON forcing_fv_sd                =   4.4812198805099E-02
(PID.TID 0000.0001) %MON forcing_fv_del2              =   4.6773713492803E-04
(PID.TID 0000.0001) %MON trAdv_CFL_u_max              =   5.5744259975630E-02
(PID.TID 0000.0001) %MON trAdv_CFL_v_max              =   2.4962828809443E-02
(PID.TID 0000.0001) %MON trAdv_CFL_w_max              =   8.3657484597590E-02
(PID.TID 0000.0001) %MON advcfl_uvel_max              =   5.5020698434396E-02
(PID.TID 0000.0001) %MON advcfl_vvel_max              =   2.4691198645583E-02
(PID.TID 0000.0001) %MON advcfl_wvel_max              =   7.2205255677738E-02
(PID.TID 0000.0001) %MON advcfl_W_hf_max              =   8.1705947214283E-02
(PID.TID 0000.0001) %MON pe_b_mean                    =   4.0969447551376E-04
(PID.TID 0000.0001) %MON ke_max                       =   1.7581570015142E-02
(PID.TID 0000.0001) %MON ke_mean                      =   1.9914939839588E-04
(PID.TID 0000.0001) %MON ke_vol                       =   1.3226782436723E+18
(PID.TID 0000.0001) %MON vort_r_min                   =  -3.6135826409923E-07
(PID.TID 0000.0001) %MON vort_r_max                   =   5.1172965358997E-07
(PID.TID 0000.0001) %MON vort_a_mean                  =  -2.5274807889799E-05
(PID.TID 0000.0001) %MON vort_a_sd                    =   7.3604654255012E-05
(PID.TID 0000.0001) %MON vort_p_mean                  =  -3.1845656419819E-05
(PID.TID 0000.0001) %MON vort_p_sd                    =   1.3162749026663E-04
(PID.TID 0000.0001) %MON surfExpan_theta_mean         =   4.9784044081976E-07
(PID.TID 0000.0001) %MON surfExpan_salt_mean          =  -2.5490999274679E-07
(PID.TID 0000.0001) // =======================================================
(PID.TID 0000.0001) // End MONITOR dynamic field statistics
(PID.TID 0000.0001) // =======================================================
 EXTERNAL_FIELDS_LOAD,        32 : iP,iLd,i0,i1=    1    2    1    2 ; Wght=  0.4333333333  0.5666666667
 EXTERNAL_FIELDS_LOAD: (fu0,1),fu,fv= -3.5633E-02 -1.4435E-02 -2.3621E-02 -3.4805E-02
 EXTERNAL_FIELDS_LOAD: SST,SSS,Q,E-P=  1.1393E-01  3.4548E+01  2.5144E+02  9.7896E-06
DEBUG_STATS_RL:          Uvel (THERMODYNAMICS)  min= -1.82106990634798E-01
DEBUG_STATS_RL:          Uvel (THERMODYNAMICS)  max=  1.66459211504669E-01
DEBUG_STATS_RL:          Uvel (THERMODYNAMICS) mean=  4.15724314584085E-03
DEBUG_STATS_RL:          Uvel (THERMODYNAMICS) S.D.=  2.42990043925186E-02
DEBUG_STATS_RL:          Vvel (THERMODYNAMICS)  min= -1.15300697676038E-01
DEBUG_STATS_RL:          Vvel (THERMODYNAMICS)  max=  1.27088198122647E-01
DEBUG_STATS_RL:          Vvel (THERMODYNAMICS) mean= -2.45510377885676E-05
DEBUG_STATS_RL:          Vvel (THERMODYNAMICS) S.D.=  1.46130784490151E-02
DEBUG_STATS_RL:          Wvel (THERMODYNAMICS)  min= -1.81926105866959E-04
DEBUG_STATS_RL:          Wvel (THERMODYNAMICS)  max=  1.68923043563288E-04
DEBUG_STATS_RL:          Wvel (THERMODYNAMICS) mean= -1.93969339123239E-07
DEBUG_STATS_RL:          Wvel (THERMODYNAMICS) S.D.=  1.58851314337350E-05
DEBUG_STATS_RL:         Theta (THERMODYNAMICS)  min= -2.00524368380607E+00
DEBUG_STATS_RL:         Theta (THERMODYNAMICS)  max=  3.00618176076784E+01
DEBUG_STATS_RL:         Theta (THERMODYNAMICS) mean=  3.22984729000654E+00
DEBUG_STATS_RL:         Theta (THERMODYNAMICS) S.D.=  5.85926382256702E+00
DEBUG_STATS_RL:          Salt (THERMODYNAMICS)  min=  2.00000000000000E-02
DEBUG_STATS_RL:          Salt (THERMODYNAMICS)  max=  3.74731987907806E+01
DEBUG_STATS_RL:          Salt (THERMODYNAMICS) mean=  1.88648649826132E+01
DEBUG_STATS_RL:          Salt (THERMODYNAMICS) S.D.=  1.73003777397618E+01
DEBUG_STATS_RL:         GtNm1 (THERMODYNAMICS)  min= -3.01728350441889E-06
DEBUG_STATS_RL:         GtNm1 (THERMODYNAMICS)  max=  2.62055819891568E-06
DEBUG_STATS_RL:         GtNm1 (THERMODYNAMICS) mean=  7.61862982641196E-09
DEBUG_STATS_RL:         GtNm1 (THERMODYNAMICS) S.D.=  2.16089318627475E-07
DEBUG_STATS_RL:         GsNm1 (THERMODYNAMICS)  min= -5.79762197671075E-07
DEBUG_STATS_RL:         GsNm1 (THERMODYNAMICS)  max=  4.30687207504563E-07
DEBUG_STATS_RL:         GsNm1 (THERMODYNAMICS) mean= -4.46055075045779E-10
DEBUG_STATS_RL:         GsNm1 (THERMODYNAMICS) S.D.=  1.97562494560146E-08
DEBUG_STATS_RL:                EtaN (DYNAMICS)  min= -1.84816580295994E+00
DEBUG_STATS_RL:                EtaN (DYNAMICS)  max=  1.06899216079515E+00
DEBUG_STATS_RL:                EtaN (DYNAMICS) mean= -1.53179066126053E-01
DEBUG_STATS_RL:                EtaN (DYNAMICS) S.D.=  6.55497284123181E-01
DEBUG_STATS_RL:                Uvel (DYNAMICS)  min= -1.82106990634798E-01
DEBUG_STATS_RL:                Uvel (DYNAMICS)  max=  1.66459211504669E-01
DEBUG_STATS_RL:                Uvel (DYNAMICS) mean=  4.15724314584085E-03
DEBUG_STATS_RL:                Uvel (DYNAMICS) S.D.=  2.42990043925186E-02
DEBUG_STATS_RL:                Vvel (DYNAMICS)  min= -1.15300697676038E-01
DEBUG_STATS_RL:                Vvel (DYNAMICS)  max=  1.27088198122647E-01
DEBUG_STATS_RL:                Vvel (DYNAMICS) mean= -2.45510377885676E-05
DEBUG_STATS_RL:                Vvel (DYNAMICS) S.D.=  1.46130784490151E-02
DEBUG_STATS_RL:                Wvel (DYNAMICS)  min= -1.81926105866959E-04
DEBUG_STATS_RL:                Wvel (DYNAMICS)  max=  1.68923043563288E-04
DEBUG_STATS_RL:                Wvel (DYNAMICS) mean= -1.93969339123239E-07
DEBUG_STATS_RL:                Wvel (DYNAMICS) S.D.=  1.58851314337350E-05
DEBUG_STATS_RL:               Theta (DYNAMICS)  min= -2.00524368380607E+00
DEBUG_STATS_RL:               Theta (DYNAMICS)  max=  3.00618176076784E+01
DEBUG_STATS_RL:               Theta (DYNAMICS) mean=  3.22984729000654E+00
DEBUG_STATS_RL:               Theta (DYNAMICS) S.D.=  5.85926382256702E+00
DEBUG_STATS_RL:                Salt (DYNAMICS)  min=  2.00000000000000E-02
DEBUG_STATS_RL:                Salt (DYNAMICS)  max=  3.74731987907806E+01
DEBUG_STATS_RL:                Salt (DYNAMICS) mean=  1.88648649826132E+01
DEBUG_STATS_RL:                Salt (DYNAMICS) S.D.=  1.73003777397618E+01
DEBUG_STATS_RL:                  Gu (DYNAMICS)  min= -1.83166290997653E-01
DEBUG_STATS_RL:                  Gu (DYNAMICS)  max=  1.45679254141279E-01
DEBUG_STATS_RL:                  Gu (DYNAMICS) mean=  4.26785744226505E-03
DEBUG_STATS_RL:                  Gu (DYNAMICS) S.D.=  2.50881102523341E-02
DEBUG_STATS_RL:                  Gv (DYNAMICS)  min= -1.16226205322496E-01
DEBUG_STATS_RL:                  Gv (DYNAMICS)  max=  1.30159228668197E-01
DEBUG_STATS_RL:                  Gv (DYNAMICS) mean=  2.29506860062150E-03
DEBUG_STATS_RL:                  Gv (DYNAMICS) S.D.=  1.49898187899293E-02
DEBUG_STATS_RL:               GuNm1 (DYNAMICS)  min= -8.33418339149524E-06
DEBUG_STATS_RL:               GuNm1 (DYNAMICS)  max=  7.77764530628688E-06
DEBUG_STATS_RL:               GuNm1 (DYNAMICS) mean= -1.96764673311334E-08
DEBUG_STATS_RL:               GuNm1 (DYNAMICS) S.D.=  1.20111506457871E-06
DEBUG_STATS_RL:               GvNm1 (DYNAMICS)  min= -1.09550027198885E-05
DEBUG_STATS_RL:               GvNm1 (DYNAMICS)  max=  1.65768550658229E-05
DEBUG_STATS_RL:               GvNm1 (DYNAMICS) mean=  7.60801710074563E-07
DEBUG_STATS_RL:               GvNm1 (DYNAMICS) S.D.=  2.65630310163258E-06
DEBUG_STATS_RL:               GtNm1 (DYNAMICS)  min= -3.01728350441889E-06
DEBUG_STATS_RL:               GtNm1 (DYNAMICS)  max=  2.62055819891568E-06
DEBUG_STATS_RL:               GtNm1 (DYNAMICS) mean=  7.61862982641196E-09
DEBUG_STATS_RL:               GtNm1 (DYNAMICS) S.D.=  2.16089318627475E-07
DEBUG_STATS_RL:               GsNm1 (DYNAMICS)  min= -5.79762197671075E-07
DEBUG_STATS_RL:               GsNm1 (DYNAMICS)  max=  4.30687207504563E-07
DEBUG_STATS_RL:               GsNm1 (DYNAMICS) mean= -4.46055075045779E-10
DEBUG_STATS_RL:               GsNm1 (DYNAMICS) S.D.=  1.97562494560146E-08
DEBUG_STATS_RL:    cg2d_b (SOLVE_FOR_PRESSURE)  min= -1.95565048983606E+04
DEBUG_STATS_RL:    cg2d_b (SOLVE_FOR_PRESSURE)  max=  1.94151355438368E+04
DEBUG_STATS_RL:    cg2d_b (SOLVE_FOR_PRESSURE) mean=  2.35134713487144E+00
DEBUG_STATS_RL:    cg2d_b (SOLVE_FOR_PRESSURE) S.D.=  3.89576373996999E+03
 cg2d: Sum(rhs),rhsMax =   2.78340564713307E-01  1.28452360281337E+00
(PID.TID 0000.0001)  cg2d: iter=     1 ; resid.=  3.40444039480492E-01
(PID.TID 0000.0001)  cg2d: iter=     2 ; resid.=  3.15367711160012E-01
(PID.TID 0000.0001)  cg2d: iter=     3 ; resid.=  2.96739622591731E-01
(PID.TID 0000.0001)  cg2d: iter=     4 ; resid.=  2.73022486737484E-01
(PID.TID 0000.0001)  cg2d: iter=     5 ; resid.=  2.64362877576122E-01
(PID.TID 0000.0001)  cg2d: iter=     6 ; resid.=  2.23976127223137E-01
(PID.TID 0000.0001)  cg2d: iter=     7 ; resid.=  1.82871138906828E-01
(PID.TID 0000.0001)  cg2d: iter=     8 ; resid.=  1.29758578677257E-01
(PID.TID 0000.0001)  cg2d: iter=     9 ; resid.=  9.51458164016536E-02
(PID.TID 0000.0001)  cg2d: iter=    10 ; resid.=  7.98206088298502E-02
(PID.TID 0000.0001)  cg2d: iter=    11 ; resid.=  7.03112149400276E-02
(PID.TID 0000.0001)  cg2d: iter=    12 ; resid.=  6.05604736962840E-02
(PID.TID 0000.0001)  cg2d: iter=    13 ; resid.=  4.93676435001325E-02
(PID.TID 0000.0001)  cg2d: iter=    14 ; resid.=  4.12544790805688E-02
(PID.TID 0000.0001)  cg2d: iter=    15 ; resid.=  3.22629517516839E-02
(PID.TID 0000.0001)  cg2d: iter=    16 ; resid.=  2.88874442185022E-02
(PID.TID 0000.0001)  cg2d: iter=    17 ; resid.=  2.52721375462655E-02
(PID.TID 0000.0001)  cg2d: iter=    18 ; resid.=  2.23496918656934E-02
(PID.TID 0000.0001)  cg2d: iter=    19 ; resid.=  1.67282584447043E-02
(PID.TID 0000.0001)  cg2d: iter=    20 ; resid.=  1.36921456154669E-02
(PID.TID 0000.0001)  cg2d: iter=    21 ; resid.=  1.17576797881952E-02
(PID.TID 0000.0001)  cg2d: iter=    22 ; resid.=  1.01983917149578E-02
(PID.TID 0000.0001)  cg2d: iter=    23 ; resid.=  8.97166734492360E-03
(PID.TID 0000.0001)  cg2d: iter=    24 ; resid.=  8.08098594101264E-03
(PID.TID 0000.0001)  cg2d: iter=    25 ; resid.=  5.92986839363037E-03
(PID.TID 0000.0001)  cg2d: iter=    26 ; resid.=  4.89675918512635E-03
(PID.TID 0000.0001)  cg2d: iter=    27 ; resid.=  3.90687927683722E-03
(PID.TID 0000.0001)  cg2d: iter=    28 ; resid.=  3.10441310628715E-03
(PID.TID 0000.0001)  cg2d: iter=    29 ; resid.=  2.40107247804867E-03
(PID.TID 0000.0001)  cg2d: iter=    30 ; resid.=  1.96837682071699E-03
(PID.TID 0000.0001)  cg2d: iter=    31 ; resid.=  1.67594131811841E-03
(PID.TID 0000.0001)  cg2d: iter=    32 ; resid.=  1.42606519816518E-03
(PID.TID 0000.0001)  cg2d: iter=    33 ; resid.=  1.21578381482988E-03
(PID.TID 0000.0001)  cg2d: iter=    34 ; resid.=  1.02771844336831E-03
(PID.TID 0000.0001)  cg2d: iter=    35 ; resid.=  8.65781194576064E-04
(PID.TID 0000.0001)  cg2d: iter=    36 ; resid.=  7.30831402453392E-04
(PID.TID 0000.0001)  cg2d: iter=    37 ; resid.=  6.57745280170326E-04
(PID.TID 0000.0001)  cg2d: iter=    38 ; resid.=  5.87965531280085E-04
(PID.TID 0000.0001)  cg2d: iter=    39 ; resid.=  4.91038849030968E-04
(PID.TID 0000.0001)  cg2d: iter=    40 ; resid.=  4.01339781776048E-04
(PID.TID 0000.0001)  cg2d: iter=    41 ; resid.=  3.44134794545305E-04
(PID.TID 0000.0001)  cg2d: iter=    42 ; resid.=  3.07589680308029E-04
(PID.TID 0000.0001)  cg2d: iter=    43 ; resid.=  2.49610343533063E-04
(PID.TID 0000.0001)  cg2d: iter=    44 ; resid.=  1.99555269989023E-04
(PID.TID 0000.0001)  cg2d: iter=    45 ; resid.=  1.53147801953620E-04
(PID.TID 0000.0001)  cg2d: iter=    46 ; resid.=  1.27663832697333E-04
(PID.TID 0000.0001)  cg2d: iter=    47 ; resid.=  1.07586344582598E-04
(PID.TID 0000.0001)  cg2d: iter=    48 ; resid.=  8.24604335454460E-05
(PID.TID 0000.0001)  cg2d: iter=    49 ; resid.=  6.61135973107340E-05
(PID.TID 0000.0001)  cg2d: iter=    50 ; resid.=  6.01202971078076E-05
(PID.TID 0000.0001)  cg2d: iter=    51 ; resid.=  5.54259310082854E-05
(PID.TID 0000.0001)  cg2d: iter=    52 ; resid.=  4.83178726319205E-05
(PID.TID 0000.0001)  cg2d: iter=    53 ; resid.=  4.32502996703457E-05
(PID.TID 0000.0001)  cg2d: iter=    54 ; resid.=  3.38573676382483E-05
(PID.TID 0000.0001)  cg2d: iter=    55 ; resid.=  2.73514665405615E-05
(PID.TID 0000.0001)  cg2d: iter=    56 ; resid.=  2.38084771546347E-05
(PID.TID 0000.0001)  cg2d: iter=    57 ; resid.=  1.86266294503688E-05
(PID.TID 0000.0001)  cg2d: iter=    58 ; resid.=  1.46773546547005E-05
(PID.TID 0000.0001)  cg2d: iter=    59 ; resid.=  1.14575677163950E-05
(PID.TID 0000.0001)  cg2d: iter=    60 ; resid.=  9.07489250857324E-06
(PID.TID 0000.0001)  cg2d: iter=    61 ; resid.=  7.59921209404186E-06
(PID.TID 0000.0001)  cg2d: iter=    62 ; resid.=  6.50913408893127E-06
(PID.TID 0000.0001)  cg2d: iter=    63 ; resid.=  5.15750758873241E-06
(PID.TID 0000.0001)  cg2d: iter=    64 ; resid.=  4.35617738165812E-06
(PID.TID 0000.0001)  cg2d: iter=    65 ; resid.=  3.23514039682422E-06
(PID.TID 0000.0001)  cg2d: iter=    66 ; resid.=  2.82051539530435E-06
(PID.TID 0000.0001)  cg2d: iter=    67 ; resid.=  2.49255710523546E-06
(PID.TID 0000.0001)  cg2d: iter=    68 ; resid.=  2.20562610640573E-06
(PID.TID 0000.0001)  cg2d: iter=    69 ; resid.=  1.80977639053306E-06
(PID.TID 0000.0001)  cg2d: iter=    70 ; resid.=  1.47926293201468E-06
(PID.TID 0000.0001)  cg2d: iter=    71 ; resid.=  1.20636963788215E-06
(PID.TID 0000.0001)  cg2d: iter=    72 ; resid.=  1.08757255238211E-06
(PID.TID 0000.0001)  cg2d: iter=    73 ; resid.=  9.59865406285074E-07
(PID.TID 0000.0001)  cg2d: iter=    74 ; resid.=  8.30671296451223E-07
(PID.TID 0000.0001)  cg2d: iter=    75 ; resid.=  6.70189418227204E-07
(PID.TID 0000.0001)  cg2d: iter=    76 ; resid.=  5.57303020930623E-07
(PID.TID 0000.0001)  cg2d: iter=    77 ; resid.=  4.11305465742184E-07
(PID.TID 0000.0001)  cg2d: iter=    78 ; resid.=  3.03449416829852E-07
(PID.TID 0000.0001)  cg2d: iter=    79 ; resid.=  2.35930673767297E-07
(PID.TID 0000.0001)  cg2d: iter=    80 ; resid.=  1.61677171843761E-07
(PID.TID 0000.0001)  cg2d: iter=    81 ; resid.=  1.21729945322517E-07
(PID.TID 0000.0001)  cg2d: iter=    82 ; resid.=  9.77100247089731E-08
(PID.TID 0000.0001)  cg2d: iter=    83 ; resid.=  7.38628069561286E-08
(PID.TID 0000.0001)  cg2d: iter=    84 ; resid.=  5.34750033257734E-08
(PID.TID 0000.0001)  cg2d: iter=    85 ; resid.=  4.02265947076523E-08
(PID.TID 0000.0001)  cg2d: iter=    86 ; resid.=  2.97500137270062E-08
(PID.TID 0000.0001)  cg2d: iter=    87 ; resid.=  2.20872986563710E-08
(PID.TID 0000.0001)  cg2d: iter=    88 ; resid.=  1.71858269887475E-08
(PID.TID 0000.0001)  cg2d: iter=    89 ; resid.=  1.47184392882014E-08
(PID.TID 0000.0001)  cg2d: iter=    90 ; resid.=  1.35954363034464E-08
(PID.TID 0000.0001)  cg2d: iter=    91 ; resid.=  1.15673548255706E-08
(PID.TID 0000.0001)  cg2d: iter=    92 ; resid.=  9.39853949536632E-09
(PID.TID 0000.0001)  cg2d: iter=    93 ; resid.=  8.24896580989078E-09
(PID.TID 0000.0001)  cg2d: iter=    94 ; resid.=  6.61683559134641E-09
(PID.TID 0000.0001)  cg2d: iter=    95 ; resid.=  5.41275189654464E-09
(PID.TID 0000.0001)  cg2d: iter=    96 ; resid.=  3.94733676775920E-09
(PID.TID 0000.0001)  cg2d: iter=    97 ; resid.=  3.06325423525259E-09
(PID.TID 0000.0001)  cg2d: iter=    98 ; resid.=  2.41230043033632E-09
(PID.TID 0000.0001)  cg2d: iter=    99 ; resid.=  1.98432715926893E-09
(PID.TID 0000.0001)  cg2d: iter=   100 ; resid.=  1.62807312379792E-09
(PID.TID 0000.0001)  cg2d: iter=   101 ; resid.=  1.33363969628830E-09
(PID.TID 0000.0001)  cg2d: iter=   102 ; resid.=  1.04753895538546E-09
(PID.TID 0000.0001)  cg2d: iter=   103 ; resid.=  7.52965082097329E-10
(PID.TID 0000.0001)  cg2d: iter=   104 ; resid.=  6.05988188417956E-10
(PID.TID 0000.0001)  cg2d: iter=   105 ; resid.=  4.65897693521482E-10
(PID.TID 0000.0001)  cg2d: iter=   106 ; resid.=  3.78478849656630E-10
(PID.TID 0000.0001)  cg2d: iter=   107 ; resid.=  2.98887683035137E-10
(PID.TID 0000.0001)  cg2d: iter=   108 ; resid.=  2.14182467311811E-10
(PID.TID 0000.0001)  cg2d: iter=   109 ; resid.=  1.57135642024639E-10
(PID.TID 0000.0001)  cg2d: iter=   110 ; resid.=  1.14192300917854E-10
(PID.TID 0000.0001)  cg2d: iter=   111 ; resid.=  8.62153955390489E-11
(PID.TID 0000.0001)  cg2d: iter=   112 ; resid.=  6.66545035611745E-11
(PID.TID 0000.0001)  cg2d: iter=   113 ; resid.=  4.78175491327613E-11
(PID.TID 0000.0001)  cg2d: iter=   114 ; resid.=  3.75665006037049E-11
(PID.TID 0000.0001)  cg2d: iter=   115 ; resid.=  2.91484632233431E-11
(PID.TID 0000.0001)  cg2d: iter=   116 ; resid.=  2.11541494194618E-11
(PID.TID 0000.0001)  cg2d: iter=   117 ; resid.=  1.66387896116856E-11
(PID.TID 0000.0001)  cg2d: iter=   118 ; resid.=  1.38072448268820E-11
(PID.TID 0000.0001)  cg2d: iter=   119 ; resid.=  1.07841610456074E-11
(PID.TID 0000.0001)  cg2d: iter=   120 ; resid.=  8.49329511425658E-12
(PID.TID 0000.0001)  cg2d: iter=   121 ; resid.=  6.86785676345150E-12
(PID.TID 0000.0001)  cg2d: iter=   122 ; resid.=  5.03776835410146E-12
(PID.TID 0000.0001)  cg2d: iter=   123 ; resid.=  3.75009549582688E-12
(PID.TID 0000.0001)  cg2d: iter=   124 ; resid.=  2.83350365800638E-12
(PID.TID 0000.0001)  cg2d: iter=   125 ; resid.=  2.15642248147298E-12
(PID.TID 0000.0001)  cg2d: iter=   126 ; resid.=  1.53496822233867E-12
(PID.TID 0000.0001)  cg2d: iter=   127 ; resid.=  9.81717053539347E-13
(PID.TID 0000.0001)  cg2d: iter=   128 ; resid.=  7.02876526559901E-13
(PID.TID 0000.0001)  cg2d: iter=   129 ; resid.=  5.01659011152632E-13
(PID.TID 0000.0001)  cg2d: iter=   130 ; resid.=  3.83502107271975E-13
(PID.TID 0000.0001)  cg2d: iter=   131 ; resid.=  2.87295265845054E-13
(PID.TID 0000.0001)  cg2d: iter=   132 ; resid.=  2.24333409285649E-13
(PID.TID 0000.0001)  cg2d: iter=   133 ; resid.=  1.80967517102105E-13
(PID.TID 0000.0001)  cg2d: iter=   134 ; resid.=  1.62054813734359E-13
(PID.TID 0000.0001)  cg2d: iter=   135 ; resid.=  1.35593425481470E-13
(PID.TID 0000.0001)  cg2d: iter=   136 ; resid.=  9.83826535586505E-14
DEBUG_STATS_RL:    cg2d_x (SOLVE_FOR_PRESSURE)  min= -1.80502470038227E+01
DEBUG_STATS_RL:    cg2d_x (SOLVE_FOR_PRESSURE)  max=  1.04364007590087E+01
DEBUG_STATS_RL:    cg2d_x (SOLVE_FOR_PRESSURE) mean= -1.52970058732060E+00
DEBUG_STATS_RL:    cg2d_x (SOLVE_FOR_PRESSURE) S.D.=  6.47636916052647E+00
(PID.TID 0000.0001)      cg2d_init_res =   5.65561375871878E-01
(PID.TID 0000.0001)      cg2d_iters(min,last) =      -1     136
(PID.TID 0000.0001)      cg2d_last_res =   9.83826535586505E-14
(PID.TID 0000.0001) // =======================================================
(PID.TID 0000.0001) // Begin MONITOR dynamic field statistics
(PID.TID 0000.0001) // =======================================================
(PID.TID 0000.0001) %MON time_tsnumber                =                    33
(PID.TID 0000.0001) %MON time_secondsf                =   2.8512000000000E+06
(PID.TID 0000.0001) %MON dynstat_eta_max              =   1.0638532883801E+00
(PID.TID 0000.0001) %MON dynstat_eta_min              =  -1.8399844040595E+00
(PID.TID 0000.0001) %MON dynstat_eta_mean             =  -2.4533391778200E-03
(PID.TID 0000.0001) %MON dynstat_eta_sd               =   5.7582387195971E-01
(PID.TID 0000.0001) %MON dynstat_eta_del2             =   2.1956063022696E-03
(PID.TID 0000.0001) %MON dynstat_uvel_max             =   1.6028455673555E-01
(PID.TID 0000.0001) %MON dynstat_uvel_min             =  -1.8160906877116E-01
(PID.TID 0000.0001) %MON dynstat_uvel_mean            =   2.7448265899903E-03
(PID.TID 0000.0001) %MON dynstat_uvel_sd              =   1.8133986210146E-02
(PID.TID 0000.0001) %MON dynstat_uvel_del2            =   9.1736804614959E-05
(PID.TID 0000.0001) %MON dynstat_vvel_max             =   1.2637113975591E-01
(PID.TID 0000.0001) %MON dynstat_vvel_min             =  -1.0998684772666E-01
(PID.TID 0000.0001) %MON dynstat_vvel_mean            =  -1.8699399927373E-04
(PID.TID 0000.0001) %MON dynstat_vvel_sd              =   1.0442270550269E-02
(PID.TID 0000.0001) %MON dynstat_vvel_del2            =   8.7963560778749E-05
(PID.TID 0000.0001) %MON dynstat_wvel_max             =   1.6233784419982E-04
(PID.TID 0000.0001) %MON dynstat_wvel_min             =  -1.7009541615678E-04
(PID.TID 0000.0001) %MON dynstat_wvel_mean            =  -5.0478433035366E-23
(PID.TID 0000.0001) %MON dynstat_wvel_sd              =   1.7527022202924E-05
(PID.TID 0000.0001) %MON dynstat_wvel_del2            =   1.9762901487797E-07
(PID.TID 0000.0001) %MON dynstat_theta_max            =   3.0061817607678E+01
(PID.TID 0000.0001) %MON dynstat_theta_min            =  -2.0052436838061E+00
(PID.TID 0000.0001) %MON dynstat_theta_mean           =   3.6412739528455E+00
(PID.TID 0000.0001) %MON dynstat_theta_sd             =   4.4178546345998E+00
(PID.TID 0000.0001) %MON dynstat_theta_del2           =   4.8358277278587E-03
(PID.TID 0000.0001) %MON dynstat_salt_max             =   3.7473198790781E+01
(PID.TID 0000.0001) %MON dynstat_salt_min             =   2.9845181453139E+01
(PID.TID 0000.0001) %MON dynstat_salt_mean            =   3.4737974703768E+01
(PID.TID 0000.0001) %MON dynstat_salt_sd              =   2.9624767916203E-01
(PID.TID 0000.0001) %MON dynstat_salt_del2            =   9.9413980422638E-04
(PID.TID 0000.0001) %MON dynstat_sst_max              =   3.0061817607678E+01
(PID.TID 0000.0001) %MON dynstat_sst_min              =  -2.0052436838061E+00
(PID.TID 0000.0001) %MON dynstat_sst_mean             =   1.8779839434843E+01
(PID.TID 0000.0001) %MON dynstat_sst_sd               =   9.0408866071975E+00
(PID.TID 0000.0001) %MON dynstat_sst_del2             =   2.6798901372760E-02
(PID.TID 0000.0001) %MON dynstat_sss_max              =   3.7451462684100E+01
(PID.TID 0000.0001) %MON dynstat_sss_min              =   2.9845181453139E+01
(PID.TID 0000.0001) %MON dynstat_sss_mean             =   3.4865285790880E+01
(PID.TID 0000.0001) %MON dynstat_sss_sd               =   9.7578353062608E-01
(PID.TID 0000.0001) %MON dynstat_sss_del2             =   7.8749517961021E-03
(PID.TID 0000.0001) %MON forcing_qnet_max             =   3.8518914286296E+02
(PID.TID 0000.0001) %MON forcing_qnet_min             =  -1.7594771931966E+02
(PID.TID 0000.0001) %MON forcing_qnet_mean            =  -1.5069070155187E+01
(PID.TID 0000.0001) %MON forcing_qnet_sd              =   9.2094283864091E+01
(PID.TID 0000.0001) %MON forcing_qnet_del2            =   9.6837633456498E-01
(PID.TID 0000.0001) %MON forcing_qsw_max              =   0.0000000000000E+00
(PID.TID 0000.0001) %MON forcing_qsw_min              =   0.0000000000000E+00
(PID.TID 0000.0001) %MON forcing_qsw_mean             =   0.0000000000000E+00
(PID.TID 0000.0001) %MON forcing_qsw_sd               =   0.0000000000000E+00
(PID.TID 0000.0001) %MON forcing_qsw_del2             =   0.0000000000000E+00
(PID.TID 0000.0001) %MON forcing_empmr_max            =   7.6834713524931E-05
(PID.TID 0000.0001) %MON forcing_empmr_min            =  -7.7509908654368E-05
(PID.TID 0000.0001) %MON forcing_empmr_mean           =   9.3453781552993E-07
(PID.TID 0000.0001) %MON forcing_empmr_sd             =   2.8134918761187E-05
(PID.TID 0000.0001) %MON forcing_empmr_del2           =   3.5437715861302E-07
(PID.TID 0000.0001) %MON forcing_fu_max               =   2.8660247027874E-01
(PID.TID 0000.0001) %MON forcing_fu_min               =  -1.9415334165096E-01
(PID.TID 0000.0001) %MON forcing_fu_mean              =   1.6924838815539E-02
(PID.TID 0000.0001) %MON forcing_fu_sd                =   9.0257397064876E-02
(PID.TID 0000.0001) %MON forcing_fu_del2              =   6.7159620997325E-04
(PID.TID 0000.0001) %MON forcing_fv_max               =   1.8701238036156E-01
(PID.TID 0000.0001) %MON forcing_fv_min               =  -1.6128480434418E-01
(PID.TID 0000.0001) %MON forcing_fv_mean              =  -6.3683331536630E-03
(PID.TID 0000.0001) %MON forcing_fv_sd                =   4.4725198845894E-02
(PID.TID 0000.0001) %MON forcing_fv_del2              =   4.7006525107410E-04
(PID.TID 0000.0001) %MON trAdv_CFL_u_max              =   5.5031873531763E-02
(PID.TID 0000.0001) %MON trAdv_CFL_v_max              =   2.4896061510323E-02
(PID.TID 0000.0001) %MON trAdv_CFL_w_max              =   8.1705947214283E-02
(PID.TID 0000.0001) %MON advcfl_uvel_max              =   5.2979755101088E-02
(PID.TID 0000.0001) %MON advcfl_vvel_max              =   2.4551885705159E-02
(PID.TID 0000.0001) %MON advcfl_wvel_max              =   6.8354623050911E-02
(PID.TID 0000.0001) %MON advcfl_W_hf_max              =   7.9928878063023E-02
(PID.TID 0000.0001) %MON pe_b_mean                    =   4.2429548909993E-04
(PID.TID 0000.0001) %MON ke_max                       =   1.8173370759595E-02
(PID.TID 0000.0001) %MON ke_mean                      =   2.0178948252928E-04
(PID.TID 0000.0001) %MON ke_vol                       =   1.3226782436723E+18
(PID.TID 0000.0001) %MON vort_r_min                   =  -3.4813614127135E-07
(PID.TID 0000.0001) %MON vort_r_max                   =   5.1779956280036E-07
(PID.TID 0000.0001) %MON vort_a_mean                  =  -2.5274807816581E-05
(PID.TID 0000.0001) %MON vort_a_sd                    =   7.3604677392811E-05
(PID.TID 0000.0001) %MON vort_p_mean                  =  -3.1845656327566E-05
(PID.TID 0000.0001) %MON vort_p_sd                    =   1.3162722038701E-04
(PID.TID 0000.0001) %MON surfExpan_theta_mean         =   5.8521251824017E-07
(PID.TID 0000.0001) %MON surfExpan_salt_mean          =  -2.6183265615544E-07
(PID.TID 0000.0001) // =======================================================
(PID.TID 0000.0001) // End MONITOR dynamic field statistics
(PID.TID 0000.0001) // =======================================================
 EXTERNAL_FIELDS_LOAD,        33 : iP,iLd,i0,i1=    1    2    1    2 ; Wght=  0.4000000000  0.6000000000
 EXTERNAL_FIELDS_LOAD: (fu0,1),fu,fv= -3.5633E-02 -1.4435E-02 -2.2914E-02 -3.3484E-02
 EXTERNAL_FIELDS_LOAD: SST,SSS,Q,E-P=  6.4256E-02  3.4538E+01  2.5060E+02  9.6810E-06
DEBUG_STATS_RL:          Uvel (THERMODYNAMICS)  min= -1.81609068771157E-01
DEBUG_STATS_RL:          Uvel (THERMODYNAMICS)  max=  1.60284556735550E-01
DEBUG_STATS_RL:          Uvel (THERMODYNAMICS) mean=  4.21985186441117E-03
DEBUG_STATS_RL:          Uvel (THERMODYNAMICS) S.D.=  2.46878831878774E-02
DEBUG_STATS_RL:          Vvel (THERMODYNAMICS)  min= -1.09986847726665E-01
DEBUG_STATS_RL:          Vvel (THERMODYNAMICS)  max=  1.26371139755909E-01
DEBUG_STATS_RL:          Vvel (THERMODYNAMICS) mean= -1.75579387422313E-04
DEBUG_STATS_RL:          Vvel (THERMODYNAMICS) S.D.=  1.46625805918131E-02
DEBUG_STATS_RL:          Wvel (THERMODYNAMICS)  min= -1.70095416156782E-04
DEBUG_STATS_RL:          Wvel (THERMODYNAMICS)  max=  1.62337844199817E-04
DEBUG_STATS_RL:          Wvel (THERMODYNAMICS) mean= -2.52201389645955E-07
DEBUG_STATS_RL:          Wvel (THERMODYNAMICS) S.D.=  1.59115947445014E-05
DEBUG_STATS_RL:         Theta (THERMODYNAMICS)  min= -2.00484137926121E+00
DEBUG_STATS_RL:         Theta (THERMODYNAMICS)  max=  3.00719287889080E+01
DEBUG_STATS_RL:         Theta (THERMODYNAMICS) mean=  3.23028216607625E+00
DEBUG_STATS_RL:         Theta (THERMODYNAMICS) S.D.=  5.85964701235627E+00
DEBUG_STATS_RL:          Salt (THERMODYNAMICS)  min=  2.00000000000000E-02
DEBUG_STATS_RL:          Salt (THERMODYNAMICS)  max=  3.74739600634748E+01
DEBUG_STATS_RL:          Salt (THERMODYNAMICS) mean=  1.88648523322709E+01
DEBUG_STATS_RL:          Salt (THERMODYNAMICS) S.D.=  1.73003672127625E+01
DEBUG_STATS_RL:         GtNm1 (THERMODYNAMICS)  min= -3.04652665267830E-06
DEBUG_STATS_RL:         GtNm1 (THERMODYNAMICS)  max=  2.67502005830557E-06
DEBUG_STATS_RL:         GtNm1 (THERMODYNAMICS) mean=  8.84356128592009E-09
DEBUG_STATS_RL:         GtNm1 (THERMODYNAMICS) S.D.=  2.12958455742163E-07
DEBUG_STATS_RL:         GsNm1 (THERMODYNAMICS)  min= -5.64400562462788E-07
DEBUG_STATS_RL:         GsNm1 (THERMODYNAMICS)  max=  3.39433318364021E-07
DEBUG_STATS_RL:         GsNm1 (THERMODYNAMICS) mean= -3.71455140471965E-10
DEBUG_STATS_RL:         GsNm1 (THERMODYNAMICS) S.D.=  1.92025864745370E-08
DEBUG_STATS_RL:                EtaN (DYNAMICS)  min= -1.83998440405947E+00
DEBUG_STATS_RL:                EtaN (DYNAMICS)  max=  1.06385328838009E+00
DEBUG_STATS_RL:                EtaN (DYNAMICS) mean= -1.55932781582120E-01
DEBUG_STATS_RL:                EtaN (DYNAMICS) S.D.=  6.60180342561308E-01
DEBUG_STATS_RL:                Uvel (DYNAMICS)  min= -1.81609068771157E-01
DEBUG_STATS_RL:                Uvel (DYNAMICS)  max=  1.60284556735550E-01
DEBUG_STATS_RL:                Uvel (DYNAMICS) mean=  4.21985186441117E-03
DEBUG_STATS_RL:                Uvel (DYNAMICS) S.D.=  2.46878831878774E-02
DEBUG_STATS_RL:                Vvel (DYNAMICS)  min= -1.09986847726665E-01
DEBUG_STATS_RL:                Vvel (DYNAMICS)  max=  1.26371139755909E-01
DEBUG_STATS_RL:                Vvel (DYNAMICS) mean= -1.75579387422313E-04
DEBUG_STATS_RL:                Vvel (DYNAMICS) S.D.=  1.46625805918131E-02
DEBUG_STATS_RL:                Wvel (DYNAMICS)  min= -1.70095416156782E-04
DEBUG_STATS_RL:                Wvel (DYNAMICS)  max=  1.62337844199817E-04
DEBUG_STATS_RL:                Wvel (DYNAMICS) mean= -2.52201389645955E-07
DEBUG_STATS_RL:                Wvel (DYNAMICS) S.D.=  1.59115947445014E-05
DEBUG_STATS_RL:               Theta (DYNAMICS)  min= -2.00484137926121E+00
DEBUG_STATS_RL:               Theta (DYNAMICS)  max=  3.00719287889080E+01
DEBUG_STATS_RL:               Theta (DYNAMICS) mean=  3.23028216607625E+00
DEBUG_STATS_RL:               Theta (DYNAMICS) S.D.=  5.85964701235627E+00
DEBUG_STATS_RL:                Salt (DYNAMICS)  min=  2.00000000000000E-02
DEBUG_STATS_RL:                Salt (DYNAMICS)  max=  3.74739600634748E+01
DEBUG_STATS_RL:                Salt (DYNAMICS) mean=  1.88648523322709E+01
DEBUG_STATS_RL:                Salt (DYNAMICS) S.D.=  1.73003672127625E+01
DEBUG_STATS_RL:                  Gu (DYNAMICS)  min= -1.81999532225847E-01
DEBUG_STATS_RL:                  Gu (DYNAMICS)  max=  1.35317933498215E-01
DEBUG_STATS_RL:                  Gu (DYNAMICS) mean=  4.22770704698347E-03
DEBUG_STATS_RL:                  Gu (DYNAMICS) S.D.=  2.54502888087664E-02
DEBUG_STATS_RL:                  Gv (DYNAMICS)  min= -1.10055553579996E-01
DEBUG_STATS_RL:                  Gv (DYNAMICS)  max=  1.41325822683182E-01
DEBUG_STATS_RL:                  Gv (DYNAMICS) mean=  2.17112334526518E-03
DEBUG_STATS_RL:                  Gv (DYNAMICS) S.D.=  1.49465699269303E-02
DEBUG_STATS_RL:               GuNm1 (DYNAMICS)  min= -8.47682723512181E-06
DEBUG_STATS_RL:               GuNm1 (DYNAMICS)  max=  7.87310551749702E-06
DEBUG_STATS_RL:               GuNm1 (DYNAMICS) mean= -2.06061407181529E-08
DEBUG_STATS_RL:               GuNm1 (DYNAMICS) S.D.=  1.19756343467220E-06
DEBUG_STATS_RL:               GvNm1 (DYNAMICS)  min= -1.09250042429694E-05
DEBUG_STATS_RL:               GvNm1 (DYNAMICS)  max=  1.65329999637402E-05
DEBUG_STATS_RL:               GvNm1 (DYNAMICS) mean=  7.58464431858089E-07
DEBUG_STATS_RL:               GvNm1 (DYNAMICS) S.D.=  2.65123096832213E-06
DEBUG_STATS_RL:               GtNm1 (DYNAMICS)  min= -3.04652665267830E-06
DEBUG_STATS_RL:               GtNm1 (DYNAMICS)  max=  2.67502005830557E-06
DEBUG_STATS_RL:               GtNm1 (DYNAMICS) mean=  8.84356128592009E-09
DEBUG_STATS_RL:               GtNm1 (DYNAMICS) S.D.=  2.12958455742163E-07
DEBUG_STATS_RL:               GsNm1 (DYNAMICS)  min= -5.64400562462788E-07
DEBUG_STATS_RL:               GsNm1 (DYNAMICS)  max=  3.39433318364021E-07
DEBUG_STATS_RL:               GsNm1 (DYNAMICS) mean= -3.71455140471965E-10
DEBUG_STATS_RL:               GsNm1 (DYNAMICS) S.D.=  1.92025864745370E-08
DEBUG_STATS_RL:    cg2d_b (SOLVE_FOR_PRESSURE)  min= -1.91218030871385E+04
DEBUG_STATS_RL:    cg2d_b (SOLVE_FOR_PRESSURE)  max=  1.90463762075432E+04
DEBUG_STATS_RL:    cg2d_b (SOLVE_FOR_PRESSURE) mean=  2.42617208444667E+00
DEBUG_STATS_RL:    cg2d_b (SOLVE_FOR_PRESSURE) S.D.=  3.87816180848053E+03
 cg2d: Sum(rhs),rhsMax =   2.93726922607633E-01  1.25597122397050E+00
(PID.TID 0000.0001)  cg2d: iter=     1 ; resid.=  3.47048013839435E-01
(PID.TID 0000.0001)  cg2d: iter=     2 ; resid.=  3.17602874147933E-01
(PID.TID 0000.0001)  cg2d: iter=     3 ; resid.=  3.03784756468130E-01
(PID.TID 0000.0001)  cg2d: iter=     4 ; resid.=  2.82647591290426E-01
(PID.TID 0000.0001)  cg2d: iter=     5 ; resid.=  2.76286190114306E-01
(PID.TID 0000.0001)  cg2d: iter=     6 ; resid.=  2.32187613384939E-01
(PID.TID 0000.0001)  cg2d: iter=     7 ; resid.=  1.90020474790288E-01
(PID.TID 0000.0001)  cg2d: iter=     8 ; resid.=  1.35624248691255E-01
(PID.TID 0000.0001)  cg2d: iter=     9 ; resid.=  9.91248475991414E-02
(PID.TID 0000.0001)  cg2d: iter=    10 ; resid.=  8.24906124630293E-02
(PID.TID 0000.0001)  cg2d: iter=    11 ; resid.=  7.29219006448218E-02
(PID.TID 0000.0001)  cg2d: iter=    12 ; resid.=  6.29488508607281E-02
(PID.TID 0000.0001)  cg2d: iter=    13 ; resid.=  5.13447806903963E-02
(PID.TID 0000.0001)  cg2d: iter=    14 ; resid.=  4.38000399474650E-02
(PID.TID 0000.0001)  cg2d: iter=    15 ; resid.=  3.40558241483810E-02
(PID.TID 0000.0001)  cg2d: iter=    16 ; resid.=  3.05609571369645E-02
(PID.TID 0000.0001)  cg2d: iter=    17 ; resid.=  2.67345346980659E-02
(PID.TID 0000.0001)  cg2d: iter=    18 ; resid.=  2.36482946608060E-02
(PID.TID 0000.0001)  cg2d: iter=    19 ; resid.=  1.76070251473899E-02
(PID.TID 0000.0001)  cg2d: iter=    20 ; resid.=  1.43054620228453E-02
(PID.TID 0000.0001)  cg2d: iter=    21 ; resid.=  1.21055957511944E-02
(PID.TID 0000.0001)  cg2d: iter=    22 ; resid.=  1.04298708362969E-02
(PID.TID 0000.0001)  cg2d: iter=    23 ; resid.=  9.24059415708303E-03
(PID.TID 0000.0001)  cg2d: iter=    24 ; resid.=  8.50036738233259E-03
(PID.TID 0000.0001)  cg2d: iter=    25 ; resid.=  6.27031287208394E-03
(PID.TID 0000.0001)  cg2d: iter=    26 ; resid.=  5.11933479839114E-03
(PID.TID 0000.0001)  cg2d: iter=    27 ; resid.=  3.98423236261322E-03
(PID.TID 0000.0001)  cg2d: iter=    28 ; resid.=  3.11284970649827E-03
(PID.TID 0000.0001)  cg2d: iter=    29 ; resid.=  2.36758927502379E-03
(PID.TID 0000.0001)  cg2d: iter=    30 ; resid.=  1.95956878791741E-03
(PID.TID 0000.0001)  cg2d: iter=    31 ; resid.=  1.67963693833353E-03
(PID.TID 0000.0001)  cg2d: iter=    32 ; resid.=  1.45137328253663E-03
(PID.TID 0000.0001)  cg2d: iter=    33 ; resid.=  1.27790508143177E-03
(PID.TID 0000.0001)  cg2d: iter=    34 ; resid.=  1.09309960819630E-03
(PID.TID 0000.0001)  cg2d: iter=    35 ; resid.=  9.26057877831009E-04
(PID.TID 0000.0001)  cg2d: iter=    36 ; resid.=  7.80085784472700E-04
(PID.TID 0000.0001)  cg2d: iter=    37 ; resid.=  6.86007946178919E-04
(PID.TID 0000.0001)  cg2d: iter=    38 ; resid.=  6.07854259643742E-04
(PID.TID 0000.0001)  cg2d: iter=    39 ; resid.=  5.08191594143188E-04
(PID.TID 0000.0001)  cg2d: iter=    40 ; resid.=  4.11747186497655E-04
(PID.TID 0000.0001)  cg2d: iter=    41 ; resid.=  3.49477817699729E-04
(PID.TID 0000.0001)  cg2d: iter=    42 ; resid.=  3.11564919683758E-04
(PID.TID 0000.0001)  cg2d: iter=    43 ; resid.=  2.56224042505577E-04
(PID.TID 0000.0001)  cg2d: iter=    44 ; resid.=  2.06560756024597E-04
(PID.TID 0000.0001)  cg2d: iter=    45 ; resid.=  1.56234031461708E-04
(PID.TID 0000.0001)  cg2d: iter=    46 ; resid.=  1.29896841763182E-04
(PID.TID 0000.0001)  cg2d: iter=    47 ; resid.=  1.09386731686220E-04
(PID.TID 0000.0001)  cg2d: iter=    48 ; resid.=  8.34477493010560E-05
(PID.TID 0000.0001)  cg2d: iter=    49 ; resid.=  6.80081877574366E-05
(PID.TID 0000.0001)  cg2d: iter=    50 ; resid.=  6.33238424813482E-05
(PID.TID 0000.0001)  cg2d: iter=    51 ; resid.=  5.89627355362275E-05
(PID.TID 0000.0001)  cg2d: iter=    52 ; resid.=  5.12971638808549E-05
(PID.TID 0000.0001)  cg2d: iter=    53 ; resid.=  4.53897850432408E-05
(PID.TID 0000.0001)  cg2d: iter=    54 ; resid.=  3.49256877452104E-05
(PID.TID 0000.0001)  cg2d: iter=    55 ; resid.=  2.71326671859862E-05
(PID.TID 0000.0001)  cg2d: iter=    56 ; resid.=  2.28017447432080E-05
(PID.TID 0000.0001)  cg2d: iter=    57 ; resid.=  1.78378162673944E-05
(PID.TID 0000.0001)  cg2d: iter=    58 ; resid.=  1.42136697433139E-05
(PID.TID 0000.0001)  cg2d: iter=    59 ; resid.=  1.13929814851194E-05
(PID.TID 0000.0001)  cg2d: iter=    60 ; resid.=  9.12688545988942E-06
(PID.TID 0000.0001)  cg2d: iter=    61 ; resid.=  7.81642347849388E-06
(PID.TID 0000.0001)  cg2d: iter=    62 ; resid.=  6.80724884390326E-06
(PID.TID 0000.0001)  cg2d: iter=    63 ; resid.=  5.51992073775217E-06
(PID.TID 0000.0001)  cg2d: iter=    64 ; resid.=  4.59594166620793E-06
(PID.TID 0000.0001)  cg2d: iter=    65 ; resid.=  3.39880160507094E-06
(PID.TID 0000.0001)  cg2d: iter=    66 ; resid.=  2.92556096203880E-06
(PID.TID 0000.0001)  cg2d: iter=    67 ; resid.=  2.50754450006102E-06
(PID.TID 0000.0001)  cg2d: iter=    68 ; resid.=  2.24060957881387E-06
(PID.TID 0000.0001)  cg2d: iter=    69 ; resid.=  1.84817026359936E-06
(PID.TID 0000.0001)  cg2d: iter=    70 ; resid.=  1.51201769708420E-06
(PID.TID 0000.0001)  cg2d: iter=    71 ; resid.=  1.25641527742404E-06
(PID.TID 0000.0001)  cg2d: iter=    72 ; resid.=  1.14065001426381E-06
(PID.TID 0000.0001)  cg2d: iter=    73 ; resid.=  1.00794062098200E-06
(PID.TID 0000.0001)  cg2d: iter=    74 ; resid.=  8.49982404586857E-07
(PID.TID 0000.0001)  cg2d: iter=    75 ; resid.=  6.72286060798777E-07
(PID.TID 0000.0001)  cg2d: iter=    76 ; resid.=  5.44021579433272E-07
(PID.TID 0000.0001)  cg2d: iter=    77 ; resid.=  3.96500474478620E-07
(PID.TID 0000.0001)  cg2d: iter=    78 ; resid.=  2.89462018130080E-07
(PID.TID 0000.0001)  cg2d: iter=    79 ; resid.=  2.26032640803781E-07
(PID.TID 0000.0001)  cg2d: iter=    80 ; resid.=  1.55570888867572E-07
(PID.TID 0000.0001)  cg2d: iter=    81 ; resid.=  1.16367023796937E-07
(PID.TID 0000.0001)  cg2d: iter=    82 ; resid.=  9.47336048731673E-08
(PID.TID 0000.0001)  cg2d: iter=    83 ; resid.=  7.30853914401783E-08
(PID.TID 0000.0001)  cg2d: iter=    84 ; resid.=  5.39975687774258E-08
(PID.TID 0000.0001)  cg2d: iter=    85 ; resid.=  4.12030710111143E-08
(PID.TID 0000.0001)  cg2d: iter=    86 ; resid.=  3.13323142165110E-08
(PID.TID 0000.0001)  cg2d: iter=    87 ; resid.=  2.47615865426601E-08
(PID.TID 0000.0001)  cg2d: iter=    88 ; resid.=  1.99019868447599E-08
(PID.TID 0000.0001)  cg2d: iter=    89 ; resid.=  1.70472923860030E-08
(PID.TID 0000.0001)  cg2d: iter=    90 ; resid.=  1.52567682753909E-08
(PID.TID 0000.0001)  cg2d: iter=    91 ; resid.=  1.22792549222743E-08
(PID.TID 0000.0001)  cg2d: iter=    92 ; resid.=  9.53654610429244E-09
(PID.TID 0000.0001)  cg2d: iter=    93 ; resid.=  8.08010100766228E-09
(PID.TID 0000.0001)  cg2d: iter=    94 ; resid.=  6.41620178374302E-09
(PID.TID 0000.0001)  cg2d: iter=    95 ; resid.=  5.31519927534059E-09
(PID.TID 0000.0001)  cg2d: iter=    96 ; resid.=  3.89998942000658E-09
(PID.TID 0000.0001)  cg2d: iter=    97 ; resid.=  3.05558181282035E-09
(PID.TID 0000.0001)  cg2d: iter=    98 ; resid.=  2.45486437357980E-09
(PID.TID 0000.0001)  cg2d: iter=    99 ; resid.=  2.08209641043059E-09
(PID.TID 0000.0001)  cg2d: iter=   100 ; resid.=  1.76777171095597E-09
(PID.TID 0000.0001)  cg2d: iter=   101 ; resid.=  1.53197079616391E-09
(PID.TID 0000.0001)  cg2d: iter=   102 ; resid.=  1.24612825560737E-09
(PID.TID 0000.0001)  cg2d: iter=   103 ; resid.=  9.33398498562233E-10
(PID.TID 0000.0001)  cg2d: iter=   104 ; resid.=  7.56589295857938E-10
(PID.TID 0000.0001)  cg2d: iter=   105 ; resid.=  5.79712470734211E-10
(PID.TID 0000.0001)  cg2d: iter=   106 ; resid.=  4.63024312375491E-10
(PID.TID 0000.0001)  cg2d: iter=   107 ; resid.=  3.42673836686383E-10
(PID.TID 0000.0001)  cg2d: iter=   108 ; resid.=  2.38534997046663E-10
(PID.TID 0000.0001)  cg2d: iter=   109 ; resid.=  1.70043908877021E-10
(PID.TID 0000.0001)  cg2d: iter=   110 ; resid.=  1.23017770816785E-10
(PID.TID 0000.0001)  cg2d: iter=   111 ; resid.=  9.51913880299763E-11
(PID.TID 0000.0001)  cg2d: iter=   112 ; resid.=  7.50097147644431E-11
(PID.TID 0000.0001)  cg2d: iter=   113 ; resid.=  5.57107962916421E-11
(PID.TID 0000.0001)  cg2d: iter=   114 ; resid.=  4.50583286963229E-11
(PID.TID 0000.0001)  cg2d: iter=   115 ; resid.=  3.54566296778944E-11
(PID.TID 0000.0001)  cg2d: iter=   116 ; resid.=  2.62224066380119E-11
(PID.TID 0000.0001)  cg2d: iter=   117 ; resid.=  2.13059108648629E-11
(PID.TID 0000.0001)  cg2d: iter=   118 ; resid.=  1.74232061846925E-11
(PID.TID 0000.0001)  cg2d: iter=   119 ; resid.=  1.30957936446295E-11
(PID.TID 0000.0001)  cg2d: iter=   120 ; resid.=  9.78191663844044E-12
(PID.TID 0000.0001)  cg2d: iter=   121 ; resid.=  7.65242301826666E-12
(PID.TID 0000.0001)  cg2d: iter=   122 ; resid.=  5.41115758453716E-12
(PID.TID 0000.0001)  cg2d: iter=   123 ; resid.=  3.90835011660321E-12
(PID.TID 0000.0001)  cg2d: iter=   124 ; resid.=  2.85876514328657E-12
(PID.TID 0000.0001)  cg2d: iter=   125 ; resid.=  2.18996223086483E-12
(PID.TID 0000.0001)  cg2d: iter=   126 ; resid.=  1.61372184941855E-12
(PID.TID 0000.0001)  cg2d: iter=   127 ; resid.=  1.07419292082412E-12
(PID.TID 0000.0001)  cg2d: iter=   128 ; resid.=  8.02530337111884E-13
(PID.TID 0000.0001)  cg2d: iter=   129 ; resid.=  5.94489766966034E-13
(PID.TID 0000.0001)  cg2d: iter=   130 ; resid.=  4.69433875820223E-13
(PID.TID 0000.0001)  cg2d: iter=   131 ; resid.=  3.60894530982726E-13
(PID.TID 0000.0001)  cg2d: iter=   132 ; resid.=  2.85404135405703E-13
(PID.TID 0000.0001)  cg2d: iter=   133 ; resid.=  2.29202249500478E-13
(PID.TID 0000.0001)  cg2d: iter=   134 ; resid.=  1.96058759417905E-13
(PID.TID 0000.0001)  cg2d: iter=   135 ; resid.=  1.55079730121159E-13
(PID.TID 0000.0001)  cg2d: iter=   136 ; resid.=  1.05314765300961E-13
(PID.TID 0000.0001)  cg2d: iter=   137 ; resid.=  7.93740773067709E-14
DEBUG_STATS_RL:    cg2d_x (SOLVE_FOR_PRESSURE)  min= -1.79210348297990E+01
DEBUG_STATS_RL:    cg2d_x (SOLVE_FOR_PRESSURE)  max=  1.02569942611782E+01
DEBUG_STATS_RL:    cg2d_x (SOLVE_FOR_PRESSURE) mean= -1.56054161919711E+00
DEBUG_STATS_RL:    cg2d_x (SOLVE_FOR_PRESSURE) S.D.=  6.57040711061822E+00
(PID.TID 0000.0001)      cg2d_init_res =   5.71336384162658E-01
(PID.TID 0000.0001)      cg2d_iters(min,last) =      -1     137
(PID.TID 0000.0001)      cg2d_last_res =   7.93740773067709E-14
(PID.TID 0000.0001) // =======================================================
(PID.TID 0000.0001) // Begin MONITOR dynamic field statistics
(PID.TID 0000.0001) // =======================================================
(PID.TID 0000.0001) %MON time_tsnumber                =                    34
(PID.TID 0000.0001) %MON time_secondsf                =   2.9376000000000E+06
(PID.TID 0000.0001) %MON dynstat_eta_max              =   1.0455651642384E+00
(PID.TID 0000.0001) %MON dynstat_eta_min              =  -1.8268129286237E+00
(PID.TID 0000.0001) %MON dynstat_eta_mean             =  -2.5314097347132E-03
(PID.TID 0000.0001) %MON dynstat_eta_sd               =   5.9068111653787E-01
(PID.TID 0000.0001) %MON dynstat_eta_del2             =   2.2042540329487E-03
(PID.TID 0000.0001) %MON dynstat_uvel_max             =   1.5033440094081E-01
(PID.TID 0000.0001) %MON dynstat_uvel_min             =  -1.8040685242292E-01
(PID.TID 0000.0001) %MON dynstat_uvel_mean            =   2.7461679835869E-03
(PID.TID 0000.0001) %MON dynstat_uvel_sd              =   1.8228212309563E-02
(PID.TID 0000.0001) %MON dynstat_uvel_del2            =   9.2067632232011E-05
(PID.TID 0000.0001) %MON dynstat_vvel_max             =   1.3521916995507E-01
(PID.TID 0000.0001) %MON dynstat_vvel_min             =  -1.0909253454580E-01
(PID.TID 0000.0001) %MON dynstat_vvel_mean            =  -1.9767036729290E-04
(PID.TID 0000.0001) %MON dynstat_vvel_sd              =   1.0504604204811E-02
(PID.TID 0000.0001) %MON dynstat_vvel_del2            =   8.8932145473867E-05
(PID.TID 0000.0001) %MON dynstat_wvel_max             =   1.5173025027104E-04
(PID.TID 0000.0001) %MON dynstat_wvel_min             =  -1.5571244340963E-04
(PID.TID 0000.0001) %MON dynstat_wvel_mean            =  -3.4253427210810E-22
(PID.TID 0000.0001) %MON dynstat_wvel_sd              =   1.7561551129849E-05
(PID.TID 0000.0001) %MON dynstat_wvel_del2            =   1.9588299721631E-07
(PID.TID 0000.0001) %MON dynstat_theta_max            =   3.0071928788908E+01
(PID.TID 0000.0001) %MON dynstat_theta_min            =  -2.0048413792612E+00
(PID.TID 0000.0001) %MON dynstat_theta_mean           =   3.6413431570137E+00
(PID.TID 0000.0001) %MON dynstat_theta_sd             =   4.4179986295619E+00
(PID.TID 0000.0001) %MON dynstat_theta_del2           =   4.8243906450930E-03
(PID.TID 0000.0001) %MON dynstat_salt_max             =   3.7473960063475E+01
(PID.TID 0000.0001) %MON dynstat_salt_min             =   2.9842934877854E+01
(PID.TID 0000.0001) %MON dynstat_salt_mean            =   3.4737981684494E+01
(PID.TID 0000.0001) %MON dynstat_salt_sd              =   2.9626880098504E-01
(PID.TID 0000.0001) %MON dynstat_salt_del2            =   9.9276685166609E-04
(PID.TID 0000.0001) %MON dynstat_sst_max              =   3.0071928788908E+01
(PID.TID 0000.0001) %MON dynstat_sst_min              =  -2.0048413792612E+00
(PID.TID 0000.0001) %MON dynstat_sst_mean             =   1.8789360776088E+01
(PID.TID 0000.0001) %MON dynstat_sst_sd               =   9.0366324874718E+00
(PID.TID 0000.0001) %MON dynstat_sst_del2             =   2.6826624058820E-02
(PID.TID 0000.0001) %MON dynstat_sss_max              =   3.7451461526140E+01
(PID.TID 0000.0001) %MON dynstat_sss_min              =   2.9842934877854E+01
(PID.TID 0000.0001) %MON dynstat_sss_mean             =   3.4865006102365E+01
(PID.TID 0000.0001) %MON dynstat_sss_sd               =   9.7597927640952E-01
(PID.TID 0000.0001) %MON dynstat_sss_del2             =   7.8725317419968E-03
(PID.TID 0000.0001) %MON forcing_qnet_max             =   3.8187005615234E+02
(PID.TID 0000.0001) %MON forcing_qnet_min             =  -1.7570820007324E+02
(PID.TID 0000.0001) %MON forcing_qnet_mean            =  -1.4984160987784E+01
(PID.TID 0000.0001) %MON forcing_qnet_sd              =   9.1092630456928E+01
(PID.TID 0000.0001) %MON forcing_qnet_del2            =   9.6613871099960E-01
(PID.TID 0000.0001) %MON forcing_qsw_max              =   0.0000000000000E+00
(PID.TID 0000.0001) %MON forcing_qsw_min              =   0.0000000000000E+00
(PID.TID 0000.0001) %MON forcing_qsw_mean             =   0.0000000000000E+00
(PID.TID 0000.0001) %MON forcing_qsw_sd               =   0.0000000000000E+00
(PID.TID 0000.0001) %MON forcing_qsw_del2             =   0.0000000000000E+00
(PID.TID 0000.0001) %MON forcing_empmr_max            =   7.6520623792931E-05
(PID.TID 0000.0001) %MON forcing_empmr_min            =  -7.7589552915924E-05
(PID.TID 0000.0001) %MON forcing_empmr_mean           =   9.3522021278988E-07
(PID.TID 0000.0001) %MON forcing_empmr_sd             =   2.8112018032576E-05
(PID.TID 0000.0001) %MON forcing_empmr_del2           =   3.5413910341625E-07
(PID.TID 0000.0001) %MON forcing_fu_max               =   2.8798962831497E-01
(PID.TID 0000.0001) %MON forcing_fu_min               =  -1.9581326544285E-01
(PID.TID 0000.0001) %MON forcing_fu_mean              =   1.6979139031008E-02
(PID.TID 0000.0001) %MON forcing_fu_sd                =   9.0367493904055E-02
(PID.TID 0000.0001) %MON forcing_fu_del2              =   6.7397847691000E-04
(PID.TID 0000.0001) %MON forcing_fv_max               =   1.8591085970402E-01
(PID.TID 0000.0001) %MON forcing_fv_min               =  -1.6161646842957E-01
(PID.TID 0000.0001) %MON forcing_fv_mean              =  -6.4335940603783E-03
(PID.TID 0000.0001) %MON forcing_fv_sd                =   4.4654100071951E-02
(PID.TID 0000.0001) %MON forcing_fv_del2              =   4.7289247100782E-04
(PID.TID 0000.0001) %MON trAdv_CFL_u_max              =   5.2990515668267E-02
(PID.TID 0000.0001) %MON trAdv_CFL_v_max              =   2.5102721765394E-02
(PID.TID 0000.0001) %MON trAdv_CFL_w_max              =   7.7348652399716E-02
(PID.TID 0000.0001) %MON advcfl_uvel_max              =   4.9690874201022E-02
(PID.TID 0000.0001) %MON advcfl_vvel_max              =   2.6270916067512E-02
(PID.TID 0000.0001) %MON advcfl_wvel_max              =   6.5003478861228E-02
(PID.TID 0000.0001) %MON advcfl_W_hf_max              =   7.6611242943590E-02
(PID.TID 0000.0001) %MON pe_b_mean                    =   4.4647315440748E-04
(PID.TID 0000.0001) %MON ke_max                       =   1.8292217966136E-02
(PID.TID 0000.0001) %MON ke_mean                      =   2.0393746185733E-04
(PID.TID 0000.0001) %MON ke_vol                       =   1.3226782436723E+18
(PID.TID 0000.0001) %MON vort_r_min                   =  -3.6513044476948E-07
(PID.TID 0000.0001) %MON vort_r_max                   =   5.1270578440152E-07
(PID.TID 0000.0001) %MON vort_a_mean                  =  -2.5274807685819E-05
(PID.TID 0000.0001) %MON vort_a_sd                    =   7.3604687854459E-05
(PID.TID 0000.0001) %MON vort_p_mean                  =  -3.1845656162809E-05
(PID.TID 0000.0001) %MON vort_p_sd                    =   1.3162689065302E-04
(PID.TID 0000.0001) %MON surfExpan_theta_mean         =   6.4699282247624E-07
(PID.TID 0000.0001) %MON surfExpan_salt_mean          =  -2.5921853145117E-07
(PID.TID 0000.0001) // =======================================================
(PID.TID 0000.0001) // End MONITOR dynamic field statistics
(PID.TID 0000.0001) // =======================================================
 EXTERNAL_FIELDS_LOAD,        34 : iP,iLd,i0,i1=    1    2    1    2 ; Wght=  0.3666666667  0.6333333333
 EXTERNAL_FIELDS_LOAD: (fu0,1),fu,fv= -3.5633E-02 -1.4435E-02 -2.2207E-02 -3.2163E-02
 EXTERNAL_FIELDS_LOAD: SST,SSS,Q,E-P=  1.4580E-02  3.4529E+01  2.4975E+02  9.5723E-06
DEBUG_STATS_RL:          Uvel (THERMODYNAMICS)  min= -1.80406852422924E-01
DEBUG_STATS_RL:          Uvel (THERMODYNAMICS)  max=  1.50334400940807E-01
DEBUG_STATS_RL:          Uvel (THERMODYNAMICS) mean=  4.20504692201840E-03
DEBUG_STATS_RL:          Uvel (THERMODYNAMICS) S.D.=  2.50515555094280E-02
DEBUG_STATS_RL:          Vvel (THERMODYNAMICS)  min= -1.09092534545798E-01
DEBUG_STATS_RL:          Vvel (THERMODYNAMICS)  max=  1.35219169955067E-01
DEBUG_STATS_RL:          Vvel (THERMODYNAMICS) mean= -2.77194460084149E-04
DEBUG_STATS_RL:          Vvel (THERMODYNAMICS) S.D.=  1.47904486609052E-02
DEBUG_STATS_RL:          Wvel (THERMODYNAMICS)  min= -1.55712443409629E-04
DEBUG_STATS_RL:          Wvel (THERMODYNAMICS)  max=  1.51730250271039E-04
DEBUG_STATS_RL:          Wvel (THERMODYNAMICS) mean= -2.99570496040821E-07
DEBUG_STATS_RL:          Wvel (THERMODYNAMICS) S.D.=  1.58625451501996E-05
DEBUG_STATS_RL:         Theta (THERMODYNAMICS)  min= -2.00441193424037E+00
DEBUG_STATS_RL:         Theta (THERMODYNAMICS)  max=  3.00848565565693E+01
DEBUG_STATS_RL:         Theta (THERMODYNAMICS) mean=  3.23076509176122E+00
DEBUG_STATS_RL:         Theta (THERMODYNAMICS) S.D.=  5.86009558718695E+00
DEBUG_STATS_RL:          Salt (THERMODYNAMICS)  min=  2.00000000000000E-02
DEBUG_STATS_RL:          Salt (THERMODYNAMICS)  max=  3.74746307505329E+01
DEBUG_STATS_RL:          Salt (THERMODYNAMICS) mean=  1.88648433965174E+01
DEBUG_STATS_RL:          Salt (THERMODYNAMICS) S.D.=  1.73003600872400E+01
DEBUG_STATS_RL:         GtNm1 (THERMODYNAMICS)  min= -3.22566318379545E-06
DEBUG_STATS_RL:         GtNm1 (THERMODYNAMICS)  max=  2.68685212989680E-06
DEBUG_STATS_RL:         GtNm1 (THERMODYNAMICS) mean=  9.99057387304699E-09
DEBUG_STATS_RL:         GtNm1 (THERMODYNAMICS) S.D.=  2.12618042936009E-07
DEBUG_STATS_RL:         GsNm1 (THERMODYNAMICS)  min= -5.45756701571975E-07
DEBUG_STATS_RL:         GsNm1 (THERMODYNAMICS)  max=  3.72848241917070E-07
DEBUG_STATS_RL:         GsNm1 (THERMODYNAMICS) mean= -2.90856356656873E-10
DEBUG_STATS_RL:         GsNm1 (THERMODYNAMICS) S.D.=  1.89931318123448E-08
DEBUG_STATS_RL:                EtaN (DYNAMICS)  min= -1.82681292862375E+00
DEBUG_STATS_RL:                EtaN (DYNAMICS)  max=  1.04556516423835E+00
DEBUG_STATS_RL:                EtaN (DYNAMICS) mean= -1.59076617655158E-01
DEBUG_STATS_RL:                EtaN (DYNAMICS) S.D.=  6.69766270195537E-01
DEBUG_STATS_RL:                Uvel (DYNAMICS)  min= -1.80406852422924E-01
DEBUG_STATS_RL:                Uvel (DYNAMICS)  max=  1.50334400940807E-01
DEBUG_STATS_RL:                Uvel (DYNAMICS) mean=  4.20504692201840E-03
DEBUG_STATS_RL:                Uvel (DYNAMICS) S.D.=  2.50515555094280E-02
DEBUG_STATS_RL:                Vvel (DYNAMICS)  min= -1.09092534545798E-01
DEBUG_STATS_RL:                Vvel (DYNAMICS)  max=  1.35219169955067E-01
DEBUG_STATS_RL:                Vvel (DYNAMICS) mean= -2.77194460084149E-04
DEBUG_STATS_RL:                Vvel (DYNAMICS) S.D.=  1.47904486609052E-02
DEBUG_STATS_RL:                Wvel (DYNAMICS)  min= -1.55712443409629E-04
DEBUG_STATS_RL:                Wvel (DYNAMICS)  max=  1.51730250271039E-04
DEBUG_STATS_RL:                Wvel (DYNAMICS) mean= -2.99570496040821E-07
DEBUG_STATS_RL:                Wvel (DYNAMICS) S.D.=  1.58625451501996E-05
DEBUG_STATS_RL:               Theta (DYNAMICS)  min= -2.00441193424037E+00
DEBUG_STATS_RL:               Theta (DYNAMICS)  max=  3.00848565565693E+01
DEBUG_STATS_RL:               Theta (DYNAMICS) mean=  3.23076509176122E+00
DEBUG_STATS_RL:               Theta (DYNAMICS) S.D.=  5.86009558718695E+00
DEBUG_STATS_RL:                Salt (DYNAMICS)  min=  2.00000000000000E-02
DEBUG_STATS_RL:                Salt (DYNAMICS)  max=  3.74746307505329E+01
DEBUG_STATS_RL:                Salt (DYNAMICS) mean=  1.88648433965174E+01
DEBUG_STATS_RL:                Salt (DYNAMICS) S.D.=  1.73003600872400E+01
DEBUG_STATS_RL:                  Gu (DYNAMICS)  min= -1.80142925133754E-01
DEBUG_STATS_RL:                  Gu (DYNAMICS)  max=  1.28096619881663E-01
DEBUG_STATS_RL:                  Gu (DYNAMICS) mean=  4.11628982219207E-03
DEBUG_STATS_RL:                  Gu (DYNAMICS) S.D.=  2.57950936329929E-02
DEBUG_STATS_RL:                  Gv (DYNAMICS)  min= -1.06210737574574E-01
DEBUG_STATS_RL:                  Gv (DYNAMICS)  max=  1.50545884802938E-01
DEBUG_STATS_RL:                  Gv (DYNAMICS) mean=  2.09176761459963E-03
DEBUG_STATS_RL:                  Gv (DYNAMICS) S.D.=  1.49832027535745E-02
DEBUG_STATS_RL:               GuNm1 (DYNAMICS)  min= -8.60821820375548E-06
DEBUG_STATS_RL:               GuNm1 (DYNAMICS)  max=  7.96972680490863E-06
DEBUG_STATS_RL:               GuNm1 (DYNAMICS) mean= -2.11893551066820E-08
DEBUG_STATS_RL:               GuNm1 (DYNAMICS) S.D.=  1.19368090979476E-06
DEBUG_STATS_RL:               GvNm1 (DYNAMICS)  min= -1.08818139079378E-05
DEBUG_STATS_RL:               GvNm1 (DYNAMICS)  max=  1.64926739152946E-05
DEBUG_STATS_RL:               GvNm1 (DYNAMICS) mean=  7.56195630830012E-07
DEBUG_STATS_RL:               GvNm1 (DYNAMICS) S.D.=  2.64514127075697E-06
DEBUG_STATS_RL:               GtNm1 (DYNAMICS)  min= -3.22566318379545E-06
DEBUG_STATS_RL:               GtNm1 (DYNAMICS)  max=  2.68685212989680E-06
DEBUG_STATS_RL:               GtNm1 (DYNAMICS) mean=  9.99057387304699E-09
DEBUG_STATS_RL:               GtNm1 (DYNAMICS) S.D.=  2.12618042936009E-07
DEBUG_STATS_RL:               GsNm1 (DYNAMICS)  min= -5.45756701571975E-07
DEBUG_STATS_RL:               GsNm1 (DYNAMICS)  max=  3.72848241917070E-07
DEBUG_STATS_RL:               GsNm1 (DYNAMICS) mean= -2.90856356656873E-10
DEBUG_STATS_RL:               GsNm1 (DYNAMICS) S.D.=  1.89931318123448E-08
DEBUG_STATS_RL:    cg2d_b (SOLVE_FOR_PRESSURE)  min= -1.88178205215729E+04
DEBUG_STATS_RL:    cg2d_b (SOLVE_FOR_PRESSURE)  max=  1.86027880624881E+04
DEBUG_STATS_RL:    cg2d_b (SOLVE_FOR_PRESSURE) mean=  2.50105163115261E+00
DEBUG_STATS_RL:    cg2d_b (SOLVE_FOR_PRESSURE) S.D.=  3.85862168120924E+03
 cg2d: Sum(rhs),rhsMax =   3.07683587452669E-01  1.23600483517341E+00
(PID.TID 0000.0001)  cg2d: iter=     1 ; resid.=  3.47697111649821E-01
(PID.TID 0000.0001)  cg2d: iter=     2 ; resid.=  3.13844022585600E-01
(PID.TID 0000.0001)  cg2d: iter=     3 ; resid.=  3.04361592748680E-01
(PID.TID 0000.0001)  cg2d: iter=     4 ; resid.=  2.83877427277219E-01
(PID.TID 0000.0001)  cg2d: iter=     5 ; resid.=  2.77962046791953E-01
(PID.TID 0000.0001)  cg2d: iter=     6 ; resid.=  2.32801298705527E-01
(PID.TID 0000.0001)  cg2d: iter=     7 ; resid.=  1.91513861077104E-01
(PID.TID 0000.0001)  cg2d: iter=     8 ; resid.=  1.38907295082122E-01
(PID.TID 0000.0001)  cg2d: iter=     9 ; resid.=  1.02809712565819E-01
(PID.TID 0000.0001)  cg2d: iter=    10 ; resid.=  8.50989860115723E-02
(PID.TID 0000.0001)  cg2d: iter=    11 ; resid.=  7.54363115441825E-02
(PID.TID 0000.0001)  cg2d: iter=    12 ; resid.=  6.48101354053269E-02
(PID.TID 0000.0001)  cg2d: iter=    13 ; resid.=  5.24140197332952E-02
(PID.TID 0000.0001)  cg2d: iter=    14 ; resid.=  4.50878608156629E-02
(PID.TID 0000.0001)  cg2d: iter=    15 ; resid.=  3.49837665885518E-02
(PID.TID 0000.0001)  cg2d: iter=    16 ; resid.=  3.15236263608717E-02
(PID.TID 0000.0001)  cg2d: iter=    17 ; resid.=  2.75647027170843E-02
(PID.TID 0000.0001)  cg2d: iter=    18 ; resid.=  2.44144341463231E-02
(PID.TID 0000.0001)  cg2d: iter=    19 ; resid.=  1.81853135749741E-02
(PID.TID 0000.0001)  cg2d: iter=    20 ; resid.=  1.46442340320784E-02
(PID.TID 0000.0001)  cg2d: iter=    21 ; resid.=  1.22008558175253E-02
(PID.TID 0000.0001)  cg2d: iter=    22 ; resid.=  1.04664327356871E-02
(PID.TID 0000.0001)  cg2d: iter=    23 ; resid.=  9.28037292878165E-03
(PID.TID 0000.0001)  cg2d: iter=    24 ; resid.=  8.63372182552691E-03
(PID.TID 0000.0001)  cg2d: iter=    25 ; resid.=  6.42502681867713E-03
(PID.TID 0000.0001)  cg2d: iter=    26 ; resid.=  5.20951361301736E-03
(PID.TID 0000.0001)  cg2d: iter=    27 ; resid.=  4.00021599269355E-03
(PID.TID 0000.0001)  cg2d: iter=    28 ; resid.=  3.11109468280080E-03
(PID.TID 0000.0001)  cg2d: iter=    29 ; resid.=  2.35273796887144E-03
(PID.TID 0000.0001)  cg2d: iter=    30 ; resid.=  1.96949211493135E-03
(PID.TID 0000.0001)  cg2d: iter=    31 ; resid.=  1.68625392204397E-03
(PID.TID 0000.0001)  cg2d: iter=    32 ; resid.=  1.45282431862949E-03
(PID.TID 0000.0001)  cg2d: iter=    33 ; resid.=  1.30055132372081E-03
(PID.TID 0000.0001)  cg2d: iter=    34 ; resid.=  1.12056504819134E-03
(PID.TID 0000.0001)  cg2d: iter=    35 ; resid.=  9.49233026729752E-04
(PID.TID 0000.0001)  cg2d: iter=    36 ; resid.=  8.03007189202077E-04
(PID.TID 0000.0001)  cg2d: iter=    37 ; resid.=  6.94162004452069E-04
(PID.TID 0000.0001)  cg2d: iter=    38 ; resid.=  6.14459202246083E-04
(PID.TID 0000.0001)  cg2d: iter=    39 ; resid.=  5.16848808812987E-04
(PID.TID 0000.0001)  cg2d: iter=    40 ; resid.=  4.17478310571523E-04
(PID.TID 0000.0001)  cg2d: iter=    41 ; resid.=  3.52742309109658E-04
(PID.TID 0000.0001)  cg2d: iter=    42 ; resid.=  3.12495694780408E-04
(PID.TID 0000.0001)  cg2d: iter=    43 ; resid.=  2.59217516488124E-04
(PID.TID 0000.0001)  cg2d: iter=    44 ; resid.=  2.10200785459354E-04
(PID.TID 0000.0001)  cg2d: iter=    45 ; resid.=  1.57820790762622E-04
(PID.TID 0000.0001)  cg2d: iter=    46 ; resid.=  1.30165053305095E-04
(PID.TID 0000.0001)  cg2d: iter=    47 ; resid.=  1.10073034897199E-04
(PID.TID 0000.0001)  cg2d: iter=    48 ; resid.=  8.45338032601344E-05
(PID.TID 0000.0001)  cg2d: iter=    49 ; resid.=  6.97370920644067E-05
(PID.TID 0000.0001)  cg2d: iter=    50 ; resid.=  6.55559924667902E-05
(PID.TID 0000.0001)  cg2d: iter=    51 ; resid.=  6.06055179476467E-05
(PID.TID 0000.0001)  cg2d: iter=    52 ; resid.=  5.18745761081329E-05
(PID.TID 0000.0001)  cg2d: iter=    53 ; resid.=  4.50966397070356E-05
(PID.TID 0000.0001)  cg2d: iter=    54 ; resid.=  3.46174139710295E-05
(PID.TID 0000.0001)  cg2d: iter=    55 ; resid.=  2.67848086546309E-05
(PID.TID 0000.0001)  cg2d: iter=    56 ; resid.=  2.21372345803865E-05
(PID.TID 0000.0001)  cg2d: iter=    57 ; resid.=  1.75792494626435E-05
(PID.TID 0000.0001)  cg2d: iter=    58 ; resid.=  1.42660664137178E-05
(PID.TID 0000.0001)  cg2d: iter=    59 ; resid.=  1.17681938421361E-05
(PID.TID 0000.0001)  cg2d: iter=    60 ; resid.=  9.48530799944731E-06
(PID.TID 0000.0001)  cg2d: iter=    61 ; resid.=  8.20071948406218E-06
(PID.TID 0000.0001)  cg2d: iter=    62 ; resid.=  7.12726049588751E-06
(PID.TID 0000.0001)  cg2d: iter=    63 ; resid.=  5.82801007788998E-06
(PID.TID 0000.0001)  cg2d: iter=    64 ; resid.=  4.73885993409205E-06
(PID.TID 0000.0001)  cg2d: iter=    65 ; resid.=  3.52907854268597E-06
(PID.TID 0000.0001)  cg2d: iter=    66 ; resid.=  3.03760179848476E-06
(PID.TID 0000.0001)  cg2d: iter=    67 ; resid.=  2.56132060308374E-06
(PID.TID 0000.0001)  cg2d: iter=    68 ; resid.=  2.28187308869175E-06
(PID.TID 0000.0001)  cg2d: iter=    69 ; resid.=  1.86986874749093E-06
(PID.TID 0000.0001)  cg2d: iter=    70 ; resid.=  1.51874473394140E-06
(PID.TID 0000.0001)  cg2d: iter=    71 ; resid.=  1.27847833790597E-06
(PID.TID 0000.0001)  cg2d: iter=    72 ; resid.=  1.16190213194928E-06
(PID.TID 0000.0001)  cg2d: iter=    73 ; resid.=  1.03007180043791E-06
(PID.TID 0000.0001)  cg2d: iter=    74 ; resid.=  8.57114211288716E-07
(PID.TID 0000.0001)  cg2d: iter=    75 ; resid.=  6.73519628446882E-07
(PID.TID 0000.0001)  cg2d: iter=    76 ; resid.=  5.42838193004086E-07
(PID.TID 0000.0001)  cg2d: iter=    77 ; resid.=  4.01913879302521E-07
(PID.TID 0000.0001)  cg2d: iter=    78 ; resid.=  2.98545621738243E-07
(PID.TID 0000.0001)  cg2d: iter=    79 ; resid.=  2.35363286123606E-07
(PID.TID 0000.0001)  cg2d: iter=    80 ; resid.=  1.65266458238808E-07
(PID.TID 0000.0001)  cg2d: iter=    81 ; resid.=  1.23892446342712E-07
(PID.TID 0000.0001)  cg2d: iter=    82 ; resid.=  9.99887425359038E-08
(PID.TID 0000.0001)  cg2d: iter=    83 ; resid.=  7.56473874922966E-08
(PID.TID 0000.0001)  cg2d: iter=    84 ; resid.=  5.56269549147663E-08
(PID.TID 0000.0001)  cg2d: iter=    85 ; resid.=  4.18931375916786E-08
(PID.TID 0000.0001)  cg2d: iter=    86 ; resid.=  3.22776173155193E-08
(PID.TID 0000.0001)  cg2d: iter=    87 ; resid.=  2.69031595214343E-08
(PID.TID 0000.0001)  cg2d: iter=    88 ; resid.=  2.21913895078387E-08
(PID.TID 0000.0001)  cg2d: iter=    89 ; resid.=  1.89450314746724E-08
(PID.TID 0000.0001)  cg2d: iter=    90 ; resid.=  1.61891774898747E-08
(PID.TID 0000.0001)  cg2d: iter=    91 ; resid.=  1.23136948211614E-08
(PID.TID 0000.0001)  cg2d: iter=    92 ; resid.=  9.21058702277204E-09
(PID.TID 0000.0001)  cg2d: iter=    93 ; resid.=  7.56255521941124E-09
(PID.TID 0000.0001)  cg2d: iter=    94 ; resid.=  5.99677716400178E-09
(PID.TID 0000.0001)  cg2d: iter=    95 ; resid.=  5.11887888360889E-09
(PID.TID 0000.0001)  cg2d: iter=    96 ; resid.=  3.85842595271042E-09
(PID.TID 0000.0001)  cg2d: iter=    97 ; resid.=  3.06460073279808E-09
(PID.TID 0000.0001)  cg2d: iter=    98 ; resid.=  2.50886463543997E-09
(PID.TID 0000.0001)  cg2d: iter=    99 ; resid.=  2.18116607093267E-09
(PID.TID 0000.0001)  cg2d: iter=   100 ; resid.=  1.86192582781023E-09
(PID.TID 0000.0001)  cg2d: iter=   101 ; resid.=  1.60995819928779E-09
(PID.TID 0000.0001)  cg2d: iter=   102 ; resid.=  1.29124708966988E-09
(PID.TID 0000.0001)  cg2d: iter=   103 ; resid.=  9.78453199544520E-10
(PID.TID 0000.0001)  cg2d: iter=   104 ; resid.=  7.83536835519919E-10
(PID.TID 0000.0001)  cg2d: iter=   105 ; resid.=  6.06618684020855E-10
(PID.TID 0000.0001)  cg2d: iter=   106 ; resid.=  4.99864325647517E-10
(PID.TID 0000.0001)  cg2d: iter=   107 ; resid.=  3.71037951195480E-10
(PID.TID 0000.0001)  cg2d: iter=   108 ; resid.=  2.65164848220007E-10
(PID.TID 0000.0001)  cg2d: iter=   109 ; resid.=  1.90442866915730E-10
(PID.TID 0000.0001)  cg2d: iter=   110 ; resid.=  1.39611372636868E-10
(PID.TID 0000.0001)  cg2d: iter=   111 ; resid.=  1.08209849118369E-10
(PID.TID 0000.0001)  cg2d: iter=   112 ; resid.=  8.10133076499985E-11
(PID.TID 0000.0001)  cg2d: iter=   113 ; resid.=  5.82218294235657E-11
(PID.TID 0000.0001)  cg2d: iter=   114 ; resid.=  4.56883145474163E-11
(PID.TID 0000.0001)  cg2d: iter=   115 ; resid.=  3.47846236895663E-11
(PID.TID 0000.0001)  cg2d: iter=   116 ; resid.=  2.59236032351172E-11
(PID.TID 0000.0001)  cg2d: iter=   117 ; resid.=  2.19595199511067E-11
(PID.TID 0000.0001)  cg2d: iter=   118 ; resid.=  1.85683782796944E-11
(PID.TID 0000.0001)  cg2d: iter=   119 ; resid.=  1.42881356277540E-11
(PID.TID 0000.0001)  cg2d: iter=   120 ; resid.=  1.07746666675478E-11
(PID.TID 0000.0001)  cg2d: iter=   121 ; resid.=  8.65600295452859E-12
(PID.TID 0000.0001)  cg2d: iter=   122 ; resid.=  6.17002726675460E-12
(PID.TID 0000.0001)  cg2d: iter=   123 ; resid.=  4.38708353959469E-12
(PID.TID 0000.0001)  cg2d: iter=   124 ; resid.=  3.08681323193804E-12
(PID.TID 0000.0001)  cg2d: iter=   125 ; resid.=  2.29064156865233E-12
(PID.TID 0000.0001)  cg2d: iter=   126 ; resid.=  1.64039135015821E-12
(PID.TID 0000.0001)  cg2d: iter=   127 ; resid.=  1.05547671767338E-12
(PID.TID 0000.0001)  cg2d: iter=   128 ; resid.=  7.53042344703534E-13
(PID.TID 0000.0001)  cg2d: iter=   129 ; resid.=  5.34094418967365E-13
(PID.TID 0000.0001)  cg2d: iter=   130 ; resid.=  4.04111419261931E-13
(PID.TID 0000.0001)  cg2d: iter=   131 ; resid.=  2.99412740551476E-13
(PID.TID 0000.0001)  cg2d: iter=   132 ; resid.=  2.26880221716377E-13
(PID.TID 0000.0001)  cg2d: iter=   133 ; resid.=  1.75716058393689E-13
(PID.TID 0000.0001)  cg2d: iter=   134 ; resid.=  1.44911884047090E-13
(PID.TID 0000.0001)  cg2d: iter=   135 ; resid.=  1.15912413993417E-13
(PID.TID 0000.0001)  cg2d: iter=   136 ; resid.=  7.83362034785847E-14
DEBUG_STATS_RL:    cg2d_x (SOLVE_FOR_PRESSURE)  min= -1.77510491978739E+01
DEBUG_STATS_RL:    cg2d_x (SOLVE_FOR_PRESSURE)  max=  1.02526335000453E+01
DEBUG_STATS_RL:    cg2d_x (SOLVE_FOR_PRESSURE) mean= -1.59466815119077E+00
DEBUG_STATS_RL:    cg2d_x (SOLVE_FOR_PRESSURE) S.D.=  6.70985059557390E+00
(PID.TID 0000.0001)      cg2d_init_res =   5.73094137562506E-01
(PID.TID 0000.0001)      cg2d_iters(min,last) =      -1     136
(PID.TID 0000.0001)      cg2d_last_res =   7.83362034785847E-14
(PID.TID 0000.0001) // =======================================================
(PID.TID 0000.0001) // Begin MONITOR dynamic field statistics
(PID.TID 0000.0001) // =======================================================
(PID.TID 0000.0001) %MON time_tsnumber                =                    35
(PID.TID 0000.0001) %MON time_secondsf                =   3.0240000000000E+06
(PID.TID 0000.0001) %MON dynstat_eta_max              =   1.0451206422064E+00
(PID.TID 0000.0001) %MON dynstat_eta_min              =  -1.8094851373980E+00
(PID.TID 0000.0001) %MON dynstat_eta_mean             =  -2.6095372569434E-03
(PID.TID 0000.0001) %MON dynstat_eta_sd               =   6.0947972213290E-01
(PID.TID 0000.0001) %MON dynstat_eta_del2             =   2.2118717181685E-03
(PID.TID 0000.0001) %MON dynstat_uvel_max             =   1.4122713242961E-01
(PID.TID 0000.0001) %MON dynstat_uvel_min             =  -1.7851402279068E-01
(PID.TID 0000.0001) %MON dynstat_uvel_mean            =   2.6618547528744E-03
(PID.TID 0000.0001) %MON dynstat_uvel_sd              =   1.8300389720870E-02
(PID.TID 0000.0001) %MON dynstat_uvel_del2            =   9.2763428547502E-05
(PID.TID 0000.0001) %MON dynstat_vvel_max             =   1.4518924016813E-01
(PID.TID 0000.0001) %MON dynstat_vvel_min             =  -1.1069582051504E-01
(PID.TID 0000.0001) %MON dynstat_vvel_mean            =  -1.9658370082446E-04
(PID.TID 0000.0001) %MON dynstat_vvel_sd              =   1.0581269012540E-02
(PID.TID 0000.0001) %MON dynstat_vvel_del2            =   8.9728704359668E-05
(PID.TID 0000.0001) %MON dynstat_wvel_max             =   1.3762653443449E-04
(PID.TID 0000.0001) %MON dynstat_wvel_min             =  -1.3721887037291E-04
(PID.TID 0000.0001) %MON dynstat_wvel_mean            =   1.9129393684651E-22
(PID.TID 0000.0001) %MON dynstat_wvel_sd              =   1.7547767018253E-05
(PID.TID 0000.0001) %MON dynstat_wvel_del2            =   1.9304069064376E-07
(PID.TID 0000.0001) %MON dynstat_theta_max            =   3.0084856556569E+01
(PID.TID 0000.0001) %MON dynstat_theta_min            =  -2.0044119342404E+00
(PID.TID 0000.0001) %MON dynstat_theta_mean           =   3.6414108303520E+00
(PID.TID 0000.0001) %MON dynstat_theta_sd             =   4.4181479594392E+00
(PID.TID 0000.0001) %MON dynstat_theta_del2           =   4.8126861257065E-03
(PID.TID 0000.0001) %MON dynstat_salt_max             =   3.7474630750533E+01
(PID.TID 0000.0001) %MON dynstat_salt_min             =   2.9840757421229E+01
(PID.TID 0000.0001) %MON dynstat_salt_mean            =   3.4737988477837E+01
(PID.TID 0000.0001) %MON dynstat_salt_sd              =   2.9628968485246E-01
(PID.TID 0000.0001) %MON dynstat_salt_del2            =   9.9152260485366E-04
(PID.TID 0000.0001) %MON dynstat_sst_max              =   3.0084856556569E+01
(PID.TID 0000.0001) %MON dynstat_sst_min              =  -2.0044119342404E+00
(PID.TID 0000.0001) %MON dynstat_sst_mean             =   1.8799405858164E+01
(PID.TID 0000.0001) %MON dynstat_sst_sd               =   9.0323432841737E+00
(PID.TID 0000.0001) %MON dynstat_sst_del2             =   2.6864464999099E-02
(PID.TID 0000.0001) %MON dynstat_sss_max              =   3.7451393898934E+01
(PID.TID 0000.0001) %MON dynstat_sss_min              =   2.9840757421229E+01
(PID.TID 0000.0001) %MON dynstat_sss_mean             =   3.4864785134174E+01
(PID.TID 0000.0001) %MON dynstat_sss_sd               =   9.7614400515122E-01
(PID.TID 0000.0001) %MON dynstat_sss_del2             =   7.8717687384213E-03
(PID.TID 0000.0001) %MON forcing_qnet_max             =   3.7855096944173E+02
(PID.TID 0000.0001) %MON forcing_qnet_min             =  -1.7546868082682E+02
(PID.TID 0000.0001) %MON forcing_qnet_mean            =  -1.4899251820380E+01
(PID.TID 0000.0001) %MON forcing_qnet_sd              =   9.0096938655160E+01
(PID.TID 0000.0001) %MON forcing_qnet_del2            =   9.6402608526261E-01
(PID.TID 0000.0001) %MON forcing_qsw_max              =   0.0000000000000E+00
(PID.TID 0000.0001) %MON forcing_qsw_min              =   0.0000000000000E+00
(PID.TID 0000.0001) %MON forcing_qsw_mean             =   0.0000000000000E+00
(PID.TID 0000.0001) %MON forcing_qsw_sd               =   0.0000000000000E+00
(PID.TID 0000.0001) %MON forcing_qsw_del2             =   0.0000000000000E+00
(PID.TID 0000.0001) %MON forcing_empmr_max            =   7.6206534060930E-05
(PID.TID 0000.0001) %MON forcing_empmr_min            =  -7.7669197177480E-05
(PID.TID 0000.0001) %MON forcing_empmr_mean           =   9.3590261004984E-07
(PID.TID 0000.0001) %MON forcing_empmr_sd             =   2.8090956758980E-05
(PID.TID 0000.0001) %MON forcing_empmr_del2           =   3.5396239938418E-07
(PID.TID 0000.0001) %MON forcing_fu_max               =   2.8937678635120E-01
(PID.TID 0000.0001) %MON forcing_fu_min               =  -1.9747318923473E-01
(PID.TID 0000.0001) %MON forcing_fu_mean              =   1.7033439246477E-02
(PID.TID 0000.0001) %MON forcing_fu_sd                =   9.0494937497899E-02
(PID.TID 0000.0001) %MON forcing_fu_del2              =   6.7697458152225E-04
(PID.TID 0000.0001) %MON forcing_fv_max               =   1.8480933904648E-01
(PID.TID 0000.0001) %MON forcing_fv_min               =  -1.6478836735090E-01
(PID.TID 0000.0001) %MON forcing_fv_mean              =  -6.4988549670934E-03
(PID.TID 0000.0001) %MON forcing_fv_sd                =   4.4598978531363E-02
(PID.TID 0000.0001) %MON forcing_fv_del2              =   4.7620990539496E-04
(PID.TID 0000.0001) %MON trAdv_CFL_u_max              =   4.9700966772967E-02
(PID.TID 0000.0001) %MON trAdv_CFL_v_max              =   2.7522425808449E-02
(PID.TID 0000.0001) %MON trAdv_CFL_w_max              =   7.5241133839892E-02
(PID.TID 0000.0001) %MON advcfl_uvel_max              =   4.5287719336348E-02
(PID.TID 0000.0001) %MON advcfl_vvel_max              =   2.8207940809208E-02
(PID.TID 0000.0001) %MON advcfl_wvel_max              =   6.1486843288430E-02
(PID.TID 0000.0001) %MON advcfl_W_hf_max              =   7.2466636732792E-02
(PID.TID 0000.0001) %MON pe_b_mean                    =   4.7534363540332E-04
(PID.TID 0000.0001) %MON ke_max                       =   1.7986402728928E-02
(PID.TID 0000.0001) %MON ke_mean                      =   2.0565367406425E-04
(PID.TID 0000.0001) %MON ke_vol                       =   1.3226782436723E+18
(PID.TID 0000.0001) %MON vort_r_min                   =  -3.8187894740130E-07
(PID.TID 0000.0001) %MON vort_r_max                   =   5.0747884020698E-07
(PID.TID 0000.0001) %MON vort_a_mean                  =  -2.5274807516143E-05
(PID.TID 0000.0001) %MON vort_a_sd                    =   7.3604685729292E-05
(PID.TID 0000.0001) %MON vort_p_mean                  =  -3.1845655949022E-05
(PID.TID 0000.0001) %MON vort_p_sd                    =   1.3162651763579E-04
(PID.TID 0000.0001) %MON surfExpan_theta_mean         =   6.8339899364991E-07
(PID.TID 0000.0001) %MON surfExpan_salt_mean          =  -2.4796581923715E-07
(PID.TID 0000.0001) // =======================================================
(PID.TID 0000.0001) // End MONITOR dynamic field statistics
(PID.TID 0000.0001) // =======================================================
 EXTERNAL_FIELDS_LOAD,        35 : iP,iLd,i0,i1=    1    2    1    2 ; Wght=  0.3333333333  0.6666666667
 EXTERNAL_FIELDS_LOAD: (fu0,1),fu,fv= -3.5633E-02 -1.4435E-02 -2.1501E-02 -3.0843E-02
 EXTERNAL_FIELDS_LOAD: SST,SSS,Q,E-P= -3.5096E-02  3.4519E+01  2.4891E+02  9.4637E-06
DEBUG_STATS_RL:          Uvel (THERMODYNAMICS)  min= -1.78514022790685E-01
DEBUG_STATS_RL:          Uvel (THERMODYNAMICS)  max=  1.41227132429611E-01
DEBUG_STATS_RL:          Uvel (THERMODYNAMICS) mean=  4.12115925612810E-03
DEBUG_STATS_RL:          Uvel (THERMODYNAMICS) S.D.=  2.53920438860628E-02
DEBUG_STATS_RL:          Vvel (THERMODYNAMICS)  min= -1.10695820515035E-01
DEBUG_STATS_RL:          Vvel (THERMODYNAMICS)  max=  1.45189240168130E-01
DEBUG_STATS_RL:          Vvel (THERMODYNAMICS) mean= -3.26710757639973E-04
DEBUG_STATS_RL:          Vvel (THERMODYNAMICS) S.D.=  1.49649899056927E-02
DEBUG_STATS_RL:          Wvel (THERMODYNAMICS)  min= -1.37218870372914E-04
DEBUG_STATS_RL:          Wvel (THERMODYNAMICS)  max=  1.37626534434488E-04
DEBUG_STATS_RL:          Wvel (THERMODYNAMICS) mean= -3.34907850245358E-07
DEBUG_STATS_RL:          Wvel (THERMODYNAMICS) S.D.=  1.57498488892005E-05
DEBUG_STATS_RL:         Theta (THERMODYNAMICS)  min= -2.00387468382727E+00
DEBUG_STATS_RL:         Theta (THERMODYNAMICS)  max=  3.01080814859337E+01
DEBUG_STATS_RL:         Theta (THERMODYNAMICS) mean=  3.23128445392752E+00
DEBUG_STATS_RL:         Theta (THERMODYNAMICS) S.D.=  5.86060541514911E+00
DEBUG_STATS_RL:          Salt (THERMODYNAMICS)  min=  2.00000000000000E-02
DEBUG_STATS_RL:          Salt (THERMODYNAMICS)  max=  3.74752170337984E+01
DEBUG_STATS_RL:          Salt (THERMODYNAMICS) mean=  1.88648379292537E+01
DEBUG_STATS_RL:          Salt (THERMODYNAMICS) S.D.=  1.73003560885525E+01
DEBUG_STATS_RL:         GtNm1 (THERMODYNAMICS)  min= -3.09333131010174E-06
DEBUG_STATS_RL:         GtNm1 (THERMODYNAMICS)  max=  2.65776896280991E-06
DEBUG_STATS_RL:         GtNm1 (THERMODYNAMICS) mean=  1.09206059856945E-08
DEBUG_STATS_RL:         GtNm1 (THERMODYNAMICS) S.D.=  2.11876109302372E-07
DEBUG_STATS_RL:         GsNm1 (THERMODYNAMICS)  min= -5.47484728157128E-07
DEBUG_STATS_RL:         GsNm1 (THERMODYNAMICS)  max=  3.67713572458330E-07
DEBUG_STATS_RL:         GsNm1 (THERMODYNAMICS) mean= -2.08505690386405E-10
DEBUG_STATS_RL:         GsNm1 (THERMODYNAMICS) S.D.=  1.92019518552855E-08
DEBUG_STATS_RL:                EtaN (DYNAMICS)  min= -1.80948513739797E+00
DEBUG_STATS_RL:                EtaN (DYNAMICS)  max=  1.04512064220640E+00
DEBUG_STATS_RL:                EtaN (DYNAMICS) mean= -1.62555367093862E-01
DEBUG_STATS_RL:                EtaN (DYNAMICS) S.D.=  6.83980692719054E-01
DEBUG_STATS_RL:                Uvel (DYNAMICS)  min= -1.78514022790685E-01
DEBUG_STATS_RL:                Uvel (DYNAMICS)  max=  1.41227132429611E-01
DEBUG_STATS_RL:                Uvel (DYNAMICS) mean=  4.12115925612810E-03
DEBUG_STATS_RL:                Uvel (DYNAMICS) S.D.=  2.53920438860628E-02
DEBUG_STATS_RL:                Vvel (DYNAMICS)  min= -1.10695820515035E-01
DEBUG_STATS_RL:                Vvel (DYNAMICS)  max=  1.45189240168130E-01
DEBUG_STATS_RL:                Vvel (DYNAMICS) mean= -3.26710757639973E-04
DEBUG_STATS_RL:                Vvel (DYNAMICS) S.D.=  1.49649899056927E-02
DEBUG_STATS_RL:                Wvel (DYNAMICS)  min= -1.37218870372914E-04
DEBUG_STATS_RL:                Wvel (DYNAMICS)  max=  1.37626534434488E-04
DEBUG_STATS_RL:                Wvel (DYNAMICS) mean= -3.34907850245358E-07
DEBUG_STATS_RL:                Wvel (DYNAMICS) S.D.=  1.57498488892005E-05
DEBUG_STATS_RL:               Theta (DYNAMICS)  min= -2.00387468382727E+00
DEBUG_STATS_RL:               Theta (DYNAMICS)  max=  3.01080814859337E+01
DEBUG_STATS_RL:               Theta (DYNAMICS) mean=  3.23128445392752E+00
DEBUG_STATS_RL:               Theta (DYNAMICS) S.D.=  5.86060541514911E+00
DEBUG_STATS_RL:                Salt (DYNAMICS)  min=  2.00000000000000E-02
DEBUG_STATS_RL:                Salt (DYNAMICS)  max=  3.74752170337984E+01
DEBUG_STATS_RL:                Salt (DYNAMICS) mean=  1.88648379292537E+01
DEBUG_STATS_RL:                Salt (DYNAMICS) S.D.=  1.73003560885525E+01
DEBUG_STATS_RL:                  Gu (DYNAMICS)  min= -1.77614505728133E-01
DEBUG_STATS_RL:                  Gu (DYNAMICS)  max=  1.26124199657484E-01
DEBUG_STATS_RL:                  Gu (DYNAMICS) mean=  3.94664886491821E-03
DEBUG_STATS_RL:                  Gu (DYNAMICS) S.D.=  2.61204871863780E-02
DEBUG_STATS_RL:                  Gv (DYNAMICS)  min= -1.07626337576871E-01
DEBUG_STATS_RL:                  Gv (DYNAMICS)  max=  1.57565550797017E-01
DEBUG_STATS_RL:                  Gv (DYNAMICS) mean=  2.05887282614220E-03
DEBUG_STATS_RL:                  Gv (DYNAMICS) S.D.=  1.50757825271969E-02
DEBUG_STATS_RL:               GuNm1 (DYNAMICS)  min= -8.72833411430378E-06
DEBUG_STATS_RL:               GuNm1 (DYNAMICS)  max=  8.06426217576764E-06
DEBUG_STATS_RL:               GuNm1 (DYNAMICS) mean= -2.14052976489449E-08
DEBUG_STATS_RL:               GuNm1 (DYNAMICS) S.D.=  1.18970535611618E-06
DEBUG_STATS_RL:               GvNm1 (DYNAMICS)  min= -1.08290553670134E-05
DEBUG_STATS_RL:               GvNm1 (DYNAMICS)  max=  1.64566063949520E-05
DEBUG_STATS_RL:               GvNm1 (DYNAMICS) mean=  7.54042268356186E-07
DEBUG_STATS_RL:               GvNm1 (DYNAMICS) S.D.=  2.63836837702744E-06
DEBUG_STATS_RL:               GtNm1 (DYNAMICS)  min= -3.09333131010174E-06
DEBUG_STATS_RL:               GtNm1 (DYNAMICS)  max=  2.65776896280991E-06
DEBUG_STATS_RL:               GtNm1 (DYNAMICS) mean=  1.09206059856945E-08
DEBUG_STATS_RL:               GtNm1 (DYNAMICS) S.D.=  2.11876109302372E-07
DEBUG_STATS_RL:               GsNm1 (DYNAMICS)  min= -5.47484728157128E-07
DEBUG_STATS_RL:               GsNm1 (DYNAMICS)  max=  3.67713572458330E-07
DEBUG_STATS_RL:               GsNm1 (DYNAMICS) mean= -2.08505690386405E-10
DEBUG_STATS_RL:               GsNm1 (DYNAMICS) S.D.=  1.92019518552855E-08
DEBUG_STATS_RL:    cg2d_b (SOLVE_FOR_PRESSURE)  min= -1.99193408334855E+04
DEBUG_STATS_RL:    cg2d_b (SOLVE_FOR_PRESSURE)  max=  1.80739575648255E+04
DEBUG_STATS_RL:    cg2d_b (SOLVE_FOR_PRESSURE) mean=  2.57598577498899E+00
DEBUG_STATS_RL:    cg2d_b (SOLVE_FOR_PRESSURE) S.D.=  3.83824523805099E+03
 cg2d: Sum(rhs),rhsMax =   2.99377731369211E-01  1.30835563849863E+00
(PID.TID 0000.0001)  cg2d: iter=     1 ; resid.=  3.21567262864335E-01
(PID.TID 0000.0001)  cg2d: iter=     2 ; resid.=  2.86361481775039E-01
(PID.TID 0000.0001)  cg2d: iter=     3 ; resid.=  2.80565445322466E-01
(PID.TID 0000.0001)  cg2d: iter=     4 ; resid.=  2.60455736688870E-01
(PID.TID 0000.0001)  cg2d: iter=     5 ; resid.=  2.53037670361400E-01
(PID.TID 0000.0001)  cg2d: iter=     6 ; resid.=  2.11642415666119E-01
(PID.TID 0000.0001)  cg2d: iter=     7 ; resid.=  1.75384375287340E-01
(PID.TID 0000.0001)  cg2d: iter=     8 ; resid.=  1.30351478178000E-01
(PID.TID 0000.0001)  cg2d: iter=     9 ; resid.=  9.90563409145483E-02
(PID.TID 0000.0001)  cg2d: iter=    10 ; resid.=  8.18217607855486E-02
(PID.TID 0000.0001)  cg2d: iter=    11 ; resid.=  7.28012515955887E-02
(PID.TID 0000.0001)  cg2d: iter=    12 ; resid.=  6.19454743823809E-02
(PID.TID 0000.0001)  cg2d: iter=    13 ; resid.=  4.93999513594147E-02
(PID.TID 0000.0001)  cg2d: iter=    14 ; resid.=  4.23819731837770E-02
(PID.TID 0000.0001)  cg2d: iter=    15 ; resid.=  3.29326972097467E-02
(PID.TID 0000.0001)  cg2d: iter=    16 ; resid.=  2.97074760111689E-02
(PID.TID 0000.0001)  cg2d: iter=    17 ; resid.=  2.59192121172620E-02
(PID.TID 0000.0001)  cg2d: iter=    18 ; resid.=  2.29451738615110E-02
(PID.TID 0000.0001)  cg2d: iter=    19 ; resid.=  1.71904349780310E-02
(PID.TID 0000.0001)  cg2d: iter=    20 ; resid.=  1.37304629455101E-02
(PID.TID 0000.0001)  cg2d: iter=    21 ; resid.=  1.13124161425177E-02
(PID.TID 0000.0001)  cg2d: iter=    22 ; resid.=  9.70022830152353E-03
(PID.TID 0000.0001)  cg2d: iter=    23 ; resid.=  8.56558797074720E-03
(PID.TID 0000.0001)  cg2d: iter=    24 ; resid.=  7.96477589041516E-03
(PID.TID 0000.0001)  cg2d: iter=    25 ; resid.=  5.98120977716302E-03
(PID.TID 0000.0001)  cg2d: iter=    26 ; resid.=  4.83669364203772E-03
(PID.TID 0000.0001)  cg2d: iter=    27 ; resid.=  3.71848133200890E-03
(PID.TID 0000.0001)  cg2d: iter=    28 ; resid.=  2.92839195261607E-03
(PID.TID 0000.0001)  cg2d: iter=    29 ; resid.=  2.23705177728462E-03
(PID.TID 0000.0001)  cg2d: iter=    30 ; resid.=  1.89874229539192E-03
(PID.TID 0000.0001)  cg2d: iter=    31 ; resid.=  1.60508958347407E-03
(PID.TID 0000.0001)  cg2d: iter=    32 ; resid.=  1.34911044190047E-03
(PID.TID 0000.0001)  cg2d: iter=    33 ; resid.=  1.20004308679630E-03
(PID.TID 0000.0001)  cg2d: iter=    34 ; resid.=  1.03363063802770E-03
(PID.TID 0000.0001)  cg2d: iter=    35 ; resid.=  8.71179277451727E-04
(PID.TID 0000.0001)  cg2d: iter=    36 ; resid.=  7.45115508762088E-04
(PID.TID 0000.0001)  cg2d: iter=    37 ; resid.=  6.40899873384341E-04
(PID.TID 0000.0001)  cg2d: iter=    38 ; resid.=  5.74581254868330E-04
(PID.TID 0000.0001)  cg2d: iter=    39 ; resid.=  4.90650783165281E-04
(PID.TID 0000.0001)  cg2d: iter=    40 ; resid.=  3.98760264769110E-04
(PID.TID 0000.0001)  cg2d: iter=    41 ; resid.=  3.37238730170953E-04
(PID.TID 0000.0001)  cg2d: iter=    42 ; resid.=  2.94914516939403E-04
(PID.TID 0000.0001)  cg2d: iter=    43 ; resid.=  2.44261313928224E-04
(PID.TID 0000.0001)  cg2d: iter=    44 ; resid.=  1.96834504471124E-04
(PID.TID 0000.0001)  cg2d: iter=    45 ; resid.=  1.47410135930700E-04
(PID.TID 0000.0001)  cg2d: iter=    46 ; resid.=  1.20690410226878E-04
(PID.TID 0000.0001)  cg2d: iter=    47 ; resid.=  1.03574573678179E-04
(PID.TID 0000.0001)  cg2d: iter=    48 ; resid.=  8.13635450461156E-05
(PID.TID 0000.0001)  cg2d: iter=    49 ; resid.=  6.80314844331845E-05
(PID.TID 0000.0001)  cg2d: iter=    50 ; resid.=  6.34199277820959E-05
(PID.TID 0000.0001)  cg2d: iter=    51 ; resid.=  5.67912878593937E-05
(PID.TID 0000.0001)  cg2d: iter=    52 ; resid.=  4.69668078436971E-05
(PID.TID 0000.0001)  cg2d: iter=    53 ; resid.=  4.00223951943597E-05
(PID.TID 0000.0001)  cg2d: iter=    54 ; resid.=  3.13446403018907E-05
(PID.TID 0000.0001)  cg2d: iter=    55 ; resid.=  2.51905618611054E-05
(PID.TID 0000.0001)  cg2d: iter=    56 ; resid.=  2.10291070055581E-05
(PID.TID 0000.0001)  cg2d: iter=    57 ; resid.=  1.72316948486504E-05
(PID.TID 0000.0001)  cg2d: iter=    58 ; resid.=  1.41019405618965E-05
(PID.TID 0000.0001)  cg2d: iter=    59 ; resid.=  1.17602828872755E-05
(PID.TID 0000.0001)  cg2d: iter=    60 ; resid.=  9.36011336422875E-06
(PID.TID 0000.0001)  cg2d: iter=    61 ; resid.=  8.01995064166695E-06
(PID.TID 0000.0001)  cg2d: iter=    62 ; resid.=  6.85496292312171E-06
(PID.TID 0000.0001)  cg2d: iter=    63 ; resid.=  5.62527786979202E-06
(PID.TID 0000.0001)  cg2d: iter=    64 ; resid.=  4.51751855898881E-06
(PID.TID 0000.0001)  cg2d: iter=    65 ; resid.=  3.48334203291103E-06
(PID.TID 0000.0001)  cg2d: iter=    66 ; resid.=  3.06508312232116E-06
(PID.TID 0000.0001)  cg2d: iter=    67 ; resid.=  2.59129009289695E-06
(PID.TID 0000.0001)  cg2d: iter=    68 ; resid.=  2.25234676929957E-06
(PID.TID 0000.0001)  cg2d: iter=    69 ; resid.=  1.78111662126339E-06
(PID.TID 0000.0001)  cg2d: iter=    70 ; resid.=  1.40859052943244E-06
(PID.TID 0000.0001)  cg2d: iter=    71 ; resid.=  1.18413767586757E-06
(PID.TID 0000.0001)  cg2d: iter=    72 ; resid.=  1.07235404222586E-06
(PID.TID 0000.0001)  cg2d: iter=    73 ; resid.=  9.61691987481864E-07
(PID.TID 0000.0001)  cg2d: iter=    74 ; resid.=  8.10941725346636E-07
(PID.TID 0000.0001)  cg2d: iter=    75 ; resid.=  6.49535689911148E-07
(PID.TID 0000.0001)  cg2d: iter=    76 ; resid.=  5.37512804909824E-07
(PID.TID 0000.0001)  cg2d: iter=    77 ; resid.=  4.11197738512530E-07
(PID.TID 0000.0001)  cg2d: iter=    78 ; resid.=  3.14374416438590E-07
(PID.TID 0000.0001)  cg2d: iter=    79 ; resid.=  2.44872694985026E-07
(PID.TID 0000.0001)  cg2d: iter=    80 ; resid.=  1.73140097419834E-07
(PID.TID 0000.0001)  cg2d: iter=    81 ; resid.=  1.28769761155105E-07
(PID.TID 0000.0001)  cg2d: iter=    82 ; resid.=  1.01143367531134E-07
(PID.TID 0000.0001)  cg2d: iter=    83 ; resid.=  7.37254787434825E-08
(PID.TID 0000.0001)  cg2d: iter=    84 ; resid.=  5.38383025815563E-08
(PID.TID 0000.0001)  cg2d: iter=    85 ; resid.=  3.98616291477311E-08
(PID.TID 0000.0001)  cg2d: iter=    86 ; resid.=  3.10411150194311E-08
(PID.TID 0000.0001)  cg2d: iter=    87 ; resid.=  2.66342887579994E-08
(PID.TID 0000.0001)  cg2d: iter=    88 ; resid.=  2.20259068100921E-08
(PID.TID 0000.0001)  cg2d: iter=    89 ; resid.=  1.85319421630648E-08
(PID.TID 0000.0001)  cg2d: iter=    90 ; resid.=  1.51089702827209E-08
(PID.TID 0000.0001)  cg2d: iter=    91 ; resid.=  1.11200758153225E-08
(PID.TID 0000.0001)  cg2d: iter=    92 ; resid.=  8.25966778964834E-09
(PID.TID 0000.0001)  cg2d: iter=    93 ; resid.=  6.70664009005898E-09
(PID.TID 0000.0001)  cg2d: iter=    94 ; resid.=  5.35411772923228E-09
(PID.TID 0000.0001)  cg2d: iter=    95 ; resid.=  4.65529523219660E-09
(PID.TID 0000.0001)  cg2d: iter=    96 ; resid.=  3.55937923306033E-09
(PID.TID 0000.0001)  cg2d: iter=    97 ; resid.=  2.79452370572535E-09
(PID.TID 0000.0001)  cg2d: iter=    98 ; resid.=  2.26737842500350E-09
(PID.TID 0000.0001)  cg2d: iter=    99 ; resid.=  1.97635089361980E-09
(PID.TID 0000.0001)  cg2d: iter=   100 ; resid.=  1.67813956963287E-09
(PID.TID 0000.0001)  cg2d: iter=   101 ; resid.=  1.42016805675067E-09
(PID.TID 0000.0001)  cg2d: iter=   102 ; resid.=  1.12918785240303E-09
(PID.TID 0000.0001)  cg2d: iter=   103 ; resid.=  8.86106242278924E-10
(PID.TID 0000.0001)  cg2d: iter=   104 ; resid.=  7.25682016299636E-10
(PID.TID 0000.0001)  cg2d: iter=   105 ; resid.=  5.86833436147996E-10
(PID.TID 0000.0001)  cg2d: iter=   106 ; resid.=  5.10780231865607E-10
(PID.TID 0000.0001)  cg2d: iter=   107 ; resid.=  3.87291832010807E-10
(PID.TID 0000.0001)  cg2d: iter=   108 ; resid.=  2.85613209364958E-10
(PID.TID 0000.0001)  cg2d: iter=   109 ; resid.=  2.05638833062340E-10
(PID.TID 0000.0001)  cg2d: iter=   110 ; resid.=  1.53067170213254E-10
(PID.TID 0000.0001)  cg2d: iter=   111 ; resid.=  1.18006182521857E-10
(PID.TID 0000.0001)  cg2d: iter=   112 ; resid.=  8.33990425768310E-11
(PID.TID 0000.0001)  cg2d: iter=   113 ; resid.=  5.87688600884402E-11
(PID.TID 0000.0001)  cg2d: iter=   114 ; resid.=  4.54277294128068E-11
(PID.TID 0000.0001)  cg2d: iter=   115 ; resid.=  3.37480737671552E-11
(PID.TID 0000.0001)  cg2d: iter=   116 ; resid.=  2.53908858094802E-11
(PID.TID 0000.0001)  cg2d: iter=   117 ; resid.=  2.19625244740806E-11
(PID.TID 0000.0001)  cg2d: iter=   118 ; resid.=  1.87565759311416E-11
(PID.TID 0000.0001)  cg2d: iter=   119 ; resid.=  1.43883237588116E-11
(PID.TID 0000.0001)  cg2d: iter=   120 ; resid.=  1.07480486770356E-11
(PID.TID 0000.0001)  cg2d: iter=   121 ; resid.=  8.75314509144352E-12
(PID.TID 0000.0001)  cg2d: iter=   122 ; resid.=  6.31076547341568E-12
(PID.TID 0000.0001)  cg2d: iter=   123 ; resid.=  4.43076144530356E-12
(PID.TID 0000.0001)  cg2d: iter=   124 ; resid.=  3.03096706285632E-12
(PID.TID 0000.0001)  cg2d: iter=   125 ; resid.=  2.19636848731394E-12
(PID.TID 0000.0001)  cg2d: iter=   126 ; resid.=  1.55137243527957E-12
(PID.TID 0000.0001)  cg2d: iter=   127 ; resid.=  9.90480085975073E-13
(PID.TID 0000.0001)  cg2d: iter=   128 ; resid.=  6.95611502925872E-13
(PID.TID 0000.0001)  cg2d: iter=   129 ; resid.=  4.94771714774128E-13
(PID.TID 0000.0001)  cg2d: iter=   130 ; resid.=  3.76337092696872E-13
(PID.TID 0000.0001)  cg2d: iter=   131 ; resid.=  2.80944557845460E-13
(PID.TID 0000.0001)  cg2d: iter=   132 ; resid.=  2.11919494743612E-13
(PID.TID 0000.0001)  cg2d: iter=   133 ; resid.=  1.63910017651709E-13
(PID.TID 0000.0001)  cg2d: iter=   134 ; resid.=  1.30413377597817E-13
(PID.TID 0000.0001)  cg2d: iter=   135 ; resid.=  1.00546340680226E-13
(PID.TID 0000.0001)  cg2d: iter=   136 ; resid.=  6.46728154620809E-14
DEBUG_STATS_RL:    cg2d_x (SOLVE_FOR_PRESSURE)  min= -1.77797402296629E+01
DEBUG_STATS_RL:    cg2d_x (SOLVE_FOR_PRESSURE)  max=  1.01595920505823E+01
DEBUG_STATS_RL:    cg2d_x (SOLVE_FOR_PRESSURE) mean= -1.63130134102736E+00
DEBUG_STATS_RL:    cg2d_x (SOLVE_FOR_PRESSURE) S.D.=  6.88582976752768E+00
(PID.TID 0000.0001)      cg2d_init_res =   5.34596553976346E-01
(PID.TID 0000.0001)      cg2d_iters(min,last) =      -1     136
(PID.TID 0000.0001)      cg2d_last_res =   6.46728154620809E-14
(PID.TID 0000.0001) // =======================================================
(PID.TID 0000.0001) // Begin MONITOR dynamic field statistics
(PID.TID 0000.0001) // =======================================================
(PID.TID 0000.0001) %MON time_tsnumber                =                    36
(PID.TID 0000.0001) %MON time_secondsf                =   3.1104000000000E+06
(PID.TID 0000.0001) %MON dynstat_eta_max              =   1.0356362946567E+00
(PID.TID 0000.0001) %MON dynstat_eta_min              =  -1.8124098093438E+00
(PID.TID 0000.0001) %MON dynstat_eta_mean             =  -2.6877217445105E-03
(PID.TID 0000.0001) %MON dynstat_eta_sd               =   6.3083408428015E-01
(PID.TID 0000.0001) %MON dynstat_eta_del2             =   2.2185843560946E-03
(PID.TID 0000.0001) %MON dynstat_uvel_max             =   1.3160869436960E-01
(PID.TID 0000.0001) %MON dynstat_uvel_min             =  -1.7594809865953E-01
(PID.TID 0000.0001) %MON dynstat_uvel_mean            =   2.5023128675232E-03
(PID.TID 0000.0001) %MON dynstat_uvel_sd              =   1.8360802355562E-02
(PID.TID 0000.0001) %MON dynstat_uvel_del2            =   9.3836403939817E-05
(PID.TID 0000.0001) %MON dynstat_vvel_max             =   1.5298827227034E-01
(PID.TID 0000.0001) %MON dynstat_vvel_min             =  -1.1212128187494E-01
(PID.TID 0000.0001) %MON dynstat_vvel_mean            =  -1.8520127760277E-04
(PID.TID 0000.0001) %MON dynstat_vvel_sd              =   1.0658825215950E-02
(PID.TID 0000.0001) %MON dynstat_vvel_del2            =   9.0284933995675E-05
(PID.TID 0000.0001) %MON dynstat_wvel_max             =   1.2067528875258E-04
(PID.TID 0000.0001) %MON dynstat_wvel_min             =  -1.2086151314897E-04
(PID.TID 0000.0001) %MON dynstat_wvel_mean            =   2.0060632753712E-22
(PID.TID 0000.0001) %MON dynstat_wvel_sd              =   1.7497962856811E-05
(PID.TID 0000.0001) %MON dynstat_wvel_del2            =   1.8949746505514E-07
(PID.TID 0000.0001) %MON dynstat_theta_max            =   3.0108081485934E+01
(PID.TID 0000.0001) %MON dynstat_theta_min            =  -2.0038746838273E+00
(PID.TID 0000.0001) %MON dynstat_theta_mean           =   3.6414775877306E+00
(PID.TID 0000.0001) %MON dynstat_theta_sd             =   4.4183043577675E+00
(PID.TID 0000.0001) %MON dynstat_theta_del2           =   4.8005616689810E-03
(PID.TID 0000.0001) %MON dynstat_salt_max             =   3.7475217033798E+01
(PID.TID 0000.0001) %MON dynstat_salt_min             =   2.9838942939990E+01
(PID.TID 0000.0001) %MON dynstat_salt_mean            =   3.4737994901203E+01
(PID.TID 0000.0001) %MON dynstat_salt_sd              =   2.9630973820339E-01
(PID.TID 0000.0001) %MON dynstat_salt_del2            =   9.9037935174890E-04
(PID.TID 0000.0001) %MON dynstat_sst_max              =   3.0108081485934E+01
(PID.TID 0000.0001) %MON dynstat_sst_min              =  -2.0038746838273E+00
(PID.TID 0000.0001) %MON dynstat_sst_mean             =   1.8809758842214E+01
(PID.TID 0000.0001) %MON dynstat_sst_sd               =   9.0282004292331E+00
(PID.TID 0000.0001) %MON dynstat_sst_del2             =   2.6899891621391E-02
(PID.TID 0000.0001) %MON dynstat_sss_max              =   3.7451259670409E+01
(PID.TID 0000.0001) %MON dynstat_sss_min              =   2.9838942939990E+01
(PID.TID 0000.0001) %MON dynstat_sss_mean             =   3.4864614052179E+01
(PID.TID 0000.0001) %MON dynstat_sss_sd               =   9.7627692043190E-01
(PID.TID 0000.0001) %MON dynstat_sss_del2             =   7.8714243793334E-03
(PID.TID 0000.0001) %MON forcing_qnet_max             =   3.7523188273112E+02
(PID.TID 0000.0001) %MON forcing_qnet_min             =  -1.7522916158040E+02
(PID.TID 0000.0001) %MON forcing_qnet_mean            =  -1.4814342652977E+01
(PID.TID 0000.0001) %MON forcing_qnet_sd              =   8.9107408305075E+01
(PID.TID 0000.0001) %MON forcing_qnet_del2            =   9.6203928083516E-01
(PID.TID 0000.0001) %MON forcing_qsw_max              =   0.0000000000000E+00
(PID.TID 0000.0001) %MON forcing_qsw_min              =   0.0000000000000E+00
(PID.TID 0000.0001) %MON forcing_qsw_mean             =   0.0000000000000E+00
(PID.TID 0000.0001) %MON forcing_qsw_sd               =   0.0000000000000E+00
(PID.TID 0000.0001) %MON forcing_qsw_del2             =   0.0000000000000E+00
(PID.TID 0000.0001) %MON forcing_empmr_max            =   7.5892444328929E-05
(PID.TID 0000.0001) %MON forcing_empmr_min            =  -7.7748841439037E-05
(PID.TID 0000.0001) %MON forcing_empmr_mean           =   9.3658500730980E-07
(PID.TID 0000.0001) %MON forcing_empmr_sd             =   2.8071739080641E-05
(PID.TID 0000.0001) %MON forcing_empmr_del2           =   3.5384713842938E-07
(PID.TID 0000.0001) %MON forcing_fu_max               =   2.9076394438744E-01
(PID.TID 0000.0001) %MON forcing_fu_min               =  -1.9913311302662E-01
(PID.TID 0000.0001) %MON forcing_fu_mean              =   1.7087739461946E-02
(PID.TID 0000.0001) %MON forcing_fu_sd                =   9.0639654675392E-02
(PID.TID 0000.0001) %MON forcing_fu_del2              =   6.8057641695719E-04
(PID.TID 0000.0001) %MON forcing_fv_max               =   1.8370781838894E-01
(PID.TID 0000.0001) %MON forcing_fv_min               =  -1.6796026627223E-01
(PID.TID 0000.0001) %MON forcing_fv_mean              =  -6.5641158738086E-03
(PID.TID 0000.0001) %MON forcing_fv_sd                =   4.4559893516707E-02
(PID.TID 0000.0001) %MON forcing_fv_del2              =   4.8000739041033E-04
(PID.TID 0000.0001) %MON trAdv_CFL_u_max              =   4.5296917596049E-02
(PID.TID 0000.0001) %MON trAdv_CFL_v_max              =   2.9551727702812E-02
(PID.TID 0000.0001) %MON trAdv_CFL_w_max              =   7.2466636732792E-02
(PID.TID 0000.0001) %MON advcfl_uvel_max              =   4.3149907441068E-02
(PID.TID 0000.0001) %MON advcfl_vvel_max              =   2.9723167665231E-02
(PID.TID 0000.0001) %MON advcfl_wvel_max              =   5.8086191448385E-02
(PID.TID 0000.0001) %MON advcfl_W_hf_max              =   6.8458725635596E-02
(PID.TID 0000.0001) %MON pe_b_mean                    =   5.0923633582008E-04
(PID.TID 0000.0001) %MON ke_max                       =   1.7338164272983E-02
(PID.TID 0000.0001) %MON ke_mean                      =   2.0702317487021E-04
(PID.TID 0000.0001) %MON ke_vol                       =   1.3226782436723E+18
(PID.TID 0000.0001) %MON vort_r_min                   =  -3.9825791099607E-07
(PID.TID 0000.0001) %MON vort_r_max                   =   4.9263709611505E-07
(PID.TID 0000.0001) %MON vort_a_mean                  =  -2.5274807325900E-05
(PID.TID 0000.0001) %MON vort_a_sd                    =   7.3604671746792E-05
(PID.TID 0000.0001) %MON vort_p_mean                  =  -3.1845655709319E-05
(PID.TID 0000.0001) %MON vort_p_sd                    =   1.3162611854295E-04
(PID.TID 0000.0001) %MON surfExpan_theta_mean         =   6.9536705673388E-07
(PID.TID 0000.0001) %MON surfExpan_salt_mean          =  -2.2900894997581E-07
(PID.TID 0000.0001) // =======================================================
(PID.TID 0000.0001) // End MONITOR dynamic field statistics
(PID.TID 0000.0001) // =======================================================
 EXTERNAL_FIELDS_LOAD,        36 : iP,iLd,i0,i1=    1    2    1    2 ; Wght=  0.3000000000  0.7000000000
 EXTERNAL_FIELDS_LOAD: (fu0,1),fu,fv= -3.5633E-02 -1.4435E-02 -2.0794E-02 -2.9522E-02
 EXTERNAL_FIELDS_LOAD: SST,SSS,Q,E-P= -8.4772E-02  3.4509E+01  2.4807E+02  9.3550E-06
DEBUG_STATS_RL:          Uvel (THERMODYNAMICS)  min= -1.75948098659535E-01
DEBUG_STATS_RL:          Uvel (THERMODYNAMICS)  max=  1.31608694369595E-01
DEBUG_STATS_RL:          Uvel (THERMODYNAMICS) mean=  3.98005305536566E-03
DEBUG_STATS_RL:          Uvel (THERMODYNAMICS) S.D.=  2.57091796660118E-02
DEBUG_STATS_RL:          Vvel (THERMODYNAMICS)  min= -1.12121281874940E-01
DEBUG_STATS_RL:          Vvel (THERMODYNAMICS)  max=  1.52988272270341E-01
DEBUG_STATS_RL:          Vvel (THERMODYNAMICS) mean= -3.24135368918493E-04
DEBUG_STATS_RL:          Vvel (THERMODYNAMICS) S.D.=  1.51560494923287E-02
DEBUG_STATS_RL:          Wvel (THERMODYNAMICS)  min= -1.20861513148971E-04
DEBUG_STATS_RL:          Wvel (THERMODYNAMICS)  max=  1.20675288752583E-04
DEBUG_STATS_RL:          Wvel (THERMODYNAMICS) mean= -3.57573980401280E-07
DEBUG_STATS_RL:          Wvel (THERMODYNAMICS) S.D.=  1.55948284878146E-05
DEBUG_STATS_RL:         Theta (THERMODYNAMICS)  min= -2.00322902971345E+00
DEBUG_STATS_RL:         Theta (THERMODYNAMICS)  max=  3.01323252191379E+01
DEBUG_STATS_RL:         Theta (THERMODYNAMICS) mean=  3.23183606576305E+00
DEBUG_STATS_RL:         Theta (THERMODYNAMICS) S.D.=  5.86118093116120E+00
DEBUG_STATS_RL:          Salt (THERMODYNAMICS)  min=  2.00000000000000E-02
DEBUG_STATS_RL:          Salt (THERMODYNAMICS)  max=  3.74757290969313E+01
DEBUG_STATS_RL:          Salt (THERMODYNAMICS) mean=  1.88648366136655E+01
DEBUG_STATS_RL:          Salt (THERMODYNAMICS) S.D.=  1.73003558834160E+01
DEBUG_STATS_RL:         GtNm1 (THERMODYNAMICS)  min= -3.51860980299946E-06
DEBUG_STATS_RL:         GtNm1 (THERMODYNAMICS)  max=  2.58962942249170E-06
DEBUG_STATS_RL:         GtNm1 (THERMODYNAMICS) mean=  1.16605165560779E-08
DEBUG_STATS_RL:         GtNm1 (THERMODYNAMICS) S.D.=  2.11174258055463E-07
DEBUG_STATS_RL:         GsNm1 (THERMODYNAMICS)  min= -5.03498822365795E-07
DEBUG_STATS_RL:         GsNm1 (THERMODYNAMICS)  max=  4.42379041587621E-07
DEBUG_STATS_RL:         GsNm1 (THERMODYNAMICS) mean= -1.29612014027903E-10
DEBUG_STATS_RL:         GsNm1 (THERMODYNAMICS) S.D.=  1.89158747317168E-08
DEBUG_STATS_RL:                EtaN (DYNAMICS)  min= -1.81240980934376E+00
DEBUG_STATS_RL:                EtaN (DYNAMICS)  max=  1.03563629465671E+00
DEBUG_STATS_RL:                EtaN (DYNAMICS) mean= -1.66289637209720E-01
DEBUG_STATS_RL:                EtaN (DYNAMICS) S.D.=  7.01919446231159E-01
DEBUG_STATS_RL:                Uvel (DYNAMICS)  min= -1.75948098659535E-01
DEBUG_STATS_RL:                Uvel (DYNAMICS)  max=  1.31608694369595E-01
DEBUG_STATS_RL:                Uvel (DYNAMICS) mean=  3.98005305536566E-03
DEBUG_STATS_RL:                Uvel (DYNAMICS) S.D.=  2.57091796660118E-02
DEBUG_STATS_RL:                Vvel (DYNAMICS)  min= -1.12121281874940E-01
DEBUG_STATS_RL:                Vvel (DYNAMICS)  max=  1.52988272270341E-01
DEBUG_STATS_RL:                Vvel (DYNAMICS) mean= -3.24135368918493E-04
DEBUG_STATS_RL:                Vvel (DYNAMICS) S.D.=  1.51560494923287E-02
DEBUG_STATS_RL:                Wvel (DYNAMICS)  min= -1.20861513148971E-04
DEBUG_STATS_RL:                Wvel (DYNAMICS)  max=  1.20675288752583E-04
DEBUG_STATS_RL:                Wvel (DYNAMICS) mean= -3.57573980401280E-07
DEBUG_STATS_RL:                Wvel (DYNAMICS) S.D.=  1.55948284878146E-05
DEBUG_STATS_RL:               Theta (DYNAMICS)  min= -2.00322902971345E+00
DEBUG_STATS_RL:               Theta (DYNAMICS)  max=  3.01323252191379E+01
DEBUG_STATS_RL:               Theta (DYNAMICS) mean=  3.23183606576305E+00
DEBUG_STATS_RL:               Theta (DYNAMICS) S.D.=  5.86118093116120E+00
DEBUG_STATS_RL:                Salt (DYNAMICS)  min=  2.00000000000000E-02
DEBUG_STATS_RL:                Salt (DYNAMICS)  max=  3.74757290969313E+01
DEBUG_STATS_RL:                Salt (DYNAMICS) mean=  1.88648366136655E+01
DEBUG_STATS_RL:                Salt (DYNAMICS) S.D.=  1.73003558834160E+01
DEBUG_STATS_RL:                  Gu (DYNAMICS)  min= -1.74435995387722E-01
DEBUG_STATS_RL:                  Gu (DYNAMICS)  max=  1.32588989482152E-01
DEBUG_STATS_RL:                  Gu (DYNAMICS) mean=  3.73437208071863E-03
DEBUG_STATS_RL:                  Gu (DYNAMICS) S.D.=  2.64205735146221E-02
DEBUG_STATS_RL:                  Gv (DYNAMICS)  min= -1.08863824778053E-01
DEBUG_STATS_RL:                  Gv (DYNAMICS)  max=  1.62221411040801E-01
DEBUG_STATS_RL:                  Gv (DYNAMICS) mean=  2.07179406444487E-03
DEBUG_STATS_RL:                  Gv (DYNAMICS) S.D.=  1.52030704222043E-02
DEBUG_STATS_RL:               GuNm1 (DYNAMICS)  min= -8.83759685203872E-06
DEBUG_STATS_RL:               GuNm1 (DYNAMICS)  max=  8.15407628382310E-06
DEBUG_STATS_RL:               GuNm1 (DYNAMICS) mean= -2.12491056597376E-08
DEBUG_STATS_RL:               GuNm1 (DYNAMICS) S.D.=  1.18585922274934E-06
DEBUG_STATS_RL:               GvNm1 (DYNAMICS)  min= -1.07550771982365E-05
DEBUG_STATS_RL:               GvNm1 (DYNAMICS)  max=  1.64254848393980E-05
DEBUG_STATS_RL:               GvNm1 (DYNAMICS) mean=  7.52042071939939E-07
DEBUG_STATS_RL:               GvNm1 (DYNAMICS) S.D.=  2.63124881392595E-06
DEBUG_STATS_RL:               GtNm1 (DYNAMICS)  min= -3.51860980299946E-06
DEBUG_STATS_RL:               GtNm1 (DYNAMICS)  max=  2.58962942249170E-06
DEBUG_STATS_RL:               GtNm1 (DYNAMICS) mean=  1.16605165560779E-08
DEBUG_STATS_RL:               GtNm1 (DYNAMICS) S.D.=  2.11174258055463E-07
DEBUG_STATS_RL:               GsNm1 (DYNAMICS)  min= -5.03498822365795E-07
DEBUG_STATS_RL:               GsNm1 (DYNAMICS)  max=  4.42379041587621E-07
DEBUG_STATS_RL:               GsNm1 (DYNAMICS) mean= -1.29612014027903E-10
DEBUG_STATS_RL:               GsNm1 (DYNAMICS) S.D.=  1.89158747317168E-08
DEBUG_STATS_RL:    cg2d_b (SOLVE_FOR_PRESSURE)  min= -2.09805418051756E+04
DEBUG_STATS_RL:    cg2d_b (SOLVE_FOR_PRESSURE)  max=  1.74748510585249E+04
DEBUG_STATS_RL:    cg2d_b (SOLVE_FOR_PRESSURE) mean=  2.65097451595795E+00
DEBUG_STATS_RL:    cg2d_b (SOLVE_FOR_PRESSURE) S.D.=  3.81806351315361E+03
 cg2d: Sum(rhs),rhsMax =   2.92509414743849E-01  1.37805815960601E+00
(PID.TID 0000.0001)  cg2d: iter=     1 ; resid.=  2.97687177986403E-01
(PID.TID 0000.0001)  cg2d: iter=     2 ; resid.=  2.61687968379917E-01
(PID.TID 0000.0001)  cg2d: iter=     3 ; resid.=  2.58137784860135E-01
(PID.TID 0000.0001)  cg2d: iter=     4 ; resid.=  2.37166529404421E-01
(PID.TID 0000.0001)  cg2d: iter=     5 ; resid.=  2.26217209682688E-01
(PID.TID 0000.0001)  cg2d: iter=     6 ; resid.=  1.88820477875848E-01
(PID.TID 0000.0001)  cg2d: iter=     7 ; resid.=  1.57628868532713E-01
(PID.TID 0000.0001)  cg2d: iter=     8 ; resid.=  1.20742856871408E-01
(PID.TID 0000.0001)  cg2d: iter=     9 ; resid.=  9.49940303808659E-02
(PID.TID 0000.0001)  cg2d: iter=    10 ; resid.=  7.84488781144922E-02
(PID.TID 0000.0001)  cg2d: iter=    11 ; resid.=  7.02038063666017E-02
(PID.TID 0000.0001)  cg2d: iter=    12 ; resid.=  5.91345744318458E-02
(PID.TID 0000.0001)  cg2d: iter=    13 ; resid.=  4.65349800385689E-02
(PID.TID 0000.0001)  cg2d: iter=    14 ; resid.=  3.95606441865612E-02
(PID.TID 0000.0001)  cg2d: iter=    15 ; resid.=  3.09159134362158E-02
(PID.TID 0000.0001)  cg2d: iter=    16 ; resid.=  2.77160529076378E-02
(PID.TID 0000.0001)  cg2d: iter=    17 ; resid.=  2.40249906765400E-02
(PID.TID 0000.0001)  cg2d: iter=    18 ; resid.=  2.11413838923981E-02
(PID.TID 0000.0001)  cg2d: iter=    19 ; resid.=  1.60134446653746E-02
(PID.TID 0000.0001)  cg2d: iter=    20 ; resid.=  1.26974171848683E-02
(PID.TID 0000.0001)  cg2d: iter=    21 ; resid.=  1.04165914728620E-02
(PID.TID 0000.0001)  cg2d: iter=    22 ; resid.=  8.95169085592987E-03
(PID.TID 0000.0001)  cg2d: iter=    23 ; resid.=  7.85052632698766E-03
(PID.TID 0000.0001)  cg2d: iter=    24 ; resid.=  7.22704041438190E-03
(PID.TID 0000.0001)  cg2d: iter=    25 ; resid.=  5.47444200654244E-03
(PID.TID 0000.0001)  cg2d: iter=    26 ; resid.=  4.43446745239773E-03
(PID.TID 0000.0001)  cg2d: iter=    27 ; resid.=  3.45558030105348E-03
(PID.TID 0000.0001)  cg2d: iter=    28 ; resid.=  2.79177775919119E-03
(PID.TID 0000.0001)  cg2d: iter=    29 ; resid.=  2.17855396406983E-03
(PID.TID 0000.0001)  cg2d: iter=    30 ; resid.=  1.86682465065907E-03
(PID.TID 0000.0001)  cg2d: iter=    31 ; resid.=  1.54191538083295E-03
(PID.TID 0000.0001)  cg2d: iter=    32 ; resid.=  1.25035756320729E-03
(PID.TID 0000.0001)  cg2d: iter=    33 ; resid.=  1.09294806606816E-03
(PID.TID 0000.0001)  cg2d: iter=    34 ; resid.=  9.40624220907479E-04
(PID.TID 0000.0001)  cg2d: iter=    35 ; resid.=  7.84080642123154E-04
(PID.TID 0000.0001)  cg2d: iter=    36 ; resid.=  6.73783542772751E-04
(PID.TID 0000.0001)  cg2d: iter=    37 ; resid.=  5.75760681363411E-04
(PID.TID 0000.0001)  cg2d: iter=    38 ; resid.=  5.24345732298954E-04
(PID.TID 0000.0001)  cg2d: iter=    39 ; resid.=  4.57260504468892E-04
(PID.TID 0000.0001)  cg2d: iter=    40 ; resid.=  3.77618405877725E-04
(PID.TID 0000.0001)  cg2d: iter=    41 ; resid.=  3.22818056659703E-04
(PID.TID 0000.0001)  cg2d: iter=    42 ; resid.=  2.79474855142260E-04
(PID.TID 0000.0001)  cg2d: iter=    43 ; resid.=  2.30864737960020E-04
(PID.TID 0000.0001)  cg2d: iter=    44 ; resid.=  1.83721441163650E-04
(PID.TID 0000.0001)  cg2d: iter=    45 ; resid.=  1.37691677077454E-04
(PID.TID 0000.0001)  cg2d: iter=    46 ; resid.=  1.11592231621117E-04
(PID.TID 0000.0001)  cg2d: iter=    47 ; resid.=  9.73247607650541E-05
(PID.TID 0000.0001)  cg2d: iter=    48 ; resid.=  7.85117129370050E-05
(PID.TID 0000.0001)  cg2d: iter=    49 ; resid.=  6.62267813590393E-05
(PID.TID 0000.0001)  cg2d: iter=    50 ; resid.=  6.05759262639835E-05
(PID.TID 0000.0001)  cg2d: iter=    51 ; resid.=  5.23552597232953E-05
(PID.TID 0000.0001)  cg2d: iter=    52 ; resid.=  4.20282139408328E-05
(PID.TID 0000.0001)  cg2d: iter=    53 ; resid.=  3.54506662504579E-05
(PID.TID 0000.0001)  cg2d: iter=    54 ; resid.=  2.86157916314938E-05
(PID.TID 0000.0001)  cg2d: iter=    55 ; resid.=  2.39537931379970E-05
(PID.TID 0000.0001)  cg2d: iter=    56 ; resid.=  1.99272432602801E-05
(PID.TID 0000.0001)  cg2d: iter=    57 ; resid.=  1.65424093304789E-05
(PID.TID 0000.0001)  cg2d: iter=    58 ; resid.=  1.34264494612900E-05
(PID.TID 0000.0001)  cg2d: iter=    59 ; resid.=  1.12277158827269E-05
(PID.TID 0000.0001)  cg2d: iter=    60 ; resid.=  8.93117415318026E-06
(PID.TID 0000.0001)  cg2d: iter=    61 ; resid.=  7.67402636345817E-06
(PID.TID 0000.0001)  cg2d: iter=    62 ; resid.=  6.53550718569334E-06
(PID.TID 0000.0001)  cg2d: iter=    63 ; resid.=  5.39748532564895E-06
(PID.TID 0000.0001)  cg2d: iter=    64 ; resid.=  4.29396471213431E-06
(PID.TID 0000.0001)  cg2d: iter=    65 ; resid.=  3.41240914237694E-06
(PID.TID 0000.0001)  cg2d: iter=    66 ; resid.=  3.02247952341013E-06
(PID.TID 0000.0001)  cg2d: iter=    67 ; resid.=  2.55530717228201E-06
(PID.TID 0000.0001)  cg2d: iter=    68 ; resid.=  2.15649410552923E-06
(PID.TID 0000.0001)  cg2d: iter=    69 ; resid.=  1.65574990845163E-06
(PID.TID 0000.0001)  cg2d: iter=    70 ; resid.=  1.29726281579483E-06
(PID.TID 0000.0001)  cg2d: iter=    71 ; resid.=  1.09981558165348E-06
(PID.TID 0000.0001)  cg2d: iter=    72 ; resid.=  9.93206987061955E-07
(PID.TID 0000.0001)  cg2d: iter=    73 ; resid.=  8.93026851203746E-07
(PID.TID 0000.0001)  cg2d: iter=    74 ; resid.=  7.55494493248620E-07
(PID.TID 0000.0001)  cg2d: iter=    75 ; resid.=  6.08525364101776E-07
(PID.TID 0000.0001)  cg2d: iter=    76 ; resid.=  5.13403420119801E-07
(PID.TID 0000.0001)  cg2d: iter=    77 ; resid.=  4.02594609943752E-07
(PID.TID 0000.0001)  cg2d: iter=    78 ; resid.=  3.14690675716103E-07
(PID.TID 0000.0001)  cg2d: iter=    79 ; resid.=  2.42170653905071E-07
(PID.TID 0000.0001)  cg2d: iter=    80 ; resid.=  1.74468425303060E-07
(PID.TID 0000.0001)  cg2d: iter=    81 ; resid.=  1.31008494731795E-07
(PID.TID 0000.0001)  cg2d: iter=    82 ; resid.=  1.02007572544282E-07
(PID.TID 0000.0001)  cg2d: iter=    83 ; resid.=  7.31375274729090E-08
(PID.TID 0000.0001)  cg2d: iter=    84 ; resid.=  5.40987996510838E-08
(PID.TID 0000.0001)  cg2d: iter=    85 ; resid.=  3.96928185417344E-08
(PID.TID 0000.0001)  cg2d: iter=    86 ; resid.=  3.11454810894519E-08
(PID.TID 0000.0001)  cg2d: iter=    87 ; resid.=  2.65936981914387E-08
(PID.TID 0000.0001)  cg2d: iter=    88 ; resid.=  2.14930199801708E-08
(PID.TID 0000.0001)  cg2d: iter=    89 ; resid.=  1.75823590676856E-08
(PID.TID 0000.0001)  cg2d: iter=    90 ; resid.=  1.37355628070536E-08
(PID.TID 0000.0001)  cg2d: iter=    91 ; resid.=  9.97272051796878E-09
(PID.TID 0000.0001)  cg2d: iter=    92 ; resid.=  7.46276235219567E-09
(PID.TID 0000.0001)  cg2d: iter=    93 ; resid.=  6.00922278229643E-09
(PID.TID 0000.0001)  cg2d: iter=    94 ; resid.=  4.76242039064625E-09
(PID.TID 0000.0001)  cg2d: iter=    95 ; resid.=  4.07114137742855E-09
(PID.TID 0000.0001)  cg2d: iter=    96 ; resid.=  3.07233175304141E-09
(PID.TID 0000.0001)  cg2d: iter=    97 ; resid.=  2.33632963063711E-09
(PID.TID 0000.0001)  cg2d: iter=    98 ; resid.=  1.83774751388776E-09
(PID.TID 0000.0001)  cg2d: iter=    99 ; resid.=  1.58282224182408E-09
(PID.TID 0000.0001)  cg2d: iter=   100 ; resid.=  1.34556418057965E-09
(PID.TID 0000.0001)  cg2d: iter=   101 ; resid.=  1.11565248097539E-09
(PID.TID 0000.0001)  cg2d: iter=   102 ; resid.=  8.86714282439679E-10
(PID.TID 0000.0001)  cg2d: iter=   103 ; resid.=  7.20224243676193E-10
(PID.TID 0000.0001)  cg2d: iter=   104 ; resid.=  6.02645499521887E-10
(PID.TID 0000.0001)  cg2d: iter=   105 ; resid.=  5.02473640469039E-10
(PID.TID 0000.0001)  cg2d: iter=   106 ; resid.=  4.55823854856928E-10
(PID.TID 0000.0001)  cg2d: iter=   107 ; resid.=  3.55147461199797E-10
(PID.TID 0000.0001)  cg2d: iter=   108 ; resid.=  2.74276395577712E-10
(PID.TID 0000.0001)  cg2d: iter=   109 ; resid.=  2.03259548525169E-10
(PID.TID 0000.0001)  cg2d: iter=   110 ; resid.=  1.59399068617591E-10
(PID.TID 0000.0001)  cg2d: iter=   111 ; resid.=  1.26797337551840E-10
(PID.TID 0000.0001)  cg2d: iter=   112 ; resid.=  8.93050383626035E-11
(PID.TID 0000.0001)  cg2d: iter=   113 ; resid.=  6.45252404733054E-11
(PID.TID 0000.0001)  cg2d: iter=   114 ; resid.=  5.07864790473515E-11
(PID.TID 0000.0001)  cg2d: iter=   115 ; resid.=  3.76722472802887E-11
(PID.TID 0000.0001)  cg2d: iter=   116 ; resid.=  2.86848349278688E-11
(PID.TID 0000.0001)  cg2d: iter=   117 ; resid.=  2.45375066117783E-11
(PID.TID 0000.0001)  cg2d: iter=   118 ; resid.=  2.03588204436603E-11
(PID.TID 0000.0001)  cg2d: iter=   119 ; resid.=  1.51248312775669E-11
(PID.TID 0000.0001)  cg2d: iter=   120 ; resid.=  1.10821774526083E-11
(PID.TID 0000.0001)  cg2d: iter=   121 ; resid.=  9.00941235902164E-12
(PID.TID 0000.0001)  cg2d: iter=   122 ; resid.=  6.56780505790079E-12
(PID.TID 0000.0001)  cg2d: iter=   123 ; resid.=  4.59149982314416E-12
(PID.TID 0000.0001)  cg2d: iter=   124 ; resid.=  3.10752699102984E-12
(PID.TID 0000.0001)  cg2d: iter=   125 ; resid.=  2.24054970334171E-12
(PID.TID 0000.0001)  cg2d: iter=   126 ; resid.=  1.60009374375961E-12
(PID.TID 0000.0001)  cg2d: iter=   127 ; resid.=  1.03946318335421E-12
(PID.TID 0000.0001)  cg2d: iter=   128 ; resid.=  7.38308976400847E-13
(PID.TID 0000.0001)  cg2d: iter=   129 ; resid.=  5.38448475475411E-13
(PID.TID 0000.0001)  cg2d: iter=   130 ; resid.=  4.13505858551297E-13
(PID.TID 0000.0001)  cg2d: iter=   131 ; resid.=  3.06041164411081E-13
(PID.TID 0000.0001)  cg2d: iter=   132 ; resid.=  2.29207515934784E-13
(PID.TID 0000.0001)  cg2d: iter=   133 ; resid.=  1.78960264244111E-13
(PID.TID 0000.0001)  cg2d: iter=   134 ; resid.=  1.40706712517788E-13
(PID.TID 0000.0001)  cg2d: iter=   135 ; resid.=  1.08646987976677E-13
(PID.TID 0000.0001)  cg2d: iter=   136 ; resid.=  7.18917242455711E-14
DEBUG_STATS_RL:    cg2d_x (SOLVE_FOR_PRESSURE)  min= -1.78445967422559E+01
DEBUG_STATS_RL:    cg2d_x (SOLVE_FOR_PRESSURE)  max=  9.92990640384755E+00
DEBUG_STATS_RL:    cg2d_x (SOLVE_FOR_PRESSURE) mean= -1.66941166641478E+00
DEBUG_STATS_RL:    cg2d_x (SOLVE_FOR_PRESSURE) S.D.=  7.08554827659156E+00
(PID.TID 0000.0001)      cg2d_init_res =   5.01570303227854E-01
(PID.TID 0000.0001)      cg2d_iters(min,last) =      -1     136
(PID.TID 0000.0001)      cg2d_last_res =   7.18917242455711E-14
(PID.TID 0000.0001) // =======================================================
(PID.TID 0000.0001) // Begin MONITOR dynamic field statistics
(PID.TID 0000.0001) // =======================================================
(PID.TID 0000.0001) %MON time_tsnumber                =                    37
(PID.TID 0000.0001) %MON time_secondsf                =   3.1968000000000E+06
(PID.TID 0000.0001) %MON dynstat_eta_max              =   1.0122228750099E+00
(PID.TID 0000.0001) %MON dynstat_eta_min              =  -1.8190210746438E+00
(PID.TID 0000.0001) %MON dynstat_eta_mean             =  -2.7659631974133E-03
(PID.TID 0000.0001) %MON dynstat_eta_sd               =   6.5321317158891E-01
(PID.TID 0000.0001) %MON dynstat_eta_del2             =   2.2246136594503E-03
(PID.TID 0000.0001) %MON dynstat_uvel_max             =   1.3667977468764E-01
(PID.TID 0000.0001) %MON dynstat_uvel_min             =  -1.7303028329820E-01
(PID.TID 0000.0001) %MON dynstat_uvel_mean            =   2.2812724462831E-03
(PID.TID 0000.0001) %MON dynstat_uvel_sd              =   1.8416514105955E-02
(PID.TID 0000.0001) %MON dynstat_uvel_del2            =   9.5234514154247E-05
(PID.TID 0000.0001) %MON dynstat_vvel_max             =   1.5844825932928E-01
(PID.TID 0000.0001) %MON dynstat_vvel_min             =  -1.1335135945064E-01
(PID.TID 0000.0001) %MON dynstat_vvel_mean            =  -1.6558897549006E-04
(PID.TID 0000.0001) %MON dynstat_vvel_sd              =   1.0725868875144E-02
(PID.TID 0000.0001) %MON dynstat_vvel_del2            =   9.0578827760062E-05
(PID.TID 0000.0001) %MON dynstat_wvel_max             =   1.0676743610500E-04
(PID.TID 0000.0001) %MON dynstat_wvel_min             =  -1.0977618896761E-04
(PID.TID 0000.0001) %MON dynstat_wvel_mean            =  -3.3180552642944E-22
(PID.TID 0000.0001) %MON dynstat_wvel_sd              =   1.7427161805311E-05
(PID.TID 0000.0001) %MON dynstat_wvel_del2            =   1.8565233101358E-07
(PID.TID 0000.0001) %MON dynstat_theta_max            =   3.0132325219138E+01
(PID.TID 0000.0001) %MON dynstat_theta_min            =  -2.0032290297134E+00
(PID.TID 0000.0001) %MON dynstat_theta_mean           =   3.6415441333386E+00
(PID.TID 0000.0001) %MON dynstat_theta_sd             =   4.4184688925154E+00
(PID.TID 0000.0001) %MON dynstat_theta_del2           =   4.7885840873496E-03
(PID.TID 0000.0001) %MON dynstat_salt_max             =   3.7475729096931E+01
(PID.TID 0000.0001) %MON dynstat_salt_min             =   2.9837713888267E+01
(PID.TID 0000.0001) %MON dynstat_salt_mean            =   3.4738000793561E+01
(PID.TID 0000.0001) %MON dynstat_salt_sd              =   2.9632840960485E-01
(PID.TID 0000.0001) %MON dynstat_salt_del2            =   9.8939122749715E-04
(PID.TID 0000.0001) %MON dynstat_sst_max              =   3.0132325219138E+01
(PID.TID 0000.0001) %MON dynstat_sst_min              =  -2.0032290297134E+00
(PID.TID 0000.0001) %MON dynstat_sst_mean             =   1.8820531699920E+01
(PID.TID 0000.0001) %MON dynstat_sst_sd               =   9.0241920279542E+00
(PID.TID 0000.0001) %MON dynstat_sst_del2             =   2.6928793847352E-02
(PID.TID 0000.0001) %MON dynstat_sss_max              =   3.7451062446854E+01
(PID.TID 0000.0001) %MON dynstat_sss_min              =   2.9837713888267E+01
(PID.TID 0000.0001) %MON dynstat_sss_mean             =   3.4864516657866E+01
(PID.TID 0000.0001) %MON dynstat_sss_sd               =   9.7641599383435E-01
(PID.TID 0000.0001) %MON dynstat_sss_del2             =   7.8711174325177E-03
(PID.TID 0000.0001) %MON forcing_qnet_max             =   3.7191279602051E+02
(PID.TID 0000.0001) %MON forcing_qnet_min             =  -1.7498964233398E+02
(PID.TID 0000.0001) %MON forcing_qnet_mean            =  -1.4729433485573E+01
(PID.TID 0000.0001) %MON forcing_qnet_sd              =   8.8124246964212E+01
(PID.TID 0000.0001) %MON forcing_qnet_del2            =   9.6017907876668E-01
(PID.TID 0000.0001) %MON forcing_qsw_max              =   0.0000000000000E+00
(PID.TID 0000.0001) %MON forcing_qsw_min              =   0.0000000000000E+00
(PID.TID 0000.0001) %MON forcing_qsw_mean             =   0.0000000000000E+00
(PID.TID 0000.0001) %MON forcing_qsw_sd               =   0.0000000000000E+00
(PID.TID 0000.0001) %MON forcing_qsw_del2             =   0.0000000000000E+00
(PID.TID 0000.0001) %MON forcing_empmr_max            =   7.5578354596928E-05
(PID.TID 0000.0001) %MON forcing_empmr_min            =  -7.7828485700593E-05
(PID.TID 0000.0001) %MON forcing_empmr_mean           =   9.3726740456976E-07
(PID.TID 0000.0001) %MON forcing_empmr_sd             =   2.8054368786233E-05
(PID.TID 0000.0001) %MON forcing_empmr_del2           =   3.5379338060375E-07
(PID.TID 0000.0001) %MON forcing_fu_max               =   2.9215110242367E-01
(PID.TID 0000.0001) %MON forcing_fu_min               =  -2.0079303681850E-01
(PID.TID 0000.0001) %MON forcing_fu_mean              =   1.7142039677415E-02
(PID.TID 0000.0001) %MON forcing_fu_sd                =   9.0801562846002E-02
(PID.TID 0000.0001) %MON forcing_fu_del2              =   6.8477442505628E-04
(PID.TID 0000.0001) %MON forcing_fv_max               =   1.8260629773140E-01
(PID.TID 0000.0001) %MON forcing_fv_min               =  -1.7113216519356E-01
(PID.TID 0000.0001) %MON forcing_fv_mean              =  -6.6293767805238E-03
(PID.TID 0000.0001) %MON forcing_fv_sd                =   4.4536887248365E-02
(PID.TID 0000.0001) %MON forcing_fv_del2              =   4.8427363307602E-04
(PID.TID 0000.0001) %MON trAdv_CFL_u_max              =   4.3158671495883E-02
(PID.TID 0000.0001) %MON trAdv_CFL_v_max              =   3.1139137849481E-02
(PID.TID 0000.0001) %MON trAdv_CFL_w_max              =   6.8458725635596E-02
(PID.TID 0000.0001) %MON advcfl_uvel_max              =   4.5177533866662E-02
(PID.TID 0000.0001) %MON advcfl_vvel_max              =   3.0783955583117E-02
(PID.TID 0000.0001) %MON advcfl_wvel_max              =   5.3282135689610E-02
(PID.TID 0000.0001) %MON advcfl_W_hf_max              =   6.2796802777040E-02
(PID.TID 0000.0001) %MON pe_b_mean                    =   5.4600780877377E-04
(PID.TID 0000.0001) %MON ke_max                       =   1.6879429696709E-02
(PID.TID 0000.0001) %MON ke_mean                      =   2.0811422272354E-04
(PID.TID 0000.0001) %MON ke_vol                       =   1.3226782436723E+18
(PID.TID 0000.0001) %MON vort_r_min                   =  -4.1413944793747E-07
(PID.TID 0000.0001) %MON vort_r_max                   =   4.8580658513170E-07
(PID.TID 0000.0001) %MON vort_a_mean                  =  -2.5274807131030E-05
(PID.TID 0000.0001) %MON vort_a_sd                    =   7.3604647279198E-05
(PID.TID 0000.0001) %MON vort_p_mean                  =  -3.1845655463788E-05
(PID.TID 0000.0001) %MON vort_p_sd                    =   1.3162571056364E-04
(PID.TID 0000.0001) %MON surfExpan_theta_mean         =   6.8458732803457E-07
(PID.TID 0000.0001) %MON surfExpan_salt_mean          =  -2.0332017021732E-07
(PID.TID 0000.0001) // =======================================================
(PID.TID 0000.0001) // End MONITOR dynamic field statistics
(PID.TID 0000.0001) // =======================================================
 EXTERNAL_FIELDS_LOAD,        37 : iP,iLd,i0,i1=    1    2    1    2 ; Wght=  0.2666666667  0.7333333333
 EXTERNAL_FIELDS_LOAD: (fu0,1),fu,fv= -3.5633E-02 -1.4435E-02 -2.0088E-02 -2.8201E-02
 EXTERNAL_FIELDS_LOAD: SST,SSS,Q,E-P= -1.3445E-01  3.4499E+01  2.4722E+02  9.2464E-06
DEBUG_STATS_RL:          Uvel (THERMODYNAMICS)  min= -1.73030283298201E-01
DEBUG_STATS_RL:          Uvel (THERMODYNAMICS)  max=  1.36679774687643E-01
DEBUG_STATS_RL:          Uvel (THERMODYNAMICS) mean=  3.79638122152177E-03
DEBUG_STATS_RL:          Uvel (THERMODYNAMICS) S.D.=  2.59990102640082E-02
DEBUG_STATS_RL:          Vvel (THERMODYNAMICS)  min= -1.13351359450644E-01
DEBUG_STATS_RL:          Vvel (THERMODYNAMICS)  max=  1.58448259329277E-01
DEBUG_STATS_RL:          Vvel (THERMODYNAMICS) mean= -2.72065262289799E-04
DEBUG_STATS_RL:          Vvel (THERMODYNAMICS) S.D.=  1.53388507158920E-02
DEBUG_STATS_RL:          Wvel (THERMODYNAMICS)  min= -1.09776188967609E-04
DEBUG_STATS_RL:          Wvel (THERMODYNAMICS)  max=  1.06767436105001E-04
DEBUG_STATS_RL:          Wvel (THERMODYNAMICS) mean= -3.67478931575264E-07
DEBUG_STATS_RL:          Wvel (THERMODYNAMICS) S.D.=  1.54215638954917E-05
DEBUG_STATS_RL:         Theta (THERMODYNAMICS)  min= -2.00242085306278E+00
DEBUG_STATS_RL:         Theta (THERMODYNAMICS)  max=  3.01573355604930E+01
DEBUG_STATS_RL:         Theta (THERMODYNAMICS) mean=  3.23240563950482E+00
DEBUG_STATS_RL:         Theta (THERMODYNAMICS) S.D.=  5.86181377837343E+00
DEBUG_STATS_RL:          Salt (THERMODYNAMICS)  min=  2.00000000000000E-02
DEBUG_STATS_RL:          Salt (THERMODYNAMICS)  max=  3.74761800010540E+01
DEBUG_STATS_RL:          Salt (THERMODYNAMICS) mean=  1.88648386940148E+01
DEBUG_STATS_RL:          Salt (THERMODYNAMICS) S.D.=  1.73003587225395E+01
DEBUG_STATS_RL:         GtNm1 (THERMODYNAMICS)  min= -3.22610659246052E-06
DEBUG_STATS_RL:         GtNm1 (THERMODYNAMICS)  max=  2.55836912703431E-06
DEBUG_STATS_RL:         GtNm1 (THERMODYNAMICS) mean=  1.22000895342160E-08
DEBUG_STATS_RL:         GtNm1 (THERMODYNAMICS) S.D.=  2.10800944375865E-07
DEBUG_STATS_RL:         GsNm1 (THERMODYNAMICS)  min= -4.85165577004123E-07
DEBUG_STATS_RL:         GsNm1 (THERMODYNAMICS)  max=  3.32580275718166E-07
DEBUG_STATS_RL:         GsNm1 (THERMODYNAMICS) mean= -4.77854505556738E-11
DEBUG_STATS_RL:         GsNm1 (THERMODYNAMICS) S.D.=  1.91395397706591E-08
DEBUG_STATS_RL:                EtaN (DYNAMICS)  min= -1.81902107464380E+00
DEBUG_STATS_RL:                EtaN (DYNAMICS)  max=  1.01222287500988E+00
DEBUG_STATS_RL:                EtaN (DYNAMICS) mean= -1.70174481795594E-01
DEBUG_STATS_RL:                EtaN (DYNAMICS) S.D.=  7.22278111783037E-01
DEBUG_STATS_RL:                Uvel (DYNAMICS)  min= -1.73030283298201E-01
DEBUG_STATS_RL:                Uvel (DYNAMICS)  max=  1.36679774687643E-01
DEBUG_STATS_RL:                Uvel (DYNAMICS) mean=  3.79638122152177E-03
DEBUG_STATS_RL:                Uvel (DYNAMICS) S.D.=  2.59990102640082E-02
DEBUG_STATS_RL:                Vvel (DYNAMICS)  min= -1.13351359450644E-01
DEBUG_STATS_RL:                Vvel (DYNAMICS)  max=  1.58448259329277E-01
DEBUG_STATS_RL:                Vvel (DYNAMICS) mean= -2.72065262289799E-04
DEBUG_STATS_RL:                Vvel (DYNAMICS) S.D.=  1.53388507158920E-02
DEBUG_STATS_RL:                Wvel (DYNAMICS)  min= -1.09776188967609E-04
DEBUG_STATS_RL:                Wvel (DYNAMICS)  max=  1.06767436105001E-04
DEBUG_STATS_RL:                Wvel (DYNAMICS) mean= -3.67478931575264E-07
DEBUG_STATS_RL:                Wvel (DYNAMICS) S.D.=  1.54215638954917E-05
DEBUG_STATS_RL:               Theta (DYNAMICS)  min= -2.00242085306278E+00
DEBUG_STATS_RL:               Theta (DYNAMICS)  max=  3.01573355604930E+01
DEBUG_STATS_RL:               Theta (DYNAMICS) mean=  3.23240563950482E+00
DEBUG_STATS_RL:               Theta (DYNAMICS) S.D.=  5.86181377837343E+00
DEBUG_STATS_RL:                Salt (DYNAMICS)  min=  2.00000000000000E-02
DEBUG_STATS_RL:                Salt (DYNAMICS)  max=  3.74761800010540E+01
DEBUG_STATS_RL:                Salt (DYNAMICS) mean=  1.88648386940148E+01
DEBUG_STATS_RL:                Salt (DYNAMICS) S.D.=  1.73003587225395E+01
DEBUG_STATS_RL:                  Gu (DYNAMICS)  min= -1.70886389290646E-01
DEBUG_STATS_RL:                  Gu (DYNAMICS)  max=  1.38993733994574E-01
DEBUG_STATS_RL:                  Gu (DYNAMICS) mean=  3.49672954497899E-03
DEBUG_STATS_RL:                  Gu (DYNAMICS) S.D.=  2.66856990222708E-02
DEBUG_STATS_RL:                  Gv (DYNAMICS)  min= -1.09906065081390E-01
DEBUG_STATS_RL:                  Gv (DYNAMICS)  max=  1.64440381424297E-01
DEBUG_STATS_RL:                  Gv (DYNAMICS) mean=  2.12753747994528E-03
DEBUG_STATS_RL:                  Gv (DYNAMICS) S.D.=  1.53486061560385E-02
DEBUG_STATS_RL:               GuNm1 (DYNAMICS)  min= -8.93669275742091E-06
DEBUG_STATS_RL:               GuNm1 (DYNAMICS)  max=  8.23731666828891E-06
DEBUG_STATS_RL:               GuNm1 (DYNAMICS) mean= -2.07327159921262E-08
DEBUG_STATS_RL:               GuNm1 (DYNAMICS) S.D.=  1.18234289294566E-06
DEBUG_STATS_RL:               GvNm1 (DYNAMICS)  min= -1.06657455856252E-05
DEBUG_STATS_RL:               GvNm1 (DYNAMICS)  max=  1.63999125043559E-05
DEBUG_STATS_RL:               GvNm1 (DYNAMICS) mean=  7.50222881773392E-07
DEBUG_STATS_RL:               GvNm1 (DYNAMICS) S.D.=  2.62411424529485E-06
DEBUG_STATS_RL:               GtNm1 (DYNAMICS)  min= -3.22610659246052E-06
DEBUG_STATS_RL:               GtNm1 (DYNAMICS)  max=  2.55836912703431E-06
DEBUG_STATS_RL:               GtNm1 (DYNAMICS) mean=  1.22000895342160E-08
DEBUG_STATS_RL:               GtNm1 (DYNAMICS) S.D.=  2.10800944375865E-07
DEBUG_STATS_RL:               GsNm1 (DYNAMICS)  min= -4.85165577004123E-07
DEBUG_STATS_RL:               GsNm1 (DYNAMICS)  max=  3.32580275718166E-07
DEBUG_STATS_RL:               GsNm1 (DYNAMICS) mean= -4.77854505556738E-11
DEBUG_STATS_RL:               GsNm1 (DYNAMICS) S.D.=  1.91395397706591E-08
DEBUG_STATS_RL:    cg2d_b (SOLVE_FOR_PRESSURE)  min= -2.19813157306982E+04
DEBUG_STATS_RL:    cg2d_b (SOLVE_FOR_PRESSURE)  max=  1.71620996529532E+04
DEBUG_STATS_RL:    cg2d_b (SOLVE_FOR_PRESSURE) mean=  2.72601785405672E+00
DEBUG_STATS_RL:    cg2d_b (SOLVE_FOR_PRESSURE) S.D.=  3.79907724485080E+03
 cg2d: Sum(rhs),rhsMax =   2.87095249868303E-01  1.44379167053217E+00
(PID.TID 0000.0001)  cg2d: iter=     1 ; resid.=  2.76316288514404E-01
(PID.TID 0000.0001)  cg2d: iter=     2 ; resid.=  2.39804285942431E-01
(PID.TID 0000.0001)  cg2d: iter=     3 ; resid.=  2.37309593747753E-01
(PID.TID 0000.0001)  cg2d: iter=     4 ; resid.=  2.14937180672024E-01
(PID.TID 0000.0001)  cg2d: iter=     5 ; resid.=  1.99205528199131E-01
(PID.TID 0000.0001)  cg2d: iter=     6 ; resid.=  1.65498986730537E-01
(PID.TID 0000.0001)  cg2d: iter=     7 ; resid.=  1.38832004331837E-01
(PID.TID 0000.0001)  cg2d: iter=     8 ; resid.=  1.09864112389806E-01
(PID.TID 0000.0001)  cg2d: iter=     9 ; resid.=  8.95460747609477E-02
(PID.TID 0000.0001)  cg2d: iter=    10 ; resid.=  7.39733426504421E-02
(PID.TID 0000.0001)  cg2d: iter=    11 ; resid.=  6.66631587548444E-02
(PID.TID 0000.0001)  cg2d: iter=    12 ; resid.=  5.58595670102723E-02
(PID.TID 0000.0001)  cg2d: iter=    13 ; resid.=  4.35827412693157E-02
(PID.TID 0000.0001)  cg2d: iter=    14 ; resid.=  3.66734193378514E-02
(PID.TID 0000.0001)  cg2d: iter=    15 ; resid.=  2.89682948967432E-02
(PID.TID 0000.0001)  cg2d: iter=    16 ; resid.=  2.56284791963212E-02
(PID.TID 0000.0001)  cg2d: iter=    17 ; resid.=  2.19920543898906E-02
(PID.TID 0000.0001)  cg2d: iter=    18 ; resid.=  1.91048785767584E-02
(PID.TID 0000.0001)  cg2d: iter=    19 ; resid.=  1.46894294766680E-02
(PID.TID 0000.0001)  cg2d: iter=    20 ; resid.=  1.15673007793482E-02
(PID.TID 0000.0001)  cg2d: iter=    21 ; resid.=  9.48624582527087E-03
(PID.TID 0000.0001)  cg2d: iter=    22 ; resid.=  8.14836922216210E-03
(PID.TID 0000.0001)  cg2d: iter=    23 ; resid.=  7.08281594765697E-03
(PID.TID 0000.0001)  cg2d: iter=    24 ; resid.=  6.41620487210112E-03
(PID.TID 0000.0001)  cg2d: iter=    25 ; resid.=  4.91290517326727E-03
(PID.TID 0000.0001)  cg2d: iter=    26 ; resid.=  4.00602671750227E-03
(PID.TID 0000.0001)  cg2d: iter=    27 ; resid.=  3.19193587552703E-03
(PID.TID 0000.0001)  cg2d: iter=    28 ; resid.=  2.66041489351862E-03
(PID.TID 0000.0001)  cg2d: iter=    29 ; resid.=  2.12865676358202E-03
(PID.TID 0000.0001)  cg2d: iter=    30 ; resid.=  1.82676229554948E-03
(PID.TID 0000.0001)  cg2d: iter=    31 ; resid.=  1.46782456381114E-03
(PID.TID 0000.0001)  cg2d: iter=    32 ; resid.=  1.15021949521989E-03
(PID.TID 0000.0001)  cg2d: iter=    33 ; resid.=  9.89126206364330E-04
(PID.TID 0000.0001)  cg2d: iter=    34 ; resid.=  8.54791847530478E-04
(PID.TID 0000.0001)  cg2d: iter=    35 ; resid.=  7.00809977829255E-04
(PID.TID 0000.0001)  cg2d: iter=    36 ; resid.=  5.95211608315113E-04
(PID.TID 0000.0001)  cg2d: iter=    37 ; resid.=  4.99636250291598E-04
(PID.TID 0000.0001)  cg2d: iter=    38 ; resid.=  4.58403084170486E-04
(PID.TID 0000.0001)  cg2d: iter=    39 ; resid.=  4.07966292536431E-04
(PID.TID 0000.0001)  cg2d: iter=    40 ; resid.=  3.44485280600860E-04
(PID.TID 0000.0001)  cg2d: iter=    41 ; resid.=  2.99820394026743E-04
(PID.TID 0000.0001)  cg2d: iter=    42 ; resid.=  2.59063182159534E-04
(PID.TID 0000.0001)  cg2d: iter=    43 ; resid.=  2.14724494962007E-04
(PID.TID 0000.0001)  cg2d: iter=    44 ; resid.=  1.69436250931216E-04
(PID.TID 0000.0001)  cg2d: iter=    45 ; resid.=  1.27781673731865E-04
(PID.TID 0000.0001)  cg2d: iter=    46 ; resid.=  1.02438930423917E-04
(PID.TID 0000.0001)  cg2d: iter=    47 ; resid.=  9.05155489226493E-05
(PID.TID 0000.0001)  cg2d: iter=    48 ; resid.=  7.46202186311232E-05
(PID.TID 0000.0001)  cg2d: iter=    49 ; resid.=  6.30338160866337E-05
(PID.TID 0000.0001)  cg2d: iter=    50 ; resid.=  5.64471699993917E-05
(PID.TID 0000.0001)  cg2d: iter=    51 ; resid.=  4.75414624808304E-05
(PID.TID 0000.0001)  cg2d: iter=    52 ; resid.=  3.76053377198224E-05
(PID.TID 0000.0001)  cg2d: iter=    53 ; resid.=  3.16956291933893E-05
(PID.TID 0000.0001)  cg2d: iter=    54 ; resid.=  2.64176015095734E-05
(PID.TID 0000.0001)  cg2d: iter=    55 ; resid.=  2.26440632067939E-05
(PID.TID 0000.0001)  cg2d: iter=    56 ; resid.=  1.84628712546065E-05
(PID.TID 0000.0001)  cg2d: iter=    57 ; resid.=  1.51666977120496E-05
(PID.TID 0000.0001)  cg2d: iter=    58 ; resid.=  1.22135387215048E-05
(PID.TID 0000.0001)  cg2d: iter=    59 ; resid.=  1.02248329356201E-05
(PID.TID 0000.0001)  cg2d: iter=    60 ; resid.=  8.24206029540067E-06
(PID.TID 0000.0001)  cg2d: iter=    61 ; resid.=  7.11766535259690E-06
(PID.TID 0000.0001)  cg2d: iter=    62 ; resid.=  6.09233751411028E-06
(PID.TID 0000.0001)  cg2d: iter=    63 ; resid.=  5.07623225748838E-06
(PID.TID 0000.0001)  cg2d: iter=    64 ; resid.=  4.01161189916336E-06
(PID.TID 0000.0001)  cg2d: iter=    65 ; resid.=  3.26587211901446E-06
(PID.TID 0000.0001)  cg2d: iter=    66 ; resid.=  2.88466828432872E-06
(PID.TID 0000.0001)  cg2d: iter=    67 ; resid.=  2.43925204809323E-06
(PID.TID 0000.0001)  cg2d: iter=    68 ; resid.=  2.00598962878121E-06
(PID.TID 0000.0001)  cg2d: iter=    69 ; resid.=  1.50512373240612E-06
(PID.TID 0000.0001)  cg2d: iter=    70 ; resid.=  1.18464880270148E-06
(PID.TID 0000.0001)  cg2d: iter=    71 ; resid.=  1.02084226839334E-06
(PID.TID 0000.0001)  cg2d: iter=    72 ; resid.=  9.14268331200736E-07
(PID.TID 0000.0001)  cg2d: iter=    73 ; resid.=  8.12888100099526E-07
(PID.TID 0000.0001)  cg2d: iter=    74 ; resid.=  6.82865801196878E-07
(PID.TID 0000.0001)  cg2d: iter=    75 ; resid.=  5.47894973409658E-07
(PID.TID 0000.0001)  cg2d: iter=    76 ; resid.=  4.71005000605825E-07
(PID.TID 0000.0001)  cg2d: iter=    77 ; resid.=  3.79146917765092E-07
(PID.TID 0000.0001)  cg2d: iter=    78 ; resid.=  3.04381718335174E-07
(PID.TID 0000.0001)  cg2d: iter=    79 ; resid.=  2.33017056401760E-07
(PID.TID 0000.0001)  cg2d: iter=    80 ; resid.=  1.71463918984700E-07
(PID.TID 0000.0001)  cg2d: iter=    81 ; resid.=  1.30262306478293E-07
(PID.TID 0000.0001)  cg2d: iter=    82 ; resid.=  1.00635717500122E-07
(PID.TID 0000.0001)  cg2d: iter=    83 ; resid.=  7.17390992231100E-08
(PID.TID 0000.0001)  cg2d: iter=    84 ; resid.=  5.44426148966857E-08
(PID.TID 0000.0001)  cg2d: iter=    85 ; resid.=  4.00136744307419E-08
(PID.TID 0000.0001)  cg2d: iter=    86 ; resid.=  3.18457066495664E-08
(PID.TID 0000.0001)  cg2d: iter=    87 ; resid.=  2.67168425792787E-08
(PID.TID 0000.0001)  cg2d: iter=    88 ; resid.=  2.12371443992820E-08
(PID.TID 0000.0001)  cg2d: iter=    89 ; resid.=  1.70450413691573E-08
(PID.TID 0000.0001)  cg2d: iter=    90 ; resid.=  1.29468759933158E-08
(PID.TID 0000.0001)  cg2d: iter=    91 ; resid.=  9.35949849651683E-09
(PID.TID 0000.0001)  cg2d: iter=    92 ; resid.=  6.99347625744431E-09
(PID.TID 0000.0001)  cg2d: iter=    93 ; resid.=  5.50735061300249E-09
(PID.TID 0000.0001)  cg2d: iter=    94 ; resid.=  4.23863567483577E-09
(PID.TID 0000.0001)  cg2d: iter=    95 ; resid.=  3.47248060159638E-09
(PID.TID 0000.0001)  cg2d: iter=    96 ; resid.=  2.54998847462852E-09
(PID.TID 0000.0001)  cg2d: iter=    97 ; resid.=  1.85973878846759E-09
(PID.TID 0000.0001)  cg2d: iter=    98 ; resid.=  1.37818560522159E-09
(PID.TID 0000.0001)  cg2d: iter=    99 ; resid.=  1.12593260830794E-09
(PID.TID 0000.0001)  cg2d: iter=   100 ; resid.=  9.27622465459739E-10
(PID.TID 0000.0001)  cg2d: iter=   101 ; resid.=  7.24843488413632E-10
(PID.TID 0000.0001)  cg2d: iter=   102 ; resid.=  5.44623112385867E-10
(PID.TID 0000.0001)  cg2d: iter=   103 ; resid.=  4.26554584010311E-10
(PID.TID 0000.0001)  cg2d: iter=   104 ; resid.=  3.38316452264456E-10
(PID.TID 0000.0001)  cg2d: iter=   105 ; resid.=  2.69273470897821E-10
(PID.TID 0000.0001)  cg2d: iter=   106 ; resid.=  2.43809791745055E-10
(PID.TID 0000.0001)  cg2d: iter=   107 ; resid.=  1.98415433290200E-10
(PID.TID 0000.0001)  cg2d: iter=   108 ; resid.=  1.66167992588457E-10
(PID.TID 0000.0001)  cg2d: iter=   109 ; resid.=  1.33603995534751E-10
(PID.TID 0000.0001)  cg2d: iter=   110 ; resid.=  1.15663409269688E-10
(PID.TID 0000.0001)  cg2d: iter=   111 ; resid.=  1.01056203736725E-10
(PID.TID 0000.0001)  cg2d: iter=   112 ; resid.=  7.59463732363343E-11
(PID.TID 0000.0001)  cg2d: iter=   113 ; resid.=  5.79140439166891E-11
(PID.TID 0000.0001)  cg2d: iter=   114 ; resid.=  4.74538029490380E-11
(PID.TID 0000.0001)  cg2d: iter=   115 ; resid.=  3.61952755447420E-11
(PID.TID 0000.0001)  cg2d: iter=   116 ; resid.=  2.82790744876524E-11
(PID.TID 0000.0001)  cg2d: iter=   117 ; resid.=  2.42993934772987E-11
(PID.TID 0000.0001)  cg2d: iter=   118 ; resid.=  2.03027070520870E-11
(PID.TID 0000.0001)  cg2d: iter=   119 ; resid.=  1.52030368419924E-11
(PID.TID 0000.0001)  cg2d: iter=   120 ; resid.=  1.11901224150799E-11
(PID.TID 0000.0001)  cg2d: iter=   121 ; resid.=  9.07800979248840E-12
(PID.TID 0000.0001)  cg2d: iter=   122 ; resid.=  6.71958645915582E-12
(PID.TID 0000.0001)  cg2d: iter=   123 ; resid.=  4.67847943854952E-12
(PID.TID 0000.0001)  cg2d: iter=   124 ; resid.=  3.12343800403509E-12
(PID.TID 0000.0001)  cg2d: iter=   125 ; resid.=  2.21871538313146E-12
(PID.TID 0000.0001)  cg2d: iter=   126 ; resid.=  1.60263900395405E-12
(PID.TID 0000.0001)  cg2d: iter=   127 ; resid.=  1.04783101808859E-12
(PID.TID 0000.0001)  cg2d: iter=   128 ; resid.=  7.38653597065009E-13
(PID.TID 0000.0001)  cg2d: iter=   129 ; resid.=  5.35921316871860E-13
(PID.TID 0000.0001)  cg2d: iter=   130 ; resid.=  4.06666424923284E-13
(PID.TID 0000.0001)  cg2d: iter=   131 ; resid.=  2.93546902500981E-13
(PID.TID 0000.0001)  cg2d: iter=   132 ; resid.=  2.13750870877101E-13
(PID.TID 0000.0001)  cg2d: iter=   133 ; resid.=  1.64354075415637E-13
(PID.TID 0000.0001)  cg2d: iter=   134 ; resid.=  1.27154340305051E-13
(PID.TID 0000.0001)  cg2d: iter=   135 ; resid.=  9.90977954625885E-14
DEBUG_STATS_RL:    cg2d_x (SOLVE_FOR_PRESSURE)  min= -1.78709145531024E+01
DEBUG_STATS_RL:    cg2d_x (SOLVE_FOR_PRESSURE)  max=  9.91867195534536E+00
DEBUG_STATS_RL:    cg2d_x (SOLVE_FOR_PRESSURE) mean= -1.70775805637695E+00
DEBUG_STATS_RL:    cg2d_x (SOLVE_FOR_PRESSURE) S.D.=  7.29432582323423E+00
(PID.TID 0000.0001)      cg2d_init_res =   4.73374972571542E-01
(PID.TID 0000.0001)      cg2d_iters(min,last) =      -1     135
(PID.TID 0000.0001)      cg2d_last_res =   9.90977954625885E-14
(PID.TID 0000.0001) // =======================================================
(PID.TID 0000.0001) // Begin MONITOR dynamic field statistics
(PID.TID 0000.0001) // =======================================================
(PID.TID 0000.0001) %MON time_tsnumber                =                    38
(PID.TID 0000.0001) %MON time_secondsf                =   3.2832000000000E+06
(PID.TID 0000.0001) %MON dynstat_eta_max              =   1.0110776712890E+00
(PID.TID 0000.0001) %MON dynstat_eta_min              =  -1.8217038280430E+00
(PID.TID 0000.0001) %MON dynstat_eta_mean             =  -2.8442616156531E-03
(PID.TID 0000.0001) %MON dynstat_eta_sd               =   6.7514999486981E-01
(PID.TID 0000.0001) %MON dynstat_eta_del2             =   2.2303049714921E-03
(PID.TID 0000.0001) %MON dynstat_uvel_max             =   1.4100870808557E-01
(PID.TID 0000.0001) %MON dynstat_uvel_min             =  -1.7010584975112E-01
(PID.TID 0000.0001) %MON dynstat_uvel_mean            =   2.0149555496697E-03
(PID.TID 0000.0001) %MON dynstat_uvel_sd              =   1.8469980480281E-02
(PID.TID 0000.0001) %MON dynstat_uvel_del2            =   9.6857051919845E-05
(PID.TID 0000.0001) %MON dynstat_vvel_max             =   1.6148564377080E-01
(PID.TID 0000.0001) %MON dynstat_vvel_min             =  -1.1436796621427E-01
(PID.TID 0000.0001) %MON dynstat_vvel_mean            =  -1.4018759965657E-04
(PID.TID 0000.0001) %MON dynstat_vvel_sd              =   1.0774094847724E-02
(PID.TID 0000.0001) %MON dynstat_vvel_del2            =   9.0626164864867E-05
(PID.TID 0000.0001) %MON dynstat_wvel_max             =   9.8725935418034E-05
(PID.TID 0000.0001) %MON dynstat_wvel_min             =  -1.1483875155747E-04
(PID.TID 0000.0001) %MON dynstat_wvel_mean            =  -1.4704861260467E-22
(PID.TID 0000.0001) %MON dynstat_wvel_sd              =   1.7348526246298E-05
(PID.TID 0000.0001) %MON dynstat_wvel_del2            =   1.8184113225233E-07
(PID.TID 0000.0001) %MON dynstat_theta_max            =   3.0157335560493E+01
(PID.TID 0000.0001) %MON dynstat_theta_min            =  -2.0024208530628E+00
(PID.TID 0000.0001) %MON dynstat_theta_mean           =   3.6416108940073E+00
(PID.TID 0000.0001) %MON dynstat_theta_sd             =   4.4186428057724E+00
(PID.TID 0000.0001) %MON dynstat_theta_del2           =   4.7774867301392E-03
(PID.TID 0000.0001) %MON dynstat_salt_max             =   3.7476180001054E+01
(PID.TID 0000.0001) %MON dynstat_salt_min             =   2.9837205170370E+01
(PID.TID 0000.0001) %MON dynstat_salt_mean            =   3.4738006016327E+01
(PID.TID 0000.0001) %MON dynstat_salt_sd              =   2.9634523612492E-01
(PID.TID 0000.0001) %MON dynstat_salt_del2            =   9.8854041666288E-04
(PID.TID 0000.0001) %MON dynstat_sst_max              =   3.0157335560493E+01
(PID.TID 0000.0001) %MON dynstat_sst_min              =  -2.0024208530628E+00
(PID.TID 0000.0001) %MON dynstat_sst_mean             =   1.8831458628643E+01
(PID.TID 0000.0001) %MON dynstat_sst_sd               =   9.0205723697374E+00
(PID.TID 0000.0001) %MON dynstat_sst_del2             =   2.6962581318872E-02
(PID.TID 0000.0001) %MON dynstat_sss_max              =   3.7450808981122E+01
(PID.TID 0000.0001) %MON dynstat_sss_min              =   2.9837205170370E+01
(PID.TID 0000.0001) %MON dynstat_sss_mean             =   3.4864466346347E+01
(PID.TID 0000.0001) %MON dynstat_sss_sd               =   9.7655076321847E-01
(PID.TID 0000.0001) %MON dynstat_sss_del2             =   7.8712168622680E-03
(PID.TID 0000.0001) %MON forcing_qnet_max             =   3.6928591512044E+02
(PID.TID 0000.0001) %MON forcing_qnet_min             =  -1.7475012308757E+02
(PID.TID 0000.0001) %MON forcing_qnet_mean            =  -1.4644524318170E+01
(PID.TID 0000.0001) %MON forcing_qnet_sd              =   8.7147670189845E+01
(PID.TID 0000.0001) %MON forcing_qnet_del2            =   9.5844621620671E-01
(PID.TID 0000.0001) %MON forcing_qsw_max              =   0.0000000000000E+00
(PID.TID 0000.0001) %MON forcing_qsw_min              =   0.0000000000000E+00
(PID.TID 0000.0001) %MON forcing_qsw_mean             =   0.0000000000000E+00
(PID.TID 0000.0001) %MON forcing_qsw_sd               =   0.0000000000000E+00
(PID.TID 0000.0001) %MON forcing_qsw_del2             =   0.0000000000000E+00
(PID.TID 0000.0001) %MON forcing_empmr_max            =   7.5264264864927E-05
(PID.TID 0000.0001) %MON forcing_empmr_min            =  -7.7908129962149E-05
(PID.TID 0000.0001) %MON forcing_empmr_mean           =   9.3794980182971E-07
(PID.TID 0000.0001) %MON forcing_empmr_sd             =   2.8038849309164E-05
(PID.TID 0000.0001) %MON forcing_empmr_del2           =   3.5380115394232E-07
(PID.TID 0000.0001) %MON forcing_fu_max               =   2.9353826045990E-01
(PID.TID 0000.0001) %MON forcing_fu_min               =  -2.0245296061039E-01
(PID.TID 0000.0001) %MON forcing_fu_mean              =   1.7196339892884E-02
(PID.TID 0000.0001) %MON forcing_fu_sd                =   9.0980570230984E-02
(PID.TID 0000.0001) %MON forcing_fu_del2              =   6.8955771745794E-04
(PID.TID 0000.0001) %MON forcing_fv_max               =   1.8468924562136E-01
(PID.TID 0000.0001) %MON forcing_fv_min               =  -1.7430406411489E-01
(PID.TID 0000.0001) %MON forcing_fv_mean              =  -6.6946376872389E-03
(PID.TID 0000.0001) %MON forcing_fv_sd                =   4.4529984647436E-02
(PID.TID 0000.0001) %MON forcing_fv_del2              =   4.8899636453518E-04
(PID.TID 0000.0001) %MON trAdv_CFL_u_max              =   4.5186709746906E-02
(PID.TID 0000.0001) %MON trAdv_CFL_v_max              =   3.2250460221853E-02
(PID.TID 0000.0001) %MON trAdv_CFL_w_max              =   6.2796802777040E-02
(PID.TID 0000.0001) %MON advcfl_uvel_max              =   4.6608400544913E-02
(PID.TID 0000.0001) %MON advcfl_vvel_max              =   3.1374070666315E-02
(PID.TID 0000.0001) %MON advcfl_wvel_max              =   4.7305434653900E-02
(PID.TID 0000.0001) %MON advcfl_W_hf_max              =   5.5752833699240E-02
(PID.TID 0000.0001) %MON pe_b_mean                    =   5.8329660026115E-04
(PID.TID 0000.0001) %MON ke_max                       =   1.6767122435754E-02
(PID.TID 0000.0001) %MON ke_mean                      =   2.0895241223727E-04
(PID.TID 0000.0001) %MON ke_vol                       =   1.3226782436723E+18
(PID.TID 0000.0001) %MON vort_r_min                   =  -4.2939071296918E-07
(PID.TID 0000.0001) %MON vort_r_max                   =   4.7911078089398E-07
(PID.TID 0000.0001) %MON vort_a_mean                  =  -2.5274806944142E-05
(PID.TID 0000.0001) %MON vort_a_sd                    =   7.3604614256746E-05
(PID.TID 0000.0001) %MON vort_p_mean                  =  -3.1845655228314E-05
(PID.TID 0000.0001) %MON vort_p_sd                    =   1.3162531012689E-04
(PID.TID 0000.0001) %MON surfExpan_theta_mean         =   6.5379823961885E-07
(PID.TID 0000.0001) %MON surfExpan_salt_mean          =  -1.7183527125849E-07
(PID.TID 0000.0001) // =======================================================
(PID.TID 0000.0001) // End MONITOR dynamic field statistics
(PID.TID 0000.0001) // =======================================================
 EXTERNAL_FIELDS_LOAD,        38 : iP,iLd,i0,i1=    1    2    1    2 ; Wght=  0.2333333333  0.7666666667
 EXTERNAL_FIELDS_LOAD: (fu0,1),fu,fv= -3.5633E-02 -1.4435E-02 -1.9381E-02 -2.6880E-02
 EXTERNAL_FIELDS_LOAD: SST,SSS,Q,E-P= -1.8412E-01  3.4490E+01  2.4638E+02  9.1377E-06
DEBUG_STATS_RL:          Uvel (THERMODYNAMICS)  min= -1.70105849751115E-01
DEBUG_STATS_RL:          Uvel (THERMODYNAMICS)  max=  1.41008708085570E-01
DEBUG_STATS_RL:          Uvel (THERMODYNAMICS) mean=  3.58660574488090E-03
DEBUG_STATS_RL:          Uvel (THERMODYNAMICS) S.D.=  2.62537830373570E-02
DEBUG_STATS_RL:          Vvel (THERMODYNAMICS)  min= -1.14367966214272E-01
DEBUG_STATS_RL:          Vvel (THERMODYNAMICS)  max=  1.61485643770797E-01
DEBUG_STATS_RL:          Vvel (THERMODYNAMICS) mean= -1.75384746129418E-04
DEBUG_STATS_RL:          Vvel (THERMODYNAMICS) S.D.=  1.54959244320255E-02
DEBUG_STATS_RL:          Wvel (THERMODYNAMICS)  min= -1.14838751557469E-04
DEBUG_STATS_RL:          Wvel (THERMODYNAMICS)  max=  9.87259354180336E-05
DEBUG_STATS_RL:          Wvel (THERMODYNAMICS) mean= -3.65079563878206E-07
DEBUG_STATS_RL:          Wvel (THERMODYNAMICS) S.D.=  1.52513487797293E-05
DEBUG_STATS_RL:         Theta (THERMODYNAMICS)  min= -2.00150537580832E+00
DEBUG_STATS_RL:         Theta (THERMODYNAMICS)  max=  3.01827834904504E+01
DEBUG_STATS_RL:         Theta (THERMODYNAMICS) mean=  3.23298354850606E+00
DEBUG_STATS_RL:         Theta (THERMODYNAMICS) S.D.=  5.86249949092989E+00
DEBUG_STATS_RL:          Salt (THERMODYNAMICS)  min=  2.00000000000000E-02
DEBUG_STATS_RL:          Salt (THERMODYNAMICS)  max=  3.74765846744198E+01
DEBUG_STATS_RL:          Salt (THERMODYNAMICS) mean=  1.88648437780123E+01
DEBUG_STATS_RL:          Salt (THERMODYNAMICS) S.D.=  1.73003642269802E+01
DEBUG_STATS_RL:         GtNm1 (THERMODYNAMICS)  min= -5.80029282915447E-06
DEBUG_STATS_RL:         GtNm1 (THERMODYNAMICS)  max=  3.48784874884109E-06
DEBUG_STATS_RL:         GtNm1 (THERMODYNAMICS) mean=  1.24569359994721E-08
DEBUG_STATS_RL:         GtNm1 (THERMODYNAMICS) S.D.=  2.12347956872646E-07
DEBUG_STATS_RL:         GsNm1 (THERMODYNAMICS)  min= -7.77954316464408E-07
DEBUG_STATS_RL:         GsNm1 (THERMODYNAMICS)  max=  5.20870563578017E-07
DEBUG_STATS_RL:         GsNm1 (THERMODYNAMICS) mean=  1.33368994460344E-11
DEBUG_STATS_RL:         GsNm1 (THERMODYNAMICS) S.D.=  1.95360687388581E-08
DEBUG_STATS_RL:                EtaN (DYNAMICS)  min= -1.82170382804304E+00
DEBUG_STATS_RL:                EtaN (DYNAMICS)  max=  1.01107767128904E+00
DEBUG_STATS_RL:                EtaN (DYNAMICS) mean= -1.74083390048619E-01
DEBUG_STATS_RL:                EtaN (DYNAMICS) S.D.=  7.43560226629381E-01
DEBUG_STATS_RL:                Uvel (DYNAMICS)  min= -1.70105849751115E-01
DEBUG_STATS_RL:                Uvel (DYNAMICS)  max=  1.41008708085570E-01
DEBUG_STATS_RL:                Uvel (DYNAMICS) mean=  3.58660574488090E-03
DEBUG_STATS_RL:                Uvel (DYNAMICS) S.D.=  2.62537830373570E-02
DEBUG_STATS_RL:                Vvel (DYNAMICS)  min= -1.14367966214272E-01
DEBUG_STATS_RL:                Vvel (DYNAMICS)  max=  1.61485643770797E-01
DEBUG_STATS_RL:                Vvel (DYNAMICS) mean= -1.75384746129418E-04
DEBUG_STATS_RL:                Vvel (DYNAMICS) S.D.=  1.54959244320255E-02
DEBUG_STATS_RL:                Wvel (DYNAMICS)  min= -1.14838751557469E-04
DEBUG_STATS_RL:                Wvel (DYNAMICS)  max=  9.87259354180336E-05
DEBUG_STATS_RL:                Wvel (DYNAMICS) mean= -3.65079563878206E-07
DEBUG_STATS_RL:                Wvel (DYNAMICS) S.D.=  1.52513487797293E-05
DEBUG_STATS_RL:               Theta (DYNAMICS)  min= -2.00150537580832E+00
DEBUG_STATS_RL:               Theta (DYNAMICS)  max=  3.01827834904504E+01
DEBUG_STATS_RL:               Theta (DYNAMICS) mean=  3.23298354850606E+00
DEBUG_STATS_RL:               Theta (DYNAMICS) S.D.=  5.86249949092989E+00
DEBUG_STATS_RL:                Salt (DYNAMICS)  min=  2.00000000000000E-02
DEBUG_STATS_RL:                Salt (DYNAMICS)  max=  3.74765846744198E+01
DEBUG_STATS_RL:                Salt (DYNAMICS) mean=  1.88648437780123E+01
DEBUG_STATS_RL:                Salt (DYNAMICS) S.D.=  1.73003642269802E+01
DEBUG_STATS_RL:                  Gu (DYNAMICS)  min= -1.67416311914993E-01
DEBUG_STATS_RL:                  Gu (DYNAMICS)  max=  1.44893842894223E-01
DEBUG_STATS_RL:                  Gu (DYNAMICS) mean=  3.25166932473506E-03
DEBUG_STATS_RL:                  Gu (DYNAMICS) S.D.=  2.69038327955480E-02
DEBUG_STATS_RL:                  Gv (DYNAMICS)  min= -1.10735540096808E-01
DEBUG_STATS_RL:                  Gv (DYNAMICS)  max=  1.64234612310059E-01
DEBUG_STATS_RL:                  Gv (DYNAMICS) mean=  2.22111374917028E-03
DEBUG_STATS_RL:                  Gv (DYNAMICS) S.D.=  1.55012014850944E-02
DEBUG_STATS_RL:               GuNm1 (DYNAMICS)  min= -9.02641977109450E-06
DEBUG_STATS_RL:               GuNm1 (DYNAMICS)  max=  8.31299278603994E-06
DEBUG_STATS_RL:               GuNm1 (DYNAMICS) mean= -1.98777148913012E-08
DEBUG_STATS_RL:               GuNm1 (DYNAMICS) S.D.=  1.17932541362576E-06
DEBUG_STATS_RL:               GvNm1 (DYNAMICS)  min= -1.05672893556337E-05
DEBUG_STATS_RL:               GvNm1 (DYNAMICS)  max=  1.63803415453161E-05
DEBUG_STATS_RL:               GvNm1 (DYNAMICS) mean=  7.48607310436088E-07
DEBUG_STATS_RL:               GvNm1 (DYNAMICS) S.D.=  2.61727500624074E-06
DEBUG_STATS_RL:               GtNm1 (DYNAMICS)  min= -5.80029282915447E-06
DEBUG_STATS_RL:               GtNm1 (DYNAMICS)  max=  3.48784874884109E-06
DEBUG_STATS_RL:               GtNm1 (DYNAMICS) mean=  1.24569359994721E-08
DEBUG_STATS_RL:               GtNm1 (DYNAMICS) S.D.=  2.12347956872646E-07
DEBUG_STATS_RL:               GsNm1 (DYNAMICS)  min= -7.77954316464408E-07
DEBUG_STATS_RL:               GsNm1 (DYNAMICS)  max=  5.20870563578017E-07
DEBUG_STATS_RL:               GsNm1 (DYNAMICS) mean=  1.33368994460344E-11
DEBUG_STATS_RL:               GsNm1 (DYNAMICS) S.D.=  1.95360687388581E-08
DEBUG_STATS_RL:    cg2d_b (SOLVE_FOR_PRESSURE)  min= -2.29009223857784E+04
DEBUG_STATS_RL:    cg2d_b (SOLVE_FOR_PRESSURE)  max=  1.69329827620077E+04
DEBUG_STATS_RL:    cg2d_b (SOLVE_FOR_PRESSURE) mean=  2.80111578928680E+00
DEBUG_STATS_RL:    cg2d_b (SOLVE_FOR_PRESSURE) S.D.=  3.78212584829697E+03
 cg2d: Sum(rhs),rhsMax =   2.83158160311751E-01  1.50419389781634E+00
(PID.TID 0000.0001)  cg2d: iter=     1 ; resid.=  2.57190261938228E-01
(PID.TID 0000.0001)  cg2d: iter=     2 ; resid.=  2.20115832238156E-01
(PID.TID 0000.0001)  cg2d: iter=     3 ; resid.=  2.17704542030559E-01
(PID.TID 0000.0001)  cg2d: iter=     4 ; resid.=  1.93773615381940E-01
(PID.TID 0000.0001)  cg2d: iter=     5 ; resid.=  1.73072872945497E-01
(PID.TID 0000.0001)  cg2d: iter=     6 ; resid.=  1.42572253277002E-01
(PID.TID 0000.0001)  cg2d: iter=     7 ; resid.=  1.19600601770045E-01
(PID.TID 0000.0001)  cg2d: iter=     8 ; resid.=  9.76455696616376E-02
(PID.TID 0000.0001)  cg2d: iter=     9 ; resid.=  8.19196286812414E-02
(PID.TID 0000.0001)  cg2d: iter=    10 ; resid.=  6.76978427059991E-02
(PID.TID 0000.0001)  cg2d: iter=    11 ; resid.=  6.13723460558613E-02
(PID.TID 0000.0001)  cg2d: iter=    12 ; resid.=  5.16205970744166E-02
(PID.TID 0000.0001)  cg2d: iter=    13 ; resid.=  4.01435719063582E-02
(PID.TID 0000.0001)  cg2d: iter=    14 ; resid.=  3.35285607906997E-02
(PID.TID 0000.0001)  cg2d: iter=    15 ; resid.=  2.68739543890774E-02
(PID.TID 0000.0001)  cg2d: iter=    16 ; resid.=  2.34252222509574E-02
(PID.TID 0000.0001)  cg2d: iter=    17 ; resid.=  1.98698975058889E-02
(PID.TID 0000.0001)  cg2d: iter=    18 ; resid.=  1.69672382420163E-02
(PID.TID 0000.0001)  cg2d: iter=    19 ; resid.=  1.32707347255528E-02
(PID.TID 0000.0001)  cg2d: iter=    20 ; resid.=  1.03940357109783E-02
(PID.TID 0000.0001)  cg2d: iter=    21 ; resid.=  8.52173355334345E-03
(PID.TID 0000.0001)  cg2d: iter=    22 ; resid.=  7.26270369827523E-03
(PID.TID 0000.0001)  cg2d: iter=    23 ; resid.=  6.23435254093886E-03
(PID.TID 0000.0001)  cg2d: iter=    24 ; resid.=  5.53716807135727E-03
(PID.TID 0000.0001)  cg2d: iter=    25 ; resid.=  4.29475113541407E-03
(PID.TID 0000.0001)  cg2d: iter=    26 ; resid.=  3.53572747429307E-03
(PID.TID 0000.0001)  cg2d: iter=    27 ; resid.=  2.89594567268668E-03
(PID.TID 0000.0001)  cg2d: iter=    28 ; resid.=  2.48706940188158E-03
(PID.TID 0000.0001)  cg2d: iter=    29 ; resid.=  2.04321910521388E-03
(PID.TID 0000.0001)  cg2d: iter=    30 ; resid.=  1.74725106281313E-03
(PID.TID 0000.0001)  cg2d: iter=    31 ; resid.=  1.37404499772591E-03
(PID.TID 0000.0001)  cg2d: iter=    32 ; resid.=  1.04878782585180E-03
(PID.TID 0000.0001)  cg2d: iter=    33 ; resid.=  8.92765137527424E-04
(PID.TID 0000.0001)  cg2d: iter=    34 ; resid.=  7.77634015893235E-04
(PID.TID 0000.0001)  cg2d: iter=    35 ; resid.=  6.25460621995845E-04
(PID.TID 0000.0001)  cg2d: iter=    36 ; resid.=  5.16254464134634E-04
(PID.TID 0000.0001)  cg2d: iter=    37 ; resid.=  4.20918617717982E-04
(PID.TID 0000.0001)  cg2d: iter=    38 ; resid.=  3.83016820461520E-04
(PID.TID 0000.0001)  cg2d: iter=    39 ; resid.=  3.45157283078192E-04
(PID.TID 0000.0001)  cg2d: iter=    40 ; resid.=  2.97620285609853E-04
(PID.TID 0000.0001)  cg2d: iter=    41 ; resid.=  2.63739173670659E-04
(PID.TID 0000.0001)  cg2d: iter=    42 ; resid.=  2.29558151512431E-04
(PID.TID 0000.0001)  cg2d: iter=    43 ; resid.=  1.92665059734603E-04
(PID.TID 0000.0001)  cg2d: iter=    44 ; resid.=  1.52327783086521E-04
(PID.TID 0000.0001)  cg2d: iter=    45 ; resid.=  1.16058471571800E-04
(PID.TID 0000.0001)  cg2d: iter=    46 ; resid.=  9.24951613576671E-05
(PID.TID 0000.0001)  cg2d: iter=    47 ; resid.=  8.26049805837471E-05
(PID.TID 0000.0001)  cg2d: iter=    48 ; resid.=  6.92906107729598E-05
(PID.TID 0000.0001)  cg2d: iter=    49 ; resid.=  5.81955829494989E-05
(PID.TID 0000.0001)  cg2d: iter=    50 ; resid.=  5.11719658999770E-05
(PID.TID 0000.0001)  cg2d: iter=    51 ; resid.=  4.24802542217562E-05
(PID.TID 0000.0001)  cg2d: iter=    52 ; resid.=  3.35516533249090E-05
(PID.TID 0000.0001)  cg2d: iter=    53 ; resid.=  2.82997299048499E-05
(PID.TID 0000.0001)  cg2d: iter=    54 ; resid.=  2.42895591279172E-05
(PID.TID 0000.0001)  cg2d: iter=    55 ; resid.=  2.09791808284237E-05
(PID.TID 0000.0001)  cg2d: iter=    56 ; resid.=  1.67301731938976E-05
(PID.TID 0000.0001)  cg2d: iter=    57 ; resid.=  1.34509170883854E-05
(PID.TID 0000.0001)  cg2d: iter=    58 ; resid.=  1.08365246182492E-05
(PID.TID 0000.0001)  cg2d: iter=    59 ; resid.=  9.13972194851888E-06
(PID.TID 0000.0001)  cg2d: iter=    60 ; resid.=  7.43117852218527E-06
(PID.TID 0000.0001)  cg2d: iter=    61 ; resid.=  6.33825020452328E-06
(PID.TID 0000.0001)  cg2d: iter=    62 ; resid.=  5.49123803735037E-06
(PID.TID 0000.0001)  cg2d: iter=    63 ; resid.=  4.63230784618328E-06
(PID.TID 0000.0001)  cg2d: iter=    64 ; resid.=  3.73959310982104E-06
(PID.TID 0000.0001)  cg2d: iter=    65 ; resid.=  3.09998046724240E-06
(PID.TID 0000.0001)  cg2d: iter=    66 ; resid.=  2.70777626432763E-06
(PID.TID 0000.0001)  cg2d: iter=    67 ; resid.=  2.25985976356383E-06
(PID.TID 0000.0001)  cg2d: iter=    68 ; resid.=  1.81855607320855E-06
(PID.TID 0000.0001)  cg2d: iter=    69 ; resid.=  1.33866880598902E-06
(PID.TID 0000.0001)  cg2d: iter=    70 ; resid.=  1.06033279006219E-06
(PID.TID 0000.0001)  cg2d: iter=    71 ; resid.=  9.26636244352488E-07
(PID.TID 0000.0001)  cg2d: iter=    72 ; resid.=  8.30313914668028E-07
(PID.TID 0000.0001)  cg2d: iter=    73 ; resid.=  7.38420341416956E-07
(PID.TID 0000.0001)  cg2d: iter=    74 ; resid.=  6.18852736184539E-07
(PID.TID 0000.0001)  cg2d: iter=    75 ; resid.=  4.93569777318137E-07
(PID.TID 0000.0001)  cg2d: iter=    76 ; resid.=  4.24745228479504E-07
(PID.TID 0000.0001)  cg2d: iter=    77 ; resid.=  3.50390710556915E-07
(PID.TID 0000.0001)  cg2d: iter=    78 ; resid.=  2.86342895072017E-07
(PID.TID 0000.0001)  cg2d: iter=    79 ; resid.=  2.21649296953104E-07
(PID.TID 0000.0001)  cg2d: iter=    80 ; resid.=  1.66949792757211E-07
(PID.TID 0000.0001)  cg2d: iter=    81 ; resid.=  1.27880773809258E-07
(PID.TID 0000.0001)  cg2d: iter=    82 ; resid.=  9.72158016797724E-08
(PID.TID 0000.0001)  cg2d: iter=    83 ; resid.=  6.89259967029478E-08
(PID.TID 0000.0001)  cg2d: iter=    84 ; resid.=  5.33555567005124E-08
(PID.TID 0000.0001)  cg2d: iter=    85 ; resid.=  3.97140081567477E-08
(PID.TID 0000.0001)  cg2d: iter=    86 ; resid.=  3.19768313334162E-08
(PID.TID 0000.0001)  cg2d: iter=    87 ; resid.=  2.63787451715406E-08
(PID.TID 0000.0001)  cg2d: iter=    88 ; resid.=  2.09982721972568E-08
(PID.TID 0000.0001)  cg2d: iter=    89 ; resid.=  1.69215322335733E-08
(PID.TID 0000.0001)  cg2d: iter=    90 ; resid.=  1.27406816636983E-08
(PID.TID 0000.0001)  cg2d: iter=    91 ; resid.=  9.27683353066163E-09
(PID.TID 0000.0001)  cg2d: iter=    92 ; resid.=  6.90126890518500E-09
(PID.TID 0000.0001)  cg2d: iter=    93 ; resid.=  5.34476995785519E-09
(PID.TID 0000.0001)  cg2d: iter=    94 ; resid.=  4.03952433167348E-09
(PID.TID 0000.0001)  cg2d: iter=    95 ; resid.=  3.25150876796867E-09
(PID.TID 0000.0001)  cg2d: iter=    96 ; resid.=  2.39159935031199E-09
(PID.TID 0000.0001)  cg2d: iter=    97 ; resid.=  1.75009277262855E-09
(PID.TID 0000.0001)  cg2d: iter=    98 ; resid.=  1.28778575324195E-09
(PID.TID 0000.0001)  cg2d: iter=    99 ; resid.=  1.04775184705897E-09
(PID.TID 0000.0001)  cg2d: iter=   100 ; resid.=  8.76586893388875E-10
(PID.TID 0000.0001)  cg2d: iter=   101 ; resid.=  6.79347197521474E-10
(PID.TID 0000.0001)  cg2d: iter=   102 ; resid.=  5.04947677604704E-10
(PID.TID 0000.0001)  cg2d: iter=   103 ; resid.=  4.00118414157192E-10
(PID.TID 0000.0001)  cg2d: iter=   104 ; resid.=  3.11519628716141E-10
(PID.TID 0000.0001)  cg2d: iter=   105 ; resid.=  2.37438819766252E-10
(PID.TID 0000.0001)  cg2d: iter=   106 ; resid.=  2.04007224881690E-10
(PID.TID 0000.0001)  cg2d: iter=   107 ; resid.=  1.59788853836179E-10
(PID.TID 0000.0001)  cg2d: iter=   108 ; resid.=  1.31794122859461E-10
(PID.TID 0000.0001)  cg2d: iter=   109 ; resid.=  1.06217802918862E-10
(PID.TID 0000.0001)  cg2d: iter=   110 ; resid.=  9.39651340338353E-11
(PID.TID 0000.0001)  cg2d: iter=   111 ; resid.=  8.49998786197643E-11
(PID.TID 0000.0001)  cg2d: iter=   112 ; resid.=  6.57730053956092E-11
(PID.TID 0000.0001)  cg2d: iter=   113 ; resid.=  5.13187827003579E-11
(PID.TID 0000.0001)  cg2d: iter=   114 ; resid.=  4.28205606749713E-11
(PID.TID 0000.0001)  cg2d: iter=   115 ; resid.=  3.33362153032116E-11
(PID.TID 0000.0001)  cg2d: iter=   116 ; resid.=  2.64061150381499E-11
(PID.TID 0000.0001)  cg2d: iter=   117 ; resid.=  2.26058450036272E-11
(PID.TID 0000.0001)  cg2d: iter=   118 ; resid.=  1.90285114979998E-11
(PID.TID 0000.0001)  cg2d: iter=   119 ; resid.=  1.45644811579989E-11
(PID.TID 0000.0001)  cg2d: iter=   120 ; resid.=  1.07830138240349E-11
(PID.TID 0000.0001)  cg2d: iter=   121 ; resid.=  8.67948212875370E-12
(PID.TID 0000.0001)  cg2d: iter=   122 ; resid.=  6.55451246026605E-12
(PID.TID 0000.0001)  cg2d: iter=   123 ; resid.=  4.57713828880073E-12
(PID.TID 0000.0001)  cg2d: iter=   124 ; resid.=  3.02793201923204E-12
(PID.TID 0000.0001)  cg2d: iter=   125 ; resid.=  2.12127712307080E-12
(PID.TID 0000.0001)  cg2d: iter=   126 ; resid.=  1.56427381469548E-12
(PID.TID 0000.0001)  cg2d: iter=   127 ; resid.=  1.04540630034256E-12
(PID.TID 0000.0001)  cg2d: iter=   128 ; resid.=  7.44741981422559E-13
(PID.TID 0000.0001)  cg2d: iter=   129 ; resid.=  5.45920887549198E-13
(PID.TID 0000.0001)  cg2d: iter=   130 ; resid.=  4.20062571755541E-13
(PID.TID 0000.0001)  cg2d: iter=   131 ; resid.=  3.06333780201750E-13
(PID.TID 0000.0001)  cg2d: iter=   132 ; resid.=  2.24663132287056E-13
(PID.TID 0000.0001)  cg2d: iter=   133 ; resid.=  1.74049656719624E-13
(PID.TID 0000.0001)  cg2d: iter=   134 ; resid.=  1.35743897184326E-13
(PID.TID 0000.0001)  cg2d: iter=   135 ; resid.=  1.07911210029278E-13
(PID.TID 0000.0001)  cg2d: iter=   136 ; resid.=  7.50997567735313E-14
DEBUG_STATS_RL:    cg2d_x (SOLVE_FOR_PRESSURE)  min= -1.78666055795254E+01
DEBUG_STATS_RL:    cg2d_x (SOLVE_FOR_PRESSURE)  max=  1.01972977270121E+01
DEBUG_STATS_RL:    cg2d_x (SOLVE_FOR_PRESSURE) mean= -1.74496709427307E+00
DEBUG_STATS_RL:    cg2d_x (SOLVE_FOR_PRESSURE) S.D.=  7.49707231698842E+00
(PID.TID 0000.0001)      cg2d_init_res =   4.49364662463884E-01
(PID.TID 0000.0001)      cg2d_iters(min,last) =      -1     136
(PID.TID 0000.0001)      cg2d_last_res =   7.50997567735313E-14
(PID.TID 0000.0001) // =======================================================
(PID.TID 0000.0001) // Begin MONITOR dynamic field statistics
(PID.TID 0000.0001) // =======================================================
(PID.TID 0000.0001) %MON time_tsnumber                =                    39
(PID.TID 0000.0001) %MON time_secondsf                =   3.3696000000000E+06
(PID.TID 0000.0001) %MON dynstat_eta_max              =   1.0394798906230E+00
(PID.TID 0000.0001) %MON dynstat_eta_min              =  -1.8212645850688E+00
(PID.TID 0000.0001) %MON dynstat_eta_mean             =  -2.9226169992294E-03
(PID.TID 0000.0001) %MON dynstat_eta_sd               =   6.9532800935751E-01
(PID.TID 0000.0001) %MON dynstat_eta_del2             =   2.2360779822382E-03
(PID.TID 0000.0001) %MON dynstat_uvel_max             =   1.4390534410364E-01
(PID.TID 0000.0001) %MON dynstat_uvel_min             =  -1.6661839507594E-01
(PID.TID 0000.0001) %MON dynstat_uvel_mean            =   1.7210218486017E-03
(PID.TID 0000.0001) %MON dynstat_uvel_sd              =   1.8519054559058E-02
(PID.TID 0000.0001) %MON dynstat_uvel_del2            =   9.8579787006074E-05
(PID.TID 0000.0001) %MON dynstat_vvel_max             =   1.6209695733301E-01
(PID.TID 0000.0001) %MON dynstat_vvel_min             =  -1.1515239772050E-01
(PID.TID 0000.0001) %MON dynstat_vvel_mean            =  -1.1156695862991E-04
(PID.TID 0000.0001) %MON dynstat_vvel_sd              =   1.0798771380881E-02
(PID.TID 0000.0001) %MON dynstat_vvel_del2            =   9.0469898165282E-05
(PID.TID 0000.0001) %MON dynstat_wvel_max             =   9.0766612810112E-05
(PID.TID 0000.0001) %MON dynstat_wvel_min             =  -1.3112689884299E-04
(PID.TID 0000.0001) %MON dynstat_wvel_mean            =   1.4012166189392E-22
(PID.TID 0000.0001) %MON dynstat_wvel_sd              =   1.7270661368039E-05
(PID.TID 0000.0001) %MON dynstat_wvel_del2            =   1.7830235388251E-07
(PID.TID 0000.0001) %MON dynstat_theta_max            =   3.0182783490450E+01
(PID.TID 0000.0001) %MON dynstat_theta_min            =  -2.0015053758083E+00
(PID.TID 0000.0001) %MON dynstat_theta_mean           =   3.6416783304047E+00
(PID.TID 0000.0001) %MON dynstat_theta_sd             =   4.4188263377621E+00
(PID.TID 0000.0001) %MON dynstat_theta_del2           =   4.7676525750020E-03
(PID.TID 0000.0001) %MON dynstat_salt_max             =   3.7476584674420E+01
(PID.TID 0000.0001) %MON dynstat_salt_min             =   2.9837460262717E+01
(PID.TID 0000.0001) %MON dynstat_salt_mean            =   3.4738010451506E+01
(PID.TID 0000.0001) %MON dynstat_salt_sd              =   2.9635988615648E-01
(PID.TID 0000.0001) %MON dynstat_salt_del2            =   9.8782523020529E-04
(PID.TID 0000.0001) %MON dynstat_sst_max              =   3.0182783490450E+01
(PID.TID 0000.0001) %MON dynstat_sst_min              =  -2.0015053758083E+00
(PID.TID 0000.0001) %MON dynstat_sst_mean             =   1.8842476200737E+01
(PID.TID 0000.0001) %MON dynstat_sst_sd               =   9.0174300513950E+00
(PID.TID 0000.0001) %MON dynstat_sst_del2             =   2.6997963752365E-02
(PID.TID 0000.0001) %MON dynstat_sss_max              =   3.7450508525837E+01
(PID.TID 0000.0001) %MON dynstat_sss_min              =   2.9837460262717E+01
(PID.TID 0000.0001) %MON dynstat_sss_mean             =   3.4864446796259E+01
(PID.TID 0000.0001) %MON dynstat_sss_sd               =   9.7667464122728E-01
(PID.TID 0000.0001) %MON dynstat_sss_del2             =   7.8718655281173E-03
(PID.TID 0000.0001) %MON forcing_qnet_max             =   3.6793170572917E+02
(PID.TID 0000.0001) %MON forcing_qnet_min             =  -1.7451060384115E+02
(PID.TID 0000.0001) %MON forcing_qnet_mean            =  -1.4559615150767E+01
(PID.TID 0000.0001) %MON forcing_qnet_sd              =   8.6177901833202E+01
(PID.TID 0000.0001) %MON forcing_qnet_del2            =   9.5684138500013E-01
(PID.TID 0000.0001) %MON forcing_qsw_max              =   0.0000000000000E+00
(PID.TID 0000.0001) %MON forcing_qsw_min              =   0.0000000000000E+00
(PID.TID 0000.0001) %MON forcing_qsw_mean             =   0.0000000000000E+00
(PID.TID 0000.0001) %MON forcing_qsw_sd               =   0.0000000000000E+00
(PID.TID 0000.0001) %MON forcing_qsw_del2             =   0.0000000000000E+00
(PID.TID 0000.0001) %MON forcing_empmr_max            =   7.4950175132926E-05
(PID.TID 0000.0001) %MON forcing_empmr_min            =  -7.7987774223705E-05
(PID.TID 0000.0001) %MON forcing_empmr_mean           =   9.3863219908967E-07
(PID.TID 0000.0001) %MON forcing_empmr_sd             =   2.8025183724210E-05
(PID.TID 0000.0001) %MON forcing_empmr_del2           =   3.5387045439018E-07
(PID.TID 0000.0001) %MON forcing_fu_max               =   2.9492541849613E-01
(PID.TID 0000.0001) %MON forcing_fu_min               =  -2.0411288440228E-01
(PID.TID 0000.0001) %MON forcing_fu_mean              =   1.7250640108353E-02
(PID.TID 0000.0001) %MON forcing_fu_sd                =   9.1176576117499E-02
(PID.TID 0000.0001) %MON forcing_fu_del2              =   6.9491420823166E-04
(PID.TID 0000.0001) %MON forcing_fv_max               =   1.8680121054252E-01
(PID.TID 0000.0001) %MON forcing_fv_min               =  -1.7747596303622E-01
(PID.TID 0000.0001) %MON forcing_fv_mean              =  -6.7598985939541E-03
(PID.TID 0000.0001) %MON forcing_fv_sd                =   4.4539193201071E-02
(PID.TID 0000.0001) %MON forcing_fv_del2              =   4.9416249691419E-04
(PID.TID 0000.0001) %MON trAdv_CFL_u_max              =   4.6617867044412E-02
(PID.TID 0000.0001) %MON trAdv_CFL_v_max              =   3.2868687563222E-02
(PID.TID 0000.0001) %MON trAdv_CFL_w_max              =   5.5752833699240E-02
(PID.TID 0000.0001) %MON advcfl_uvel_max              =   4.7565841922798E-02
(PID.TID 0000.0001) %MON advcfl_vvel_max              =   3.1492839087163E-02
(PID.TID 0000.0001) %MON advcfl_wvel_max              =   4.0413268428574E-02
(PID.TID 0000.0001) %MON advcfl_W_hf_max              =   4.7629923505105E-02
(PID.TID 0000.0001) %MON pe_b_mean                    =   6.1868319690449E-04
(PID.TID 0000.0001) %MON ke_max                       =   1.6596547289493E-02
(PID.TID 0000.0001) %MON ke_mean                      =   2.0951394697060E-04
(PID.TID 0000.0001) %MON ke_vol                       =   1.3226782436723E+18
(PID.TID 0000.0001) %MON vort_r_min                   =  -4.4387392197399E-07
(PID.TID 0000.0001) %MON vort_r_max                   =   4.8017195919346E-07
(PID.TID 0000.0001) %MON vort_a_mean                  =  -2.5274806774469E-05
(PID.TID 0000.0001) %MON vort_a_sd                    =   7.3604575013991E-05
(PID.TID 0000.0001) %MON vort_p_mean                  =  -3.1845655014529E-05
(PID.TID 0000.0001) %MON vort_p_sd                    =   1.3162493209287E-04
(PID.TID 0000.0001) %MON surfExpan_theta_mean         =   6.0653846448480E-07
(PID.TID 0000.0001) %MON surfExpan_salt_mean          =  -1.3551010903490E-07
(PID.TID 0000.0001) // =======================================================
(PID.TID 0000.0001) // End MONITOR dynamic field statistics
(PID.TID 0000.0001) // =======================================================
 EXTERNAL_FIELDS_LOAD,        39 : iP,iLd,i0,i1=    1    2    1    2 ; Wght=  0.2000000000  0.8000000000
 EXTERNAL_FIELDS_LOAD: (fu0,1),fu,fv= -3.5633E-02 -1.4435E-02 -1.8674E-02 -2.5560E-02
 EXTERNAL_FIELDS_LOAD: SST,SSS,Q,E-P= -2.3380E-01  3.4480E+01  2.4554E+02  9.0291E-06
DEBUG_STATS_RL:          Uvel (THERMODYNAMICS)  min= -1.66618395075937E-01
DEBUG_STATS_RL:          Uvel (THERMODYNAMICS)  max=  1.43905344103645E-01
DEBUG_STATS_RL:          Uvel (THERMODYNAMICS) mean=  3.36789008747464E-03
DEBUG_STATS_RL:          Uvel (THERMODYNAMICS) S.D.=  2.64632105712542E-02
DEBUG_STATS_RL:          Vvel (THERMODYNAMICS)  min= -1.15152397720502E-01
DEBUG_STATS_RL:          Vvel (THERMODYNAMICS)  max=  1.62096957333013E-01
DEBUG_STATS_RL:          Vvel (THERMODYNAMICS) mean= -4.08540842016109E-05
DEBUG_STATS_RL:          Vvel (THERMODYNAMICS) S.D.=  1.56174367274640E-02
DEBUG_STATS_RL:          Wvel (THERMODYNAMICS)  min= -1.31126898842986E-04
DEBUG_STATS_RL:          Wvel (THERMODYNAMICS)  max=  9.07666128101118E-05
DEBUG_STATS_RL:          Wvel (THERMODYNAMICS) mean= -3.51347071529342E-07
DEBUG_STATS_RL:          Wvel (THERMODYNAMICS) S.D.=  1.50991546710925E-05
DEBUG_STATS_RL:         Theta (THERMODYNAMICS)  min= -2.00048357865310E+00
DEBUG_STATS_RL:         Theta (THERMODYNAMICS)  max=  3.02082892150279E+01
DEBUG_STATS_RL:         Theta (THERMODYNAMICS) mean=  3.23355896836833E+00
DEBUG_STATS_RL:         Theta (THERMODYNAMICS) S.D.=  5.86323014099567E+00
DEBUG_STATS_RL:          Salt (THERMODYNAMICS)  min=  2.00000000000000E-02
DEBUG_STATS_RL:          Salt (THERMODYNAMICS)  max=  3.74769589590836E+01
DEBUG_STATS_RL:          Salt (THERMODYNAMICS) mean=  1.88648514517569E+01
DEBUG_STATS_RL:          Salt (THERMODYNAMICS) S.D.=  1.73003720185920E+01
DEBUG_STATS_RL:         GtNm1 (THERMODYNAMICS)  min= -3.52732988440742E-06
DEBUG_STATS_RL:         GtNm1 (THERMODYNAMICS)  max=  2.56950189661422E-06
DEBUG_STATS_RL:         GtNm1 (THERMODYNAMICS) mean=  1.25850233594639E-08
DEBUG_STATS_RL:         GtNm1 (THERMODYNAMICS) S.D.=  2.09798617783099E-07
DEBUG_STATS_RL:         GsNm1 (THERMODYNAMICS)  min= -4.42020193273791E-07
DEBUG_STATS_RL:         GsNm1 (THERMODYNAMICS)  max=  3.21601087116675E-07
DEBUG_STATS_RL:         GsNm1 (THERMODYNAMICS) mean=  8.58430194936679E-11
DEBUG_STATS_RL:         GsNm1 (THERMODYNAMICS) S.D.=  1.92061515310008E-08
DEBUG_STATS_RL:                EtaN (DYNAMICS)  min= -1.82126458506879E+00
DEBUG_STATS_RL:                EtaN (DYNAMICS)  max=  1.03947989062301E+00
DEBUG_STATS_RL:                EtaN (DYNAMICS) mean= -1.77876360272484E-01
DEBUG_STATS_RL:                EtaN (DYNAMICS) S.D.=  7.64227555248568E-01
DEBUG_STATS_RL:                Uvel (DYNAMICS)  min= -1.66618395075937E-01
DEBUG_STATS_RL:                Uvel (DYNAMICS)  max=  1.43905344103645E-01
DEBUG_STATS_RL:                Uvel (DYNAMICS) mean=  3.36789008747464E-03
DEBUG_STATS_RL:                Uvel (DYNAMICS) S.D.=  2.64632105712542E-02
DEBUG_STATS_RL:                Vvel (DYNAMICS)  min= -1.15152397720502E-01
DEBUG_STATS_RL:                Vvel (DYNAMICS)  max=  1.62096957333013E-01
DEBUG_STATS_RL:                Vvel (DYNAMICS) mean= -4.08540842016109E-05
DEBUG_STATS_RL:                Vvel (DYNAMICS) S.D.=  1.56174367274640E-02
DEBUG_STATS_RL:                Wvel (DYNAMICS)  min= -1.31126898842986E-04
DEBUG_STATS_RL:                Wvel (DYNAMICS)  max=  9.07666128101118E-05
DEBUG_STATS_RL:                Wvel (DYNAMICS) mean= -3.51347071529342E-07
DEBUG_STATS_RL:                Wvel (DYNAMICS) S.D.=  1.50991546710925E-05
DEBUG_STATS_RL:               Theta (DYNAMICS)  min= -2.00048357865310E+00
DEBUG_STATS_RL:               Theta (DYNAMICS)  max=  3.02082892150279E+01
DEBUG_STATS_RL:               Theta (DYNAMICS) mean=  3.23355896836833E+00
DEBUG_STATS_RL:               Theta (DYNAMICS) S.D.=  5.86323014099567E+00
DEBUG_STATS_RL:                Salt (DYNAMICS)  min=  2.00000000000000E-02
DEBUG_STATS_RL:                Salt (DYNAMICS)  max=  3.74769589590836E+01
DEBUG_STATS_RL:                Salt (DYNAMICS) mean=  1.88648514517569E+01
DEBUG_STATS_RL:                Salt (DYNAMICS) S.D.=  1.73003720185920E+01
DEBUG_STATS_RL:                  Gu (DYNAMICS)  min= -1.63414495788249E-01
DEBUG_STATS_RL:                  Gu (DYNAMICS)  max=  1.48929262768061E-01
DEBUG_STATS_RL:                  Gu (DYNAMICS) mean=  3.01671327352515E-03
DEBUG_STATS_RL:                  Gu (DYNAMICS) S.D.=  2.70626668540298E-02
DEBUG_STATS_RL:                  Gv (DYNAMICS)  min= -1.11334271243001E-01
DEBUG_STATS_RL:                  Gv (DYNAMICS)  max=  1.62386558167746E-01
DEBUG_STATS_RL:                  Gv (DYNAMICS) mean=  2.34594724690492E-03
DEBUG_STATS_RL:                  Gv (DYNAMICS) S.D.=  1.56543864141851E-02
DEBUG_STATS_RL:               GuNm1 (DYNAMICS)  min= -9.10757273503480E-06
DEBUG_STATS_RL:               GuNm1 (DYNAMICS)  max=  8.38096731801058E-06
DEBUG_STATS_RL:               GuNm1 (DYNAMICS) mean= -1.87157595841479E-08
DEBUG_STATS_RL:               GuNm1 (DYNAMICS) S.D.=  1.17694198279303E-06
DEBUG_STATS_RL:               GvNm1 (DYNAMICS)  min= -1.04557693297387E-05
DEBUG_STATS_RL:               GvNm1 (DYNAMICS)  max=  1.63669926569527E-05
DEBUG_STATS_RL:               GvNm1 (DYNAMICS) mean=  7.47206982614108E-07
DEBUG_STATS_RL:               GvNm1 (DYNAMICS) S.D.=  2.61101837587928E-06
DEBUG_STATS_RL:               GtNm1 (DYNAMICS)  min= -3.52732988440742E-06
DEBUG_STATS_RL:               GtNm1 (DYNAMICS)  max=  2.56950189661422E-06
DEBUG_STATS_RL:               GtNm1 (DYNAMICS) mean=  1.25850233594639E-08
DEBUG_STATS_RL:               GtNm1 (DYNAMICS) S.D.=  2.09798617783099E-07
DEBUG_STATS_RL:               GsNm1 (DYNAMICS)  min= -4.42020193273791E-07
DEBUG_STATS_RL:               GsNm1 (DYNAMICS)  max=  3.21601087116675E-07
DEBUG_STATS_RL:               GsNm1 (DYNAMICS) mean=  8.58430194936679E-11
DEBUG_STATS_RL:               GsNm1 (DYNAMICS) S.D.=  1.92061515310008E-08
DEBUG_STATS_RL:    cg2d_b (SOLVE_FOR_PRESSURE)  min= -2.37188397171124E+04
DEBUG_STATS_RL:    cg2d_b (SOLVE_FOR_PRESSURE)  max=  1.67136747280282E+04
DEBUG_STATS_RL:    cg2d_b (SOLVE_FOR_PRESSURE) mean=  2.87626832164827E+00
DEBUG_STATS_RL:    cg2d_b (SOLVE_FOR_PRESSURE) S.D.=  3.76783553174437E+03
 cg2d: Sum(rhs),rhsMax =   2.80728789604836E-01  1.55791689805125E+00
(PID.TID 0000.0001)  cg2d: iter=     1 ; resid.=  2.39893454026172E-01
(PID.TID 0000.0001)  cg2d: iter=     2 ; resid.=  2.02013766759279E-01
(PID.TID 0000.0001)  cg2d: iter=     3 ; resid.=  1.98743690072518E-01
(PID.TID 0000.0001)  cg2d: iter=     4 ; resid.=  1.73363657746181E-01
(PID.TID 0000.0001)  cg2d: iter=     5 ; resid.=  1.48478677049609E-01
(PID.TID 0000.0001)  cg2d: iter=     6 ; resid.=  1.20726587336150E-01
(PID.TID 0000.0001)  cg2d: iter=     7 ; resid.=  1.00606875797214E-01
(PID.TID 0000.0001)  cg2d: iter=     8 ; resid.=  8.42330768382277E-02
(PID.TID 0000.0001)  cg2d: iter=     9 ; resid.=  7.19738989004669E-02
(PID.TID 0000.0001)  cg2d: iter=    10 ; resid.=  5.94182191666232E-02
(PID.TID 0000.0001)  cg2d: iter=    11 ; resid.=  5.39867162989956E-02
(PID.TID 0000.0001)  cg2d: iter=    12 ; resid.=  4.60830659998421E-02
(PID.TID 0000.0001)  cg2d: iter=    13 ; resid.=  3.58668002801634E-02
(PID.TID 0000.0001)  cg2d: iter=    14 ; resid.=  2.98620458583406E-02
(PID.TID 0000.0001)  cg2d: iter=    15 ; resid.=  2.43062941759529E-02
(PID.TID 0000.0001)  cg2d: iter=    16 ; resid.=  2.09748966738169E-02
(PID.TID 0000.0001)  cg2d: iter=    17 ; resid.=  1.76150073584209E-02
(PID.TID 0000.0001)  cg2d: iter=    18 ; resid.=  1.47769486303227E-02
(PID.TID 0000.0001)  cg2d: iter=    19 ; resid.=  1.17563714756357E-02
(PID.TID 0000.0001)  cg2d: iter=    20 ; resid.=  9.20577632166979E-03
(PID.TID 0000.0001)  cg2d: iter=    21 ; resid.=  7.52779140471545E-03
(PID.TID 0000.0001)  cg2d: iter=    22 ; resid.=  6.32010348055140E-03
(PID.TID 0000.0001)  cg2d: iter=    23 ; resid.=  5.32656703976997E-03
(PID.TID 0000.0001)  cg2d: iter=    24 ; resid.=  4.62450158622020E-03
(PID.TID 0000.0001)  cg2d: iter=    25 ; resid.=  3.62655233496550E-03
(PID.TID 0000.0001)  cg2d: iter=    26 ; resid.=  3.00895014272803E-03
(PID.TID 0000.0001)  cg2d: iter=    27 ; resid.=  2.53233164953321E-03
(PID.TID 0000.0001)  cg2d: iter=    28 ; resid.=  2.22930951473205E-03
(PID.TID 0000.0001)  cg2d: iter=    29 ; resid.=  1.88455383625988E-03
(PID.TID 0000.0001)  cg2d: iter=    30 ; resid.=  1.61081457933068E-03
(PID.TID 0000.0001)  cg2d: iter=    31 ; resid.=  1.25934185017160E-03
(PID.TID 0000.0001)  cg2d: iter=    32 ; resid.=  9.45995756164100E-04
(PID.TID 0000.0001)  cg2d: iter=    33 ; resid.=  8.02583693563101E-04
(PID.TID 0000.0001)  cg2d: iter=    34 ; resid.=  7.05619743127001E-04
(PID.TID 0000.0001)  cg2d: iter=    35 ; resid.=  5.57728481811892E-04
(PID.TID 0000.0001)  cg2d: iter=    36 ; resid.=  4.43284519984016E-04
(PID.TID 0000.0001)  cg2d: iter=    37 ; resid.=  3.48269983524161E-04
(PID.TID 0000.0001)  cg2d: iter=    38 ; resid.=  3.08178069193686E-04
(PID.TID 0000.0001)  cg2d: iter=    39 ; resid.=  2.76100392157322E-04
(PID.TID 0000.0001)  cg2d: iter=    40 ; resid.=  2.40349486113546E-04
(PID.TID 0000.0001)  cg2d: iter=    41 ; resid.=  2.15311373186364E-04
(PID.TID 0000.0001)  cg2d: iter=    42 ; resid.=  1.90287724573404E-04
(PID.TID 0000.0001)  cg2d: iter=    43 ; resid.=  1.63769568249274E-04
(PID.TID 0000.0001)  cg2d: iter=    44 ; resid.=  1.31093939077115E-04
(PID.TID 0000.0001)  cg2d: iter=    45 ; resid.=  1.01220262823848E-04
(PID.TID 0000.0001)  cg2d: iter=    46 ; resid.=  8.07686146860984E-05
(PID.TID 0000.0001)  cg2d: iter=    47 ; resid.=  7.29665014255189E-05
(PID.TID 0000.0001)  cg2d: iter=    48 ; resid.=  6.20735039768221E-05
(PID.TID 0000.0001)  cg2d: iter=    49 ; resid.=  5.16483905859200E-05
(PID.TID 0000.0001)  cg2d: iter=    50 ; resid.=  4.47277596212128E-05
(PID.TID 0000.0001)  cg2d: iter=    51 ; resid.=  3.69815394868626E-05
(PID.TID 0000.0001)  cg2d: iter=    52 ; resid.=  2.95097933325745E-05
(PID.TID 0000.0001)  cg2d: iter=    53 ; resid.=  2.48558850039718E-05
(PID.TID 0000.0001)  cg2d: iter=    54 ; resid.=  2.17462990013716E-05
(PID.TID 0000.0001)  cg2d: iter=    55 ; resid.=  1.88252673291392E-05
(PID.TID 0000.0001)  cg2d: iter=    56 ; resid.=  1.47324349841660E-05
(PID.TID 0000.0001)  cg2d: iter=    57 ; resid.=  1.15882139862574E-05
(PID.TID 0000.0001)  cg2d: iter=    58 ; resid.=  9.30041342725958E-06
(PID.TID 0000.0001)  cg2d: iter=    59 ; resid.=  7.83071254054795E-06
(PID.TID 0000.0001)  cg2d: iter=    60 ; resid.=  6.36462821874954E-06
(PID.TID 0000.0001)  cg2d: iter=    61 ; resid.=  5.30512994442444E-06
(PID.TID 0000.0001)  cg2d: iter=    62 ; resid.=  4.61998748720482E-06
(PID.TID 0000.0001)  cg2d: iter=    63 ; resid.=  3.96459857247439E-06
(PID.TID 0000.0001)  cg2d: iter=    64 ; resid.=  3.30444466870530E-06
(PID.TID 0000.0001)  cg2d: iter=    65 ; resid.=  2.79251637875637E-06
(PID.TID 0000.0001)  cg2d: iter=    66 ; resid.=  2.42027594524638E-06
(PID.TID 0000.0001)  cg2d: iter=    67 ; resid.=  2.01305201157567E-06
(PID.TID 0000.0001)  cg2d: iter=    68 ; resid.=  1.61320641811252E-06
(PID.TID 0000.0001)  cg2d: iter=    69 ; resid.=  1.17105792649246E-06
(PID.TID 0000.0001)  cg2d: iter=    70 ; resid.=  9.26033140328852E-07
(PID.TID 0000.0001)  cg2d: iter=    71 ; resid.=  8.15052082296060E-07
(PID.TID 0000.0001)  cg2d: iter=    72 ; resid.=  7.24657498132019E-07
(PID.TID 0000.0001)  cg2d: iter=    73 ; resid.=  6.35000605680713E-07
(PID.TID 0000.0001)  cg2d: iter=    74 ; resid.=  5.29559934014615E-07
(PID.TID 0000.0001)  cg2d: iter=    75 ; resid.=  4.21860730679969E-07
(PID.TID 0000.0001)  cg2d: iter=    76 ; resid.=  3.65079916907081E-07
(PID.TID 0000.0001)  cg2d: iter=    77 ; resid.=  3.08552882806898E-07
(PID.TID 0000.0001)  cg2d: iter=    78 ; resid.=  2.58547524295613E-07
(PID.TID 0000.0001)  cg2d: iter=    79 ; resid.=  2.04107038350222E-07
(PID.TID 0000.0001)  cg2d: iter=    80 ; resid.=  1.56926727055322E-07
(PID.TID 0000.0001)  cg2d: iter=    81 ; resid.=  1.21002062967154E-07
(PID.TID 0000.0001)  cg2d: iter=    82 ; resid.=  9.01460612767634E-08
(PID.TID 0000.0001)  cg2d: iter=    83 ; resid.=  6.38107573352793E-08
(PID.TID 0000.0001)  cg2d: iter=    84 ; resid.=  5.03817261370009E-08
(PID.TID 0000.0001)  cg2d: iter=    85 ; resid.=  3.82895458164894E-08
(PID.TID 0000.0001)  cg2d: iter=    86 ; resid.=  3.10626642363142E-08
(PID.TID 0000.0001)  cg2d: iter=    87 ; resid.=  2.51118154626581E-08
(PID.TID 0000.0001)  cg2d: iter=    88 ; resid.=  2.04028290885168E-08
(PID.TID 0000.0001)  cg2d: iter=    89 ; resid.=  1.69039267589155E-08
(PID.TID 0000.0001)  cg2d: iter=    90 ; resid.=  1.28252374947857E-08
(PID.TID 0000.0001)  cg2d: iter=    91 ; resid.=  9.42550153761577E-09
(PID.TID 0000.0001)  cg2d: iter=    92 ; resid.=  6.92833747469697E-09
(PID.TID 0000.0001)  cg2d: iter=    93 ; resid.=  5.29689810636223E-09
(PID.TID 0000.0001)  cg2d: iter=    94 ; resid.=  3.98407481750727E-09
(PID.TID 0000.0001)  cg2d: iter=    95 ; resid.=  3.25670652326760E-09
(PID.TID 0000.0001)  cg2d: iter=    96 ; resid.=  2.47498337652151E-09
(PID.TID 0000.0001)  cg2d: iter=    97 ; resid.=  1.89987100057137E-09
(PID.TID 0000.0001)  cg2d: iter=    98 ; resid.=  1.46519979554943E-09
(PID.TID 0000.0001)  cg2d: iter=    99 ; resid.=  1.26164511478795E-09
(PID.TID 0000.0001)  cg2d: iter=   100 ; resid.=  1.12456020066821E-09
(PID.TID 0000.0001)  cg2d: iter=   101 ; resid.=  9.14637151771840E-10
(PID.TID 0000.0001)  cg2d: iter=   102 ; resid.=  7.13996000429377E-10
(PID.TID 0000.0001)  cg2d: iter=   103 ; resid.=  6.02391341405669E-10
(PID.TID 0000.0001)  cg2d: iter=   104 ; resid.=  4.90971036593428E-10
(PID.TID 0000.0001)  cg2d: iter=   105 ; resid.=  3.85997597524378E-10
(PID.TID 0000.0001)  cg2d: iter=   106 ; resid.=  3.32155909860487E-10
(PID.TID 0000.0001)  cg2d: iter=   107 ; resid.=  2.60090799308237E-10
(PID.TID 0000.0001)  cg2d: iter=   108 ; resid.=  2.15963936315712E-10
(PID.TID 0000.0001)  cg2d: iter=   109 ; resid.=  1.73967546253137E-10
(PID.TID 0000.0001)  cg2d: iter=   110 ; resid.=  1.49558877123253E-10
(PID.TID 0000.0001)  cg2d: iter=   111 ; resid.=  1.25334074615065E-10
(PID.TID 0000.0001)  cg2d: iter=   112 ; resid.=  8.91999857860136E-11
(PID.TID 0000.0001)  cg2d: iter=   113 ; resid.=  6.55997759928982E-11
(PID.TID 0000.0001)  cg2d: iter=   114 ; resid.=  5.19353660482480E-11
(PID.TID 0000.0001)  cg2d: iter=   115 ; resid.=  3.86406823113480E-11
(PID.TID 0000.0001)  cg2d: iter=   116 ; resid.=  2.93327320907373E-11
(PID.TID 0000.0001)  cg2d: iter=   117 ; resid.=  2.36513349141942E-11
(PID.TID 0000.0001)  cg2d: iter=   118 ; resid.=  1.88287441881532E-11
(PID.TID 0000.0001)  cg2d: iter=   119 ; resid.=  1.42603622303188E-11
(PID.TID 0000.0001)  cg2d: iter=   120 ; resid.=  1.03691695893812E-11
(PID.TID 0000.0001)  cg2d: iter=   121 ; resid.=  8.16618863351374E-12
(PID.TID 0000.0001)  cg2d: iter=   122 ; resid.=  6.22146453711502E-12
(PID.TID 0000.0001)  cg2d: iter=   123 ; resid.=  4.34892400208391E-12
(PID.TID 0000.0001)  cg2d: iter=   124 ; resid.=  2.84585254173950E-12
(PID.TID 0000.0001)  cg2d: iter=   125 ; resid.=  1.96316362161999E-12
(PID.TID 0000.0001)  cg2d: iter=   126 ; resid.=  1.48591267005888E-12
(PID.TID 0000.0001)  cg2d: iter=   127 ; resid.=  1.03245153993069E-12
(PID.TID 0000.0001)  cg2d: iter=   128 ; resid.=  7.51936337680511E-13
(PID.TID 0000.0001)  cg2d: iter=   129 ; resid.=  5.58241023792926E-13
(PID.TID 0000.0001)  cg2d: iter=   130 ; resid.=  4.36791070182952E-13
(PID.TID 0000.0001)  cg2d: iter=   131 ; resid.=  3.26749906860792E-13
(PID.TID 0000.0001)  cg2d: iter=   132 ; resid.=  2.44006326801074E-13
(PID.TID 0000.0001)  cg2d: iter=   133 ; resid.=  1.89352032651693E-13
(PID.TID 0000.0001)  cg2d: iter=   134 ; resid.=  1.48621064702784E-13
(PID.TID 0000.0001)  cg2d: iter=   135 ; resid.=  1.19156209827217E-13
(PID.TID 0000.0001)  cg2d: iter=   136 ; resid.=  8.46002760995061E-14
DEBUG_STATS_RL:    cg2d_x (SOLVE_FOR_PRESSURE)  min= -1.78859779517307E+01
DEBUG_STATS_RL:    cg2d_x (SOLVE_FOR_PRESSURE)  max=  1.04114515955766E+01
DEBUG_STATS_RL:    cg2d_x (SOLVE_FOR_PRESSURE) mean= -1.77963512216666E+00
DEBUG_STATS_RL:    cg2d_x (SOLVE_FOR_PRESSURE) S.D.=  7.67926102953347E+00
(PID.TID 0000.0001)      cg2d_init_res =   4.28745908801063E-01
(PID.TID 0000.0001)      cg2d_iters(min,last) =      -1     136
(PID.TID 0000.0001)      cg2d_last_res =   8.46002760995061E-14
(PID.TID 0000.0001) // =======================================================
(PID.TID 0000.0001) // Begin MONITOR dynamic field statistics
(PID.TID 0000.0001) // =======================================================
(PID.TID 0000.0001) %MON time_tsnumber                =                    40
(PID.TID 0000.0001) %MON time_secondsf                =   3.4560000000000E+06
(PID.TID 0000.0001) %MON dynstat_eta_max              =   1.0613100505174E+00
(PID.TID 0000.0001) %MON dynstat_eta_min              =  -1.8232393426847E+00
(PID.TID 0000.0001) %MON dynstat_eta_mean             =  -3.0010293481421E-03
(PID.TID 0000.0001) %MON dynstat_eta_sd               =   7.1258828188436E-01
(PID.TID 0000.0001) %MON dynstat_eta_del2             =   2.2423211209819E-03
(PID.TID 0000.0001) %MON dynstat_uvel_max             =   1.4791077265466E-01
(PID.TID 0000.0001) %MON dynstat_uvel_min             =  -1.6259748637843E-01
(PID.TID 0000.0001) %MON dynstat_uvel_mean            =   1.4173860017469E-03
(PID.TID 0000.0001) %MON dynstat_uvel_sd              =   1.8558136465562E-02
(PID.TID 0000.0001) %MON dynstat_uvel_del2            =   1.0028114972484E-04
(PID.TID 0000.0001) %MON dynstat_vvel_max             =   1.6035206485529E-01
(PID.TID 0000.0001) %MON dynstat_vvel_min             =  -1.1568530456815E-01
(PID.TID 0000.0001) %MON dynstat_vvel_mean            =  -8.2203715162140E-05
(PID.TID 0000.0001) %MON dynstat_vvel_sd              =   1.0798691211068E-02
(PID.TID 0000.0001) %MON dynstat_vvel_del2            =   9.0167420100520E-05
(PID.TID 0000.0001) %MON dynstat_wvel_max             =   9.6165682091396E-05
(PID.TID 0000.0001) %MON dynstat_wvel_min             =  -1.4388563139329E-04
(PID.TID 0000.0001) %MON dynstat_wvel_mean            =   1.8555970612569E-23
(PID.TID 0000.0001) %MON dynstat_wvel_sd              =   1.7196768655652E-05
(PID.TID 0000.0001) %MON dynstat_wvel_del2            =   1.7517088021960E-07
(PID.TID 0000.0001) %MON dynstat_theta_max            =   3.0208289215028E+01
(PID.TID 0000.0001) %MON dynstat_theta_min            =  -2.0004835786531E+00
(PID.TID 0000.0001) %MON dynstat_theta_mean           =   3.6417465700142E+00
(PID.TID 0000.0001) %MON dynstat_theta_sd             =   4.4190199636199E+00
(PID.TID 0000.0001) %MON dynstat_theta_del2           =   4.7595413934871E-03
(PID.TID 0000.0001) %MON dynstat_salt_max             =   3.7476958959084E+01
(PID.TID 0000.0001) %MON dynstat_salt_min             =   2.9838439511422E+01
(PID.TID 0000.0001) %MON dynstat_salt_mean            =   3.4738014002921E+01
(PID.TID 0000.0001) %MON dynstat_salt_sd              =   2.9637231378021E-01
(PID.TID 0000.0001) %MON dynstat_salt_del2            =   9.8726553593262E-04
(PID.TID 0000.0001) %MON dynstat_sst_max              =   3.0208289215028E+01
(PID.TID 0000.0001) %MON dynstat_sst_min              =  -2.0004835786531E+00
(PID.TID 0000.0001) %MON dynstat_sst_mean             =   1.8853425545347E+01
(PID.TID 0000.0001) %MON dynstat_sst_sd               =   9.0148676385206E+00
(PID.TID 0000.0001) %MON dynstat_sst_del2             =   2.7038398981547E-02
(PID.TID 0000.0001) %MON dynstat_sss_max              =   3.7450172253202E+01
(PID.TID 0000.0001) %MON dynstat_sss_min              =   2.9838439511422E+01
(PID.TID 0000.0001) %MON dynstat_sss_mean             =   3.4864451320744E+01
(PID.TID 0000.0001) %MON dynstat_sss_sd               =   9.7678955831350E-01
(PID.TID 0000.0001) %MON dynstat_sss_del2             =   7.8731982150951E-03
(PID.TID 0000.0001) %MON forcing_qnet_max             =   3.6657749633789E+02
(PID.TID 0000.0001) %MON forcing_qnet_min             =  -1.7427108459473E+02
(PID.TID 0000.0001) %MON forcing_qnet_mean            =  -1.4474705983364E+01
(PID.TID 0000.0001) %MON forcing_qnet_sd              =   8.5215174338696E+01
(PID.TID 0000.0001) %MON forcing_qnet_del2            =   9.5536523035188E-01
(PID.TID 0000.0001) %MON forcing_qsw_max              =   0.0000000000000E+00
(PID.TID 0000.0001) %MON forcing_qsw_min              =   0.0000000000000E+00
(PID.TID 0000.0001) %MON forcing_qsw_mean             =   0.0000000000000E+00
(PID.TID 0000.0001) %MON forcing_qsw_sd               =   0.0000000000000E+00
(PID.TID 0000.0001) %MON forcing_qsw_del2             =   0.0000000000000E+00
(PID.TID 0000.0001) %MON forcing_empmr_max            =   7.4636085400925E-05
(PID.TID 0000.0001) %MON forcing_empmr_min            =  -7.8067418485261E-05
(PID.TID 0000.0001) %MON forcing_empmr_mean           =   9.3931459634963E-07
(PID.TID 0000.0001) %MON forcing_empmr_sd             =   2.8013374744488E-05
(PID.TID 0000.0001) %MON forcing_empmr_del2           =   3.5400124581310E-07
(PID.TID 0000.0001) %MON forcing_fu_max               =   2.9631257653236E-01
(PID.TID 0000.0001) %MON forcing_fu_min               =  -2.0577280819416E-01
(PID.TID 0000.0001) %MON forcing_fu_mean              =   1.7304940323822E-02
(PID.TID 0000.0001) %MON forcing_fu_sd                =   9.1389471133942E-02
(PID.TID 0000.0001) %MON forcing_fu_del2              =   7.0083075453383E-04
(PID.TID 0000.0001) %MON forcing_fv_max               =   1.8891317546368E-01
(PID.TID 0000.0001) %MON forcing_fv_min               =  -1.8064786195755E-01
(PID.TID 0000.0001) %MON forcing_fv_mean              =  -6.8251595006693E-03
(PID.TID 0000.0001) %MON forcing_fv_sd                =   4.4564502921920E-02
(PID.TID 0000.0001) %MON forcing_fv_del2              =   4.9975827974748E-04
(PID.TID 0000.0001) %MON trAdv_CFL_u_max              =   4.7575502885489E-02
(PID.TID 0000.0001) %MON trAdv_CFL_v_max              =   3.2993113945720E-02
(PID.TID 0000.0001) %MON trAdv_CFL_w_max              =   4.7629923505105E-02
(PID.TID 0000.0001) %MON advcfl_uvel_max              =   4.8889778726379E-02
(PID.TID 0000.0001) %MON advcfl_vvel_max              =   3.1153834463451E-02
(PID.TID 0000.0001) %MON advcfl_wvel_max              =   4.0216727633403E-02
(PID.TID 0000.0001) %MON advcfl_W_hf_max              =   4.7398286139368E-02
(PID.TID 0000.0001) %MON pe_b_mean                    =   6.4977987400152E-04
(PID.TID 0000.0001) %MON ke_max                       =   1.6446795154750E-02
(PID.TID 0000.0001) %MON ke_mean                      =   2.0973600745081E-04
(PID.TID 0000.0001) %MON ke_vol                       =   1.3226782436723E+18
(PID.TID 0000.0001) %MON vort_r_min                   =  -4.5744726554603E-07
(PID.TID 0000.0001) %MON vort_r_max                   =   4.8023382262182E-07
(PID.TID 0000.0001) %MON vort_a_mean                  =  -2.5274806628417E-05
(PID.TID 0000.0001) %MON vort_a_sd                    =   7.3604532091485E-05
(PID.TID 0000.0001) %MON vort_p_mean                  =  -3.1845654830507E-05
(PID.TID 0000.0001) %MON vort_p_sd                    =   1.3162458896692E-04
(PID.TID 0000.0001) %MON surfExpan_theta_mean         =   5.4648850730870E-07
(PID.TID 0000.0001) %MON surfExpan_salt_mean          =  -9.5335449192774E-08
(PID.TID 0000.0001) // =======================================================
(PID.TID 0000.0001) // End MONITOR dynamic field statistics
(PID.TID 0000.0001) // =======================================================
(PID.TID 0000.0001) // =======================================================
(PID.TID 0000.0001) // Field Current uVel   at iteration         40
(PID.TID 0000.0001) // CMIN =         -1.625974863784259E-01
(PID.TID 0000.0001) // CMAX =          1.479107726546632E-01
(PID.TID 0000.0001) // CINT =          1.150030589011441E-02
(PID.TID 0000.0001) // SYMBOLS (CMIN->CMAX): -abcdefghijklmnopqrstuvwxyz+
(PID.TID 0000.0001) //                  0.0: .
(PID.TID 0000.0001) // RANGE I (Lo:Hi:Step):(     1:    90:     1)
(PID.TID 0000.0001) // RANGE J (Lo:Hi:Step):(    40:     1:    -1)
(PID.TID 0000.0001) // RANGE K (Lo:Hi:Step):(   1:   1:   1)
(PID.TID 0000.0001) // =======================================================
(PID.TID 0000.0001) K =   1
(PID.TID 0000.0001)                I=10      I=20      I=30      I=40      I=50      I=60      I=70      I=80      I=90
(PID.TID 0000.0001) |--J--|123456789|123456789|123456789|123456789|123456789|123456789|123456789|123456789|123456789|
(PID.TID 0000.0001)     40 nnnmn..nnnnnnnnnnnn...................................................................nmmm
(PID.TID 0000.0001)     39 ooonmmlllmmmmn....n......................................................nnn.........mmnnn
(PID.TID 0000.0001)     38 ppqqpoooonooo............................................................nmmn.......mmlmno
(PID.TID 0000.0001)     37 pqp...................................................................n....lm....mnmm..noo
(PID.TID 0000.0001)     36 pp..........................................mmn.....................nnnnoonlkl..mnnnooonno
(PID.TID 0000.0001)     35 oo..................................mmn...nmkjjn....nnnn............nn.....nlmnnnopqqqqqpo
(PID.TID 0000.0001)     34 ....................................nll..nmllkkl..onnoonn...................onooqrssssrq..
(PID.TID 0000.0001)     33 .....................................mnommnnmmmnoooppqpoonm..................mnqtuuutsrnn.
(PID.TID 0000.0001)     32 .....................................lmnnnoppppppppqqqqppoo.................onoqrttsrqpoo.
(PID.TID 0000.0001)     31 .....................................lmnoppppppqqppqqqppppp...............pstqrrrrrppppp..
(PID.TID 0000.0001)     30 ....................................oooppqqqqppppppppppoppo.............ppqpqqqqrqqppooo..
(PID.TID 0000.0001)     29 ..................................noqqqppppppppopppppopppoon............rqpoopopppppooon..
(PID.TID 0000.0001)     28 ................................npqpoopooonoopoooppppppqpoonn..........oppooooooppppoonn..
(PID.TID 0000.0001)     27 ...............n...............prqpooonnnoooooooppqqqqqpponnnn....nnn..rrqqpoooppppoon....
(PID.TID 0000.0001)     26 ...............on............mppqnmmmlllnonmmmmnoonnooonmmlllmnn..noqqqrqpponnnooonmml....
(PID.TID 0000.0001)     25 ...............nmm....nn....ljllmiffffghiiiiihiijjjjiihhggghjklmn....mmmjlkjkjiijjihhi....
(PID.TID 0000.0001)     24 .............kkjjkl..mlm....jj..jd----aaccbcccdeffffeddcacceggijjkkl..ihgfeffeeffffefh....
(PID.TID 0000.0001)     23 .............gefghj..hij....im...fbaa-aaaaaccdeghhhhghhhggfghhihgghij.....fdhfefffghij....
(PID.TID 0000.0001)     22 n............edddegigggj....l..mgjihgffgfffghijkkklllmoonlklklmmkjkjkl.......kigghilnmooqn
(PID.TID 0000.0001)     21 mml.........iihggfikjllpn......rnpoomllllkklmlmmllmmnnoonmmlmoopmmllln.........kijlnoonopn
(PID.TID 0000.0001)     20 mnl........lmooomllnoppqo.........popoomooppqooonnnmnnnmnnllnooommmkkm..........mjkmmmmopm
(PID.TID 0000.0001)     19 onl........mmprrpmmnnnmmmmm....pq......lorsrrrqqqqpmonnmmljjkkjjjkkjjk............kkllnnll
(PID.TID 0000.0001)     18 llm........lfjjhgfhjjjhiklmopqpoo....prnprrrrqqqppqoonmlkkiihgfgghiiijl...........kjklmkij
(PID.TID 0000.0001)     17 fhk..........ifcbdghhiiijkmnpqq......opopponnmmmmopponlkkjihffefffhhhgi..........oljihgfff
(PID.TID 0000.0001)     16 efh.......q..ljhgjkkljllklmnnn........nnoomllmllmopoonmlljiihggggghhhghk.........pmkigedde
(PID.TID 0000.0001)     15 gfgk.....ln..ommmnlooooonmlmn..........mmnnmmnnmnpqqponnmmmlkjjiijjiihhim.......mpmlkihgfg
(PID.TID 0000.0001)     14 iiij.....omklnnnoomoomoonnmlm..........nmnnnooonoqrrqpooooomlmlkkllkkkjjl......moonmlkkjji
(PID.TID 0000.0001)     13 kllj.....nnmmnmnnnnnmlnnnnmll..........oononpppopqqqpppooponnonllmnmmmllm.....noooommmmllk
(PID.TID 0000.0001)     12 mnnlmponnnonmllmmnnnnnnoonnmmmnnnm.....oooprqqpooppoooopooooopnmnooonnnm......qpoopoooonnm
(PID.TID 0000.0001)     11 ppponnnqrrrrrqppppqqqqqqqppppppppon...pooop..rrpppooooooooppppoopqqppoon.....oqqqrrqqrrqqq
(PID.TID 0000.0001)     10 ttsrrtuvvwwyywxwwwwwvutttttssrrrqqpo..ppppq..rsqpoooppoooppqqqqqrssrqqqp...qpqrrsstuuuvuut
(PID.TID 0000.0001)      9 xwwwwxyxxyzzyyzzxxyxxxxwxxwwvuuttttttsrrrq..utsrqqqqqqqqqrrssssstttsrrrq..rsrttuuuvwwxyyyx
(PID.TID 0000.0001)      8 xxyzyyxwwxxxxxxwusuuxyyyxxxxwwwxxxz+yxxxwuqtrsstuvvvvvuuvwvvvuuuutttttsr..ooqtuvvvvvvwxxxx
(PID.TID 0000.0001)      7 uvwvutttuutuvvuutrrrtuuvvuuuuuvwxyy++zzzzyxwutuuvxxyyzyxwwvuuuuuuuuuuuvwvqpqrtuuuttssttttu
(PID.TID 0000.0001)      6 qqqppppqrrrrrsssssrqppqqrrrrrsttuuuuuuvwxyyxvvvvvvvvwwwvuuttttuuuuvvvvwwwvuuuuttsrqqqqqqqq
(PID.TID 0000.0001)      5 nmmnnoooooppooppqqpoonnnnnnoppppppqqpqrstuvvvutttssrrqqqrrsssstttttuuuuutsrqqpppppoooooonn
(PID.TID 0000.0001)      4 lllllmmmmmmmmmmnnnnnmmmlijkmmnnnnnnnonnnnopqqqqppooonnnnopqqqqqrrrrrqqqpoo...nnnnnmmmmmmll
(PID.TID 0000.0001)      3 mmllmmmmnn.............................mmmmllmmnmmlllllmmnnnnnnnoooonnnnn...nkklmmmmllllmm
(PID.TID 0000.0001)      2 ...........................................nnooooooooooooooooonn...nnn......noooooonnnn...
(PID.TID 0000.0001)      1 ..........................................................................................
(PID.TID 0000.0001) // =======================================================
(PID.TID 0000.0001) // END OF FIELD                                          =
(PID.TID 0000.0001) // =======================================================
(PID.TID 0000.0001) 
(PID.TID 0000.0001) // =======================================================
(PID.TID 0000.0001) // Field Current vVel   at iteration         40
(PID.TID 0000.0001) // CMIN =         -1.156853045681504E-01
(PID.TID 0000.0001) // CMAX =          1.603520648552852E-01
(PID.TID 0000.0001) // CINT =          1.022360627494206E-02
(PID.TID 0000.0001) // SYMBOLS (CMIN->CMAX): -abcdefghijklmnopqrstuvwxyz+
(PID.TID 0000.0001) //                  0.0: .
(PID.TID 0000.0001) // RANGE I (Lo:Hi:Step):(     1:    90:     1)
(PID.TID 0000.0001) // RANGE J (Lo:Hi:Step):(    40:     1:    -1)
(PID.TID 0000.0001) // RANGE K (Lo:Hi:Step):(   1:   1:   1)
(PID.TID 0000.0001) // =======================================================
(PID.TID 0000.0001) K =   1
(PID.TID 0000.0001)                I=10      I=20      I=30      I=40      I=50      I=60      I=70      I=80      I=90
(PID.TID 0000.0001) |--J--|123456789|123456789|123456789|123456789|123456789|123456789|123456789|123456789|123456789|
(PID.TID 0000.0001)     40 jlnpn.iklkkkkj...ll..................................................................kjiii
(PID.TID 0000.0001)     39 jklmllllkkklm...........................................................lkjj........kkkkjj
(PID.TID 0000.0001)     38 jkl.......................................................................jij......ji.llkj
(PID.TID 0000.0001)     37 km...................................................................kk...jij...ijmll.jjjj
(PID.TID 0000.0001)     36 ll.........................................nonl....................kkl....ighi.igikllkjllj
(PID.TID 0000.0001)     35 ...................................kklk..mmmnnlk...lkmnn...................igghhhjllllnp..
(PID.TID 0000.0001)     34 ....................................jkj.llkkmnnm.mllmmnon...................iehijkmnmmnn..
(PID.TID 0000.0001)     33 ....................................lkkkkkllmnnmmmnnoonnmnm.................lgilllmmlkklm.
(PID.TID 0000.0001)     32 ....................................jljjklmmmnmmmnnnooonmmm................kkikmljkkjjkl..
(PID.TID 0000.0001)     31 ....................................lmlkllllkllklllmmnmmlkl..............mpomllkjjjkkklm..
(PID.TID 0000.0001)     30 ...................................lnmlkkkkiiiiiiijjkkkkkjj............nroomjjiiiiijkkml..
(PID.TID 0000.0001)     29 .................................kllkihhhhgffffggggghiiijjjj...........lmkjihiijjjjjklml..
(PID.TID 0000.0001)     28 ...............................mmlkihggffffeffffffffhhhijjjij.........kkkjiiiiijkjjjjk....
(PID.TID 0000.0001)     27 ..............kk..............poonmllkjiihghiihhijjijjjklkkkjj...llml.nllllllllmnnmmlk....
(PID.TID 0000.0001)     26 ..............mmo...........nrttsssrqqppomlmmmmnnonnnnooponnlkjk....nonmonoooopppppomk....
(PID.TID 0000.0001)     25 ..............opqo...mkk...mmo.vuuutttuusrrqqqqrrsrqrrrrsrqpomkjk....qrsqqrrqrsssqpoop....
(PID.TID 0000.0001)     24 ............kmopqoj.kmkj...lmk..lnqssstuuusssrrrrsrqqrrqqssrqpnmmnon.....nqspqstrpoopr....
(PID.TID 0000.0001)     23 ............jloppnj.fhjk...in...-fjkkkmoponnnmmmnoooopppqrqponmllmnon.......knprqppooo....
(PID.TID 0000.0001)     22 n...........gikmmljhefjl......kfaceefghiiiiiijklnopqpqqrsrpomkjjkkmmlj........mmmnooonmkkm
(PID.TID 0000.0001)     21 jii........iijiggfhhgilom......m.ghjjjjllkkkklnoooprqrsttsrqommnnmllmm.........jknppqpomlk
(PID.TID 0000.0001)     20 ggh.......mloqokhhjlmnopn......k......pppnmnonoponnpqqrrrrrrrrqqponmnl...........qqqoonmnk
(PID.TID 0000.0001)     19 gfi.......nntuusnlkmnmmljij...kjk.....vspnmmmmlmmlklnnoonlmnoopomllmml...........pnmmmllli
(PID.TID 0000.0001)     18 iij.......n.vtroligghjjihijjklh.....kmomlkjjjiikkjijkllkiiikkkkkihhknnm..........nljjlkjkj
(PID.TID 0000.0001)     17 jkj.......n.momjhdccdghgghijkm.......lmljjjihfghijijkjihgghihiijhghjllk.........kkkjklkiij
(PID.TID 0000.0001)     16 iik......mk.jnlkjijjighhhijjk.........mmkjjiihgikkkkkkjiihhhiijjihhijkkk........jlkjijighh
(PID.TID 0000.0001)     15 ijjj....hkj.hlllljikkjjjjjjjj.........kmlklkjkklmmmmmmlkkklllkkkjiijjjllk......gjmlkkkjjjj
(PID.TID 0000.0001)     14 llkj....ikkiiklmmljkljjkkkjji.........klllllkkkllmmmlmmlllmllmlllkkllklmk.....ghkmmlllklll
(PID.TID 0000.0001)     13 mmnl....hjlkjklllmmlkkklllklk.........jkllmkkkkllllmllmllllkklllllllmmnn.....jhijlmllkkklm
(PID.TID 0000.0001)     12 llmmligfdeijijklkkllkjjkllllkkkklm....jjkmp.ijkkkkkkkllllkkkkkkklllllmnn.....iiiijkjjkjkkl
(PID.TID 0000.0001)     11 klkjggfecbdfddgiihhhiiijjkkkkjkkjkm..lijkmo.jkkkkkkkkkkllkkkkjijlmlkklmn....fgjihhjihiiikk
(PID.TID 0000.0001)     10 kkkkjihggffhgefgijhfgijjjjklkjkkjjlm.ljjjm..snlkkkkkkkjklmmlkjjkmnnmllmm..pifhklkjiihiiijk
(PID.TID 0000.0001)      9 kllllkjiiiikllkkpvqjiklmlkklkjjjihkmljijjo.tqljjjkkjkjjjklmmlkklnonnmmkn.qrplkkmnlkjjjlkjk
(PID.TID 0000.0001)      8 mmmmmmlkllllmmnnr++snlmmmmmllkkjjjkkjhhhinrtpmlmmlkkkkklllmmlkklnnnnmmjk.qssrpoppomkkmnnmm
(PID.TID 0000.0001)      7 nnmllmllmmmmmmmnpv+wqnmnmmllllllllmmjhhggjnpponopnmlkiijkklmllklmnnnmmmnqrqqqpppoonllmoonn
(PID.TID 0000.0001)      6 mmkkkkllllllllklmprrpmmmljjkklllkkmmlkjhhilnoopqpooomkiiijlmmlklmmnmmnooqqpopponnmmlllmnmm
(PID.TID 0000.0001)      5 lkjjjjjkkjjjjjjkllmmlkjiijijjjjjjjkkllkjjjlllmoponnmlkjiijkmmlkllmmmmnnmlk..oonmllllllllkl
(PID.TID 0000.0001)      4 iihiihhhii............................llkkkkkklmmllkjjjjklllllkkklllllkkj...mlkkkkkkkkkjjj
(PID.TID 0000.0001)      3 ..........................................kiiiijjjjjiijklmmmlkjk..kjjk.....kjjiiijkllll...
(PID.TID 0000.0001)      2 ..........................................................................................
(PID.TID 0000.0001)      1 ..........................................................................................
(PID.TID 0000.0001) // =======================================================
(PID.TID 0000.0001) // END OF FIELD                                          =
(PID.TID 0000.0001) // =======================================================
(PID.TID 0000.0001) 
(PID.TID 0000.0001) // =======================================================
(PID.TID 0000.0001) // Field Current theta  at iteration         40
(PID.TID 0000.0001) // CMIN =         -2.000483578653104E+00
(PID.TID 0000.0001) // CMAX =          3.020828921502789E+01
(PID.TID 0000.0001) // CINT =          1.192917510877074E+00
(PID.TID 0000.0001) // SYMBOLS (CMIN->CMAX): -abcdefghijklmnopqrstuvwxyz+
(PID.TID 0000.0001) //                  0.0: .
(PID.TID 0000.0001) // RANGE I (Lo:Hi:Step):(     1:    90:     1)
(PID.TID 0000.0001) // RANGE J (Lo:Hi:Step):(    40:     1:    -1)
(PID.TID 0000.0001) // RANGE K (Lo:Hi:Step):(   1:   1:   1)
(PID.TID 0000.0001) // =======================================================
(PID.TID 0000.0001) K =   1
(PID.TID 0000.0001)                I=10      I=20      I=30      I=40      I=50      I=60      I=70      I=80      I=90
(PID.TID 0000.0001) |--J--|123456789|123456789|123456789|123456789|123456789|123456789|123456789|123456789|123456789|
(PID.TID 0000.0001)     40 -bbccbaa------acdddbbbbbbbbbbbbbbbbbbbbbbbbbbbbbbbbbbbbbbbbbbbbbbbbbbbbbbbbbbbbbbbbbbaaaa-
(PID.TID 0000.0001)     39 bccddccbba----bbbddbbbbbbbbbbbbbbbbbbbbbbbbbbbbbbbbbbbbbbbbbbbbbbbbbbbbb----bbbbbbbbbaaaab
(PID.TID 0000.0001)     38 eeffeeccccbaabbbbbbbbbbbbbbbbbbbbbbbbbbbbbbbbbbbbbbbbbbbbbbbbbbbbbbbbbbb-----bbbbbbba--bcd
(PID.TID 0000.0001)     37 fggbbbbbbbbbbbbbbbbbbbbbbbbbbbbbbbbbbbbbbbbbbbbbbbbbbbbbbbbbbbbbbbbbbbbbbbaabbbbdbccebcdee
(PID.TID 0000.0001)     36 hgbbbbbbbbbbbbbbbbbbbbbbbbbbbbbbbbbbbbbbbbbcb--bbbbbbbbbbbbbbbbbbbbccccbabacbdbdefgghhhhhg
(PID.TID 0000.0001)     35 ggbbbbbbbbbbbbbbbbbbbbbbbbbbbbbbbbba---bbbbcccbabbbeeeefbbbbbbbbbbbbbbbbbbbcdeeeefghiiiihg
(PID.TID 0000.0001)     34 bbbbbbbbbbbbbbbbbbbbbbbbbbbbbbbbbbb----bbcddddddbddeeefggbbbbbbbbbbbbbbbbbbcacdefghiijjjbb
(PID.TID 0000.0001)     33 bbbbbbbbbbbbbbbbbbbbbbbbbbbbbbbbbbbb--bbcccddddeeeeefffgggibbbbbbbbbbbbbbbbbaadhijjkkkkkjb
(PID.TID 0000.0001)     32 bbbbbbbbbbbbbbbbbbbbbbbbbbbbbbbbbbbb-acccdeeeeefggggghhhhiibbbbbbbbbbbbbbbbcbbcjlllllllkkb
(PID.TID 0000.0001)     31 bbbbbbbbbbbbbbbbbbbbbbbbbbbbbbbbbbbbdefggghhiiiiiiiijjkkkkkbbbbbbbbbbbbbbfjkjikmnnnnmmlmbb
(PID.TID 0000.0001)     30 bbbbbbbbbbbbbbbbbbbbbbbbbbbbbbbbbbblkkkkkklllllllllllmmmmllbbbbbbbbbbbbmnoppppppppooonnnbb
(PID.TID 0000.0001)     29 bbbbbbbbbbbbbbbbbbbbbbbbbbbbbbbbboooooonnnnnnnnnnnnnooooonmmbbbbbbbbbbbqqqqqqqqqqqqpppoobb
(PID.TID 0000.0001)     28 bbbbbbbbbbbbbbbbbbbbbbbbbbbbbbbnpqqqqqppqqqqqqqqqqqqqqqqpponnbbbbbbbbbssrrrrsrrrrrqqqqppbb
(PID.TID 0000.0001)     27 bbbbbbbbbbbbbbuvbbbbbbbbbbbbbbrrrrrssssssssssssssssssssrrqqppqbbbssstbttttttttttsssrrrbbbb
(PID.TID 0000.0001)     26 bbbbbbbbbbbbbbvuubbbbbbbbbbbttuuttuuuuuuuvuuuuuuuuuuttsssrrrrssubttuvvvvvvvvuuuuttssrqbbbb
(PID.TID 0000.0001)     25 bbbbbbbbbbbbbbuuvwbbbwvwbbbuuvvwvvwwwwwwwwvvvvvvvvvuuuutttssttuwwbbbwwwwvvvvvvuuutsrqpbbbb
(PID.TID 0000.0001)     24 bbbbbbbbbbbbvvvvxyybwwwxbbbwwwbxxwxxxxxwwwwwwwwwwvvvvvvvuuuvvvwwwvvvbwwwwvvvvvvuuuttsrbbbb
(PID.TID 0000.0001)     23 bbbbbbbbbbbbwwwxxyybxxxxbbbxwwbbxxxyxxxxxxxxxxxxxwwxxxxxxwwxxwwwwxwxwbbbbwwwwwwwvvvvvvbbbb
(PID.TID 0000.0001)     22 wbbbbbbbbbbbxwxxyyyyxxyybbbxxbyyyyyyzyyyyyyyyyyyyxxxxxxwwwwwxwwwwwwwwwbbbbbbxxxxwxxxxyxxww
(PID.TID 0000.0001)     21 wwwbbbbbbbbxxxxxyyyyyzz++bbbbbyyzzzzzzzzzzzzyyyyyyyyyyxxwwwwxwwwwwvvvvbbbbbbbbyxxyyyyyyxxx
(PID.TID 0000.0001)     20 xwwbbbbbbbyxyyyyyzzzzzzz+bbbbbbzbzzzzz++++zzzzzzzzyzyyxyxxxxxxwwwwwwvvbbbbbbbbbyyyyyyyyxxx
(PID.TID 0000.0001)     19 wvvbbbbbbbyzzzyzzzyzzzzzzzybbbzzzbbbbb++++++zzzzzzzzyyyyxxxxxxwwwwwwvvbbbbbbbbbbbyyxxxwwwx
(PID.TID 0000.0001)     18 vutbbbbbbbyzzyyyyyyyyyyyzzzyzz+zzbbb++zz+++zzz+z+zzzzzyyyyyxxwwwvvwvvvubbbbbbbbbbyyxxwwwww
(PID.TID 0000.0001)     17 uutbbbbbbbzbyyxxxxxyyyyxyyyyyzzbbbbbzzzzzzzzzzzzzzzzzyyyyyyxxwwvvvvuuuvbbbbbbbbbyyyyxwuvvv
(PID.TID 0000.0001)     16 utsbbbbbbzzbyyxxxxxxxxxwwxxxxzbbbbbbbyyyyyyzzyyzyyyyzyyyyyyyxxwwvvvuutttbbbbbbbbyyyyxwvvvu
(PID.TID 0000.0001)     15 ttrrbbbbxyybxxxxxwwwwwwwvvvwxbbbbbbbbbxxxxxxxxxxxyxxyyxyyyyyxwwwwvuuutssrbbbbbbxxyxxyxxwvu
(PID.TID 0000.0001)     14 utrqbbbbxyxwwxwwwxwwvuuuuuuuubbbbbbbbbwwwwwwwwwwwxxxxxxwxxxxxwwwvvvutssssbbbbbwwxxxxxxwwvu
(PID.TID 0000.0001)     13 uutrbbbbwxwvwwuuuvvvvuuttttttbbbbbbbbbvvvvvvvvvvvvuuvvvvvwwxxwvvvuuuusssqbbbbvwwwwwwwwwvvu
(PID.TID 0000.0001)     12 tstsssstuuuttutssssstutrrssssqqrrqbbbbuuuutttttsssssssssstuuuttttsttssrqbbbbbuvvvutuuutttt
(PID.TID 0000.0001)     11 qppqrsssrrrrrsrqqpppprqppqqppqqqqqqbbttssssbrrrqqrrrrrrrqrsrqqqrrrrsrrqpbbbbprttsrrrrrqqqq
(PID.TID 0000.0001)     10 mmlmnoopooooooonnnnnnnnmmmmmmnnooopobqrrqqqbpqqqqqpppppppppooopppooopppobbonppppoooooooonm
(PID.TID 0000.0001)      9 jjiijjjjjjkkjjjjjijjjjjiijjjijkllnnmmnoooobnnoooooooooooonnmmmmnmmlmmmmmbmnnnnmmllkjklkkjj
(PID.TID 0000.0001)      8 ggggggggggghiihhggghhihgghhhhijjjjkkkklllmmllllllllmmmllllkkjjklkkkkkklkbkllkkjjiihhhhgfff
(PID.TID 0000.0001)      7 ddeeeefffffffgffffffffeeffggggghhhhhiiijkkkjjkkkkjjiiiiiijiiiiiiiiiijjjjiijjiihggffffeeeee
(PID.TID 0000.0001)      6 ccddeeeeeeeeeeeeeeeeeeefeeeedeffffffggghhiiihhiiiggfffffgggggffghhhhhhihhhhhggffeddddddddc
(PID.TID 0000.0001)      5 ddddddddddeeeeeeeeeeeeeedddeeeeeeeeeeeeffffffffffeddddddeeeeeeeffffffffffffeeeddddcccccccc
(PID.TID 0000.0001)      4 ddddddccccccccccccdccccbbbbccccccccccccdddddddcccdccccccccccdddddddddddddcbbbbbbcccccccccd
(PID.TID 0000.0001)      3 ccccbbaaaabbbbbbbbbbbbbbbbbbbbbbbbbbbbbbbbbccccccccccccbbbbbbbbbbbbbbbbbbbbbbaaabbcccccbbb
(PID.TID 0000.0001)      2 bbbbbbbbbbbbbbbbbbbbbbbbbbbbbbbbbbbbbbbbbbbccccbbbbbbaaaaaaaaababbaaaabbbbbaaaaabbbbbbbbbb
(PID.TID 0000.0001)      1 bbbbbbbbbbbbbbbbbbbbbbbbbbbbbbbbbbbbbbbbbbbbbbbbbbbbbbbbbbbbbbbbbbbbbbbbbbbbbbbbbbbbbbbbbb
(PID.TID 0000.0001) // =======================================================
(PID.TID 0000.0001) // END OF FIELD                                          =
(PID.TID 0000.0001) // =======================================================
(PID.TID 0000.0001) 
(PID.TID 0000.0001) // =======================================================
(PID.TID 0000.0001) // Field Current etaN   at iteration         40
(PID.TID 0000.0001) // CMIN =         -1.823239342684668E+00
(PID.TID 0000.0001) // CMAX =          1.061310050517450E+00
(PID.TID 0000.0001) // CINT =          1.068351627111896E-01
(PID.TID 0000.0001) // SYMBOLS (CMIN->CMAX): -abcdefghijklmnopqrstuvwxyz+
(PID.TID 0000.0001) //                  0.0: .
(PID.TID 0000.0001) // RANGE I (Lo:Hi:Step):(    -1:    92:     1)
(PID.TID 0000.0001) // RANGE J (Lo:Hi:Step):(    42:    -1:    -1)
(PID.TID 0000.0001) // RANGE K (Lo:Hi:Step):(   1:   1:   1)
(PID.TID 0000.0001) // =======================================================
(PID.TID 0000.0001) K =   1
(PID.TID 0000.0001)                I=8       I=18      I=28      I=38      I=48      I=58      I=68      I=78      I=88
(PID.TID 0000.0001) |--J--|101234567|901234567|901234567|901234567|901234567|901234567|901234567|901234567|901234567|9012
(PID.TID 0000.0001)     42 ............................................ffffggggggghhhggffeeee..feee.....bcbbbbbbbbba.....
(PID.TID 0000.0001)     41 ..............................................................................................
(PID.TID 0000.0001)     40 cbbbbcc.ggggggghhhhhh..................................................................ccccbbb
(PID.TID 0000.0001)     39 cccccccdddeeeeee...hh.....................................................llll........eeddcccc
(PID.TID 0000.0001)     38 ddddeeeeeeedddd...........................................................lllkk......gfeeedddd
(PID.TID 0000.0001)     37 eeeef..................................................................mm...kjj...feeed.deeeee
(PID.TID 0000.0001)     36 eefg.........................................stts....................lkkkkkjiiih.heddeeeeeeefg
(PID.TID 0000.0001)     35 fffg.................................uuuu..ssssssr...sqqqq...........kjj....jhhgffedddeeeefffg
(PID.TID 0000.0001)     34 .....................................uttt.ttssrrrr.rqqpppqq..................kjhffedeeeffh....
(PID.TID 0000.0001)     33 e.....................................ttttsssrrrrrrrqqppppqqq.................jigggffgggffe...
(PID.TID 0000.0001)     32 f.....................................tttssssrrrsrrrrrqqqqqqq................dhhhhiihhhggff...
(PID.TID 0000.0001)     31 ......................................sssssssssstssssssssssrr..............hhijiiiiiihhggg....
(PID.TID 0000.0001)     30 .....................................sttttttutttuutttttttttss............ehijklllkkjjiihhh....
(PID.TID 0000.0001)     29 ...................................suvwwwwwwwwvvvvvvuuuuuuutsr...........hjklmmmllkkjiiihh....
(PID.TID 0000.0001)     28 .................................tuvwxyyyxxxxxxxwwwwvvvvuuuutts.........jjkllllllllkjjiiii....
(PID.TID 0000.0001)     27 ................rr..............xwwxxyyyyyyyyyxxxwwwwwvvvuuuttts...iijj.kkllllllkkkkjjii......
(PID.TID 0000.0001)     26 ................rrr...........yxyyxxxyyyyyyyyyyxxxxwwwwvvvuutttttt.jjjlllllllllllkkkjjii......
(PID.TID 0000.0001)     25 ................ssst...vuu...yyxyzyyxxxxyyyyyyyxxxxwwwvvvvuuutuuuuu...lmmmmmmmmllkkkkjji......
(PID.TID 0000.0001)     24 ..............ttsstuu.vvuu...zyy.+zyxxxxxyyyxxxxxwwwwvvvvuuuuuuuuuuuuu.mmmmmmmmlllkkkkjj......
(PID.TID 0000.0001)     23 ..............tttttuu.vvuu...zyy..zyyxxxxxyxxxxxxxxxwwwvvvvuuuuuuuuuuuu....lmmmmmlllkkll......
(PID.TID 0000.0001)     22 lmm...........tttttuuuuuvv...zz.yxyyyyyyyyyyyyyxxxxxwwwwvvvuuuuuuuuuuuuv......nmmmllllmmmmlmm.
(PID.TID 0000.0001)     21 mmmmm........ttttttuuuvvvvv.....xxxyyxxyyyyyyyyxxxxwwwwwwvvvvuuuuuuuuuuv........nmmmmmlmmlmmmm
(PID.TID 0000.0001)     20 mmmmm.......uuutuuuuvvvvwvw......x.xwwxxxyyyyyxxxxxwwwwwwwvvvvvvuuuuuuuv.........mmmnmmmllmmmm
(PID.TID 0000.0001)     19 mmmll.......uuvvuvvvvvvvvvwvv...wxx.....zyyyyyyyyxyxxxxwwwwwwvvvvvuuuuuu...........nnnmmmmmmml
(PID.TID 0000.0001)     18 lllll.......uvwvvvvvvvvvvvvvvvvwwwx...++zyyyyyyyyyyxxxxwwwwwwvvvvvuuuuuuu..........onnnmmmllll
(PID.TID 0000.0001)     17 mllll.......v.xwvvvuvvvvvvvvvvvvv.....++yyyyxxxxxxxxxxxxwwwwwwvvvvuuuuuuu.........qponnmmmmlll
(PID.TID 0000.0001)     16 mmmll......xv.yxwwvvwvvvvvvvvvvv.......+zyyxxxxxxxxxxxxxwwwwwwwwwvvvvvuuut........pooonnmmmmml
(PID.TID 0000.0001)     15 nnmmll....xwu.yxwwwwxwvvvvvuuuu.........yxxxwxxxwwxxxxxxwwxxxwxwwwvvvvvutts......oppoooonnnnmm
(PID.TID 0000.0001)     14 oonnml....vvuuwwvvvvwvuuuvuttss.........yxwwwwwwwvwwwwwwwxxxxxxxwwwwwvvvutt.....nnooooppopoonn
(PID.TID 0000.0001)     13 poonnm....uvvvvvuuuuuutuvvutsss.........wwwwvvvuuuuuuuuvvvwwwxyxwwwwwwvvuts....lmnnooopppqpoon
(PID.TID 0000.0001)     12 ppoonmlkoqsuuuuvvuuttttuuutttssstttt....uvuuuutttttttttuuuuuvvwvwwwvvvvuut.....lmmnnnoooppppoo
(PID.TID 0000.0001)     11 oonnmmnnopqsttuvuuttttsttttssssssttuu..stttuu.ssssssssttttttuuuuvwwvuuuutt....ikklmmmmnnnooonn
(PID.TID 0000.0001)     10 mmlllllllmmoppqrrrqqpqqqqqrrrqqrrrsttt.rsttuu.pqrrsssstttuttttttuvvutttttt..efijjjjjkkkllmmmll
(PID.TID 0000.0001)      9 jjjjjjiihiijklllmmmlklmnnnnooooppqrstsrrsttv.qppqrssssssttuutssttutsssssss.ihhiiiihhhhhiiijjjj
(PID.TID 0000.0001)      8 effffffeeeffghiiiikighijjjkkkllmnnopqqpqrstuurqppqqqqrrrssssrrrrsssrrrrrsv.kihhgggfeeeeeeeefff
(PID.TID 0000.0001)      7 ccccbbcccdddeeffghiigeeefgghhiijjkkkkkklmnpqqpoooonmmnnoppoopooppqqpppppppoljihgfeddcccccccccc
(PID.TID 0000.0001)      6 aa---abbbbcccdddeffgfdddeeeffgghhhhhhgghijlmnnmlllkjjjijkllmmmmmmnnnmmmmllkihgedccbbbbbbbaaa--
(PID.TID 0000.0001)      5 -----aaabbbbbbcccddddccccccdeeeffffffffffghiiiiiihhhgggghhijkkjjjjjjjiiihggedcbbaaaaaaaaa-----
(PID.TID 0000.0001)      4 ------aaaaabbbccccccccccccdddeeefffffeeeeefffffggffffffggghhhhhgghhgggffeeee..--aaaaaa--------
(PID.TID 0000.0001)      3 --aaaaaabbbb............................eeeeeffffffffffgggggfffeeeeffeeeeff..aaaaaaaaaaa----aa
(PID.TID 0000.0001)      2 ............................................ffffggggggghhhggffeeee..feee.....bcbbbbbbbbba.....
(PID.TID 0000.0001)      1 ..............................................................................................
(PID.TID 0000.0001)      0 cbbbbcc.ggggggghhhhhh..................................................................ccccbbb
(PID.TID 0000.0001)     -1 cccccccdddeeeeee...hh.....................................................llll........eeddcccc
(PID.TID 0000.0001) // =======================================================
(PID.TID 0000.0001) // END OF FIELD                                          =
(PID.TID 0000.0001) // =======================================================
(PID.TID 0000.0001) 
(PID.TID 0000.0001)  MDS_WRITE_FIELD: it,rec,kS,kL,kH=      40     1  15   1  15 file=U.0000000040
(PID.TID 0000.0001)  MDS_WRITE_FIELD: it,rec,kS,kL,kH=      40     1  15   1  15 file=V.0000000040
(PID.TID 0000.0001)  MDS_WRITE_FIELD: it,rec,kS,kL,kH=      40     1  15   1  15 file=T.0000000040
(PID.TID 0000.0001)  MDS_WRITE_FIELD: it,rec,kS,kL,kH=      40     1  15   1  15 file=S.0000000040
(PID.TID 0000.0001)  MDS_WRITE_FIELD: it,rec,kS,kL,kH=      40     1   1   1   1 file=Eta.0000000040
(PID.TID 0000.0001)  MDS_WRITE_FIELD: it,rec,kS,kL,kH=      40     1  15   1  15 file=W.0000000040
(PID.TID 0000.0001)  MDS_WRITE_FIELD: it,rec,kS,kL,kH=      40     1  15   1  15 file=PH.0000000040
(PID.TID 0000.0001)  MDS_WRITE_FIELD: it,rec,kS,kL,kH=      40     1   1   1   1 file=PHL.0000000040
(PID.TID 0000.0001)  MDS_WRITE_FIELD: it,rec,kS,kL,kH=      40     1   1   1   1 file=ETAtave.0000000040
(PID.TID 0000.0001)  MDS_WRITE_FIELD: it,rec,kS,kL,kH=      40     1  15   1  15 file=Ttave.0000000040
(PID.TID 0000.0001)  MDS_WRITE_FIELD: it,rec,kS,kL,kH=      40     1  15   1  15 file=Stave.0000000040
(PID.TID 0000.0001)  MDS_WRITE_FIELD: it,rec,kS,kL,kH=      40     1  15   1  15 file=uVeltave.0000000040
(PID.TID 0000.0001)  MDS_WRITE_FIELD: it,rec,kS,kL,kH=      40     1  15   1  15 file=vVeltave.0000000040
(PID.TID 0000.0001)  MDS_WRITE_FIELD: it,rec,kS,kL,kH=      40     1  15   1  15 file=wVeltave.0000000040
(PID.TID 0000.0001)  MDS_WRITE_FIELD: it,rec,kS,kL,kH=      40     1   1   1   1 file=Eta2tave.0000000040
(PID.TID 0000.0001)  MDS_WRITE_FIELD: it,rec,kS,kL,kH=      40     1  15   1  15 file=UTtave.0000000040
(PID.TID 0000.0001)  MDS_WRITE_FIELD: it,rec,kS,kL,kH=      40     1  15   1  15 file=VTtave.0000000040
(PID.TID 0000.0001)  MDS_WRITE_FIELD: it,rec,kS,kL,kH=      40     1  15   1  15 file=WTtave.0000000040
(PID.TID 0000.0001)  MDS_WRITE_FIELD: it,rec,kS,kL,kH=      40     1  15   1  15 file=UStave.0000000040
(PID.TID 0000.0001)  MDS_WRITE_FIELD: it,rec,kS,kL,kH=      40     1  15   1  15 file=VStave.0000000040
(PID.TID 0000.0001)  MDS_WRITE_FIELD: it,rec,kS,kL,kH=      40     1  15   1  15 file=WStave.0000000040
(PID.TID 0000.0001)  MDS_WRITE_FIELD: it,rec,kS,kL,kH=      40     1  15   1  15 file=TTtave.0000000040
(PID.TID 0000.0001)  MDS_WRITE_FIELD: it,rec,kS,kL,kH=      40     1  15   1  15 file=UUtave.0000000040
(PID.TID 0000.0001)  MDS_WRITE_FIELD: it,rec,kS,kL,kH=      40     1  15   1  15 file=VVtave.0000000040
(PID.TID 0000.0001)  MDS_WRITE_FIELD: it,rec,kS,kL,kH=      40     1  15   1  15 file=UVtave.0000000040
(PID.TID 0000.0001)  MDS_WRITE_FIELD: it,rec,kS,kL,kH=      40     1  15   1  15 file=Tdiftave.0000000040
(PID.TID 0000.0001)  MDS_WRITE_FIELD: it,rec,kS,kL,kH=      40     1  15   1  15 file=PhHytave.0000000040
(PID.TID 0000.0001)  MDS_WRITE_FIELD: it,rec,kS,kL,kH=      40     1   1   1   1 file=PHLtave.0000000040
(PID.TID 0000.0001)  MDS_WRITE_FIELD: it,rec,kS,kL,kH=      40     1   1   1   1 file=uFluxtave.0000000040
(PID.TID 0000.0001)  MDS_WRITE_FIELD: it,rec,kS,kL,kH=      40     1   1   1   1 file=vFluxtave.0000000040
(PID.TID 0000.0001)  MDS_WRITE_FIELD: it,rec,kS,kL,kH=      40     1   1   1   1 file=tFluxtave.0000000040
(PID.TID 0000.0001)  MDS_WRITE_FIELD: it,rec,kS,kL,kH=      40     1   1   1   1 file=sFluxtave.0000000040
(PID.TID 0000.0001)  MDS_WRITE_FIELD: it,rec,kS,kL,kH=      40     1   1   1   1 file=PHL2tave.0000000040
(PID.TID 0000.0001)  MDS_WRITE_FIELD: it,rec,kS,kL,kH=      40     1  15   1  15 file=Convtave.0000000040
(PID.TID 0000.0001) // Time-average data written, t-step        40
(PID.TID 0000.0001) 
(PID.TID 0000.0001)  MDS_WRITE_FIELD: it,rec,kS,kL,kH=      40     1  15   1  15 file=GM_Kwx-T.0000000040
(PID.TID 0000.0001)  MDS_WRITE_FIELD: it,rec,kS,kL,kH=      40     1  15   1  15 file=GM_Kwy-T.0000000040
(PID.TID 0000.0001)  MDS_WRITE_FIELD: it,rec,kS,kL,kH=      40     1  15   1  15 file=GM_Kwz-T.0000000040
(PID.TID 0000.0001)  MDS_WRITE_FIELD: it,rec,kS,kL,kH=      40     1  15   1  15 file=pickup_cd.0000000040
(PID.TID 0000.0001)  MDS_WRITE_FIELD: it,rec,kS,kL,kH=      40     2  15   1  15 file=pickup_cd.0000000040
(PID.TID 0000.0001)  MDS_WRITE_FIELD: it,rec,kS,kL,kH=      40     3  15   1  15 file=pickup_cd.0000000040
(PID.TID 0000.0001)  MDS_WRITE_FIELD: it,rec,kS,kL,kH=      40     4  15   1  15 file=pickup_cd.0000000040
(PID.TID 0000.0001)  MDS_WRITE_FIELD: it,rec,kS,kL,kH=      40    61   1   1   1 file=pickup_cd.0000000040
(PID.TID 0000.0001)  MDS_WRITE_FIELD: it,rec,kS,kL,kH=      40    -1  15   1  15 file=pickup.0000000040
(PID.TID 0000.0001)  MDS_WRITE_FIELD: it,rec,kS,kL,kH=      40    -2  15   1  15 file=pickup.0000000040
(PID.TID 0000.0001)  MDS_WRITE_FIELD: it,rec,kS,kL,kH=      40    -3  15   1  15 file=pickup.0000000040
(PID.TID 0000.0001)  MDS_WRITE_FIELD: it,rec,kS,kL,kH=      40    -4  15   1  15 file=pickup.0000000040
(PID.TID 0000.0001)  MDS_WRITE_FIELD: it,rec,kS,kL,kH=      40    -5  15   1  15 file=pickup.0000000040
(PID.TID 0000.0001)  MDS_WRITE_FIELD: it,rec,kS,kL,kH=      40    -6  15   1  15 file=pickup.0000000040
(PID.TID 0000.0001)  MDS_WRITE_FIELD: it,rec,kS,kL,kH=      40    -7  15   1  15 file=pickup.0000000040
(PID.TID 0000.0001)  MDS_WRITE_FIELD: it,rec,kS,kL,kH=      40    -8  15   1  15 file=pickup.0000000040
(PID.TID 0000.0001)  MDS_WRITE_FIELD: it,rec,kS,kL,kH=      40  -121   1   1   1 file=pickup.0000000040
(PID.TID 0000.0001)  MDS_WRITE_FIELD: it,rec,kS,kL,kH=      40  -122   1   1   1 file=pickup.0000000040
(PID.TID 0000.0001)  MDS_WRITE_FIELD: it,rec,kS,kL,kH=      40  -123   1   1   1 file=pickup.0000000040
(PID.TID 0000.0001) %CHECKPOINT        40 0000000040
 EXTERNAL_FIELDS_LOAD,        40 : iP,iLd,i0,i1=    1    2    1    2 ; Wght=  0.1666666667  0.8333333333
 EXTERNAL_FIELDS_LOAD: (fu0,1),fu,fv= -3.5633E-02 -1.4435E-02 -1.7968E-02 -2.4239E-02
 EXTERNAL_FIELDS_LOAD: SST,SSS,Q,E-P= -2.8348E-01  3.4470E+01  2.4470E+02  8.9204E-06
DEBUG_STATS_RL:          Uvel (THERMODYNAMICS)  min= -1.62597486378426E-01
DEBUG_STATS_RL:          Uvel (THERMODYNAMICS)  max=  1.47910772654663E-01
DEBUG_STATS_RL:          Uvel (THERMODYNAMICS) mean=  3.15693549200065E-03
DEBUG_STATS_RL:          Uvel (THERMODYNAMICS) S.D.=  2.66164721380976E-02
DEBUG_STATS_RL:          Vvel (THERMODYNAMICS)  min= -1.15685304568150E-01
DEBUG_STATS_RL:          Vvel (THERMODYNAMICS)  max=  1.60352064855285E-01
DEBUG_STATS_RL:          Vvel (THERMODYNAMICS) mean=  1.23364270804406E-04
DEBUG_STATS_RL:          Vvel (THERMODYNAMICS) S.D.=  1.57004022513764E-02
DEBUG_STATS_RL:          Wvel (THERMODYNAMICS)  min= -1.43885631393285E-04
DEBUG_STATS_RL:          Wvel (THERMODYNAMICS)  max=  9.61656820913964E-05
DEBUG_STATS_RL:          Wvel (THERMODYNAMICS) mean= -3.27704356745046E-07
DEBUG_STATS_RL:          Wvel (THERMODYNAMICS) S.D.=  1.49721752646517E-05
DEBUG_STATS_RL:         Theta (THERMODYNAMICS)  min= -1.99931516071170E+00
DEBUG_STATS_RL:         Theta (THERMODYNAMICS)  max=  3.02334521868388E+01
DEBUG_STATS_RL:         Theta (THERMODYNAMICS) mean=  3.23412398751626E+00
DEBUG_STATS_RL:         Theta (THERMODYNAMICS) S.D.=  5.86400042834315E+00
DEBUG_STATS_RL:          Salt (THERMODYNAMICS)  min=  2.00000000000000E-02
DEBUG_STATS_RL:          Salt (THERMODYNAMICS)  max=  3.74773186879006E+01
DEBUG_STATS_RL:          Salt (THERMODYNAMICS) mean=  1.88648613318538E+01
DEBUG_STATS_RL:          Salt (THERMODYNAMICS) S.D.=  1.73003817425355E+01
DEBUG_STATS_RL:         GtNm1 (THERMODYNAMICS)  min= -3.66315414421673E-06
DEBUG_STATS_RL:         GtNm1 (THERMODYNAMICS)  max=  2.68007362144377E-06
DEBUG_STATS_RL:         GtNm1 (THERMODYNAMICS) mean=  1.24448128954231E-08
DEBUG_STATS_RL:         GtNm1 (THERMODYNAMICS) S.D.=  2.08756378842727E-07
DEBUG_STATS_RL:         GsNm1 (THERMODYNAMICS)  min= -4.29973722971778E-07
DEBUG_STATS_RL:         GsNm1 (THERMODYNAMICS)  max=  3.20945894733672E-07
DEBUG_STATS_RL:         GsNm1 (THERMODYNAMICS) mean=  1.35834854226436E-10
DEBUG_STATS_RL:         GsNm1 (THERMODYNAMICS) S.D.=  1.89313095029887E-08
DEBUG_STATS_RL:                EtaN (DYNAMICS)  min= -1.82323934268467E+00
DEBUG_STATS_RL:                EtaN (DYNAMICS)  max=  1.06131005051745E+00
DEBUG_STATS_RL:                EtaN (DYNAMICS) mean= -1.81410308069997E-01
DEBUG_STATS_RL:                EtaN (DYNAMICS) S.D.=  7.82799289452958E-01
DEBUG_STATS_RL:                Uvel (DYNAMICS)  min= -1.62597486378426E-01
DEBUG_STATS_RL:                Uvel (DYNAMICS)  max=  1.47910772654663E-01
DEBUG_STATS_RL:                Uvel (DYNAMICS) mean=  3.15693549200065E-03
DEBUG_STATS_RL:                Uvel (DYNAMICS) S.D.=  2.66164721380976E-02
DEBUG_STATS_RL:                Vvel (DYNAMICS)  min= -1.15685304568150E-01
DEBUG_STATS_RL:                Vvel (DYNAMICS)  max=  1.60352064855285E-01
DEBUG_STATS_RL:                Vvel (DYNAMICS) mean=  1.23364270804406E-04
DEBUG_STATS_RL:                Vvel (DYNAMICS) S.D.=  1.57004022513764E-02
DEBUG_STATS_RL:                Wvel (DYNAMICS)  min= -1.43885631393285E-04
DEBUG_STATS_RL:                Wvel (DYNAMICS)  max=  9.61656820913964E-05
DEBUG_STATS_RL:                Wvel (DYNAMICS) mean= -3.27704356745046E-07
DEBUG_STATS_RL:                Wvel (DYNAMICS) S.D.=  1.49721752646517E-05
DEBUG_STATS_RL:               Theta (DYNAMICS)  min= -1.99931516071170E+00
DEBUG_STATS_RL:               Theta (DYNAMICS)  max=  3.02334521868388E+01
DEBUG_STATS_RL:               Theta (DYNAMICS) mean=  3.23412398751626E+00
DEBUG_STATS_RL:               Theta (DYNAMICS) S.D.=  5.86400042834315E+00
DEBUG_STATS_RL:                Salt (DYNAMICS)  min=  2.00000000000000E-02
DEBUG_STATS_RL:                Salt (DYNAMICS)  max=  3.74773186879006E+01
DEBUG_STATS_RL:                Salt (DYNAMICS) mean=  1.88648613318538E+01
DEBUG_STATS_RL:                Salt (DYNAMICS) S.D.=  1.73003817425355E+01
DEBUG_STATS_RL:                  Gu (DYNAMICS)  min= -1.62149562184683E-01
DEBUG_STATS_RL:                  Gu (DYNAMICS)  max=  1.51001181224045E-01
DEBUG_STATS_RL:                  Gu (DYNAMICS) mean=  2.80789223231816E-03
DEBUG_STATS_RL:                  Gu (DYNAMICS) S.D.=  2.71518603471532E-02
DEBUG_STATS_RL:                  Gv (DYNAMICS)  min= -1.11683793706173E-01
DEBUG_STATS_RL:                  Gv (DYNAMICS)  max=  1.58728939854217E-01
DEBUG_STATS_RL:                  Gv (DYNAMICS) mean=  2.49436971989704E-03
DEBUG_STATS_RL:                  Gv (DYNAMICS) S.D.=  1.58052056751588E-02
DEBUG_STATS_RL:               GuNm1 (DYNAMICS)  min= -9.18086992794782E-06
DEBUG_STATS_RL:               GuNm1 (DYNAMICS)  max=  8.44186985956829E-06
DEBUG_STATS_RL:               GuNm1 (DYNAMICS) mean= -1.72835937537976E-08
DEBUG_STATS_RL:               GuNm1 (DYNAMICS) S.D.=  1.17528329728936E-06
DEBUG_STATS_RL:               GvNm1 (DYNAMICS)  min= -1.03346159142379E-05
DEBUG_STATS_RL:               GvNm1 (DYNAMICS)  max=  1.63597764993238E-05
DEBUG_STATS_RL:               GvNm1 (DYNAMICS) mean=  7.46027235173576E-07
DEBUG_STATS_RL:               GvNm1 (DYNAMICS) S.D.=  2.60558946471424E-06
DEBUG_STATS_RL:               GtNm1 (DYNAMICS)  min= -3.66315414421673E-06
DEBUG_STATS_RL:               GtNm1 (DYNAMICS)  max=  2.68007362144377E-06
DEBUG_STATS_RL:               GtNm1 (DYNAMICS) mean=  1.24448128954231E-08
DEBUG_STATS_RL:               GtNm1 (DYNAMICS) S.D.=  2.08756378842727E-07
DEBUG_STATS_RL:               GsNm1 (DYNAMICS)  min= -4.29973722971778E-07
DEBUG_STATS_RL:               GsNm1 (DYNAMICS)  max=  3.20945894733672E-07
DEBUG_STATS_RL:               GsNm1 (DYNAMICS) mean=  1.35834854226436E-10
DEBUG_STATS_RL:               GsNm1 (DYNAMICS) S.D.=  1.89313095029887E-08
DEBUG_STATS_RL:    cg2d_b (SOLVE_FOR_PRESSURE)  min= -2.44156324213662E+04
DEBUG_STATS_RL:    cg2d_b (SOLVE_FOR_PRESSURE)  max=  1.65059195404198E+04
DEBUG_STATS_RL:    cg2d_b (SOLVE_FOR_PRESSURE) mean=  2.95147545114063E+00
DEBUG_STATS_RL:    cg2d_b (SOLVE_FOR_PRESSURE) S.D.=  3.75654337796095E+03
 cg2d: Sum(rhs),rhsMax =   2.79847990478828E-01  1.60368410847734E+00
(PID.TID 0000.0001)  cg2d: iter=     1 ; resid.=  2.24215022670196E-01
(PID.TID 0000.0001)  cg2d: iter=     2 ; resid.=  1.85442693690438E-01
(PID.TID 0000.0001)  cg2d: iter=     3 ; resid.=  1.80461580708363E-01
(PID.TID 0000.0001)  cg2d: iter=     4 ; resid.=  1.53794176721619E-01
(PID.TID 0000.0001)  cg2d: iter=     5 ; resid.=  1.26167415130055E-01
(PID.TID 0000.0001)  cg2d: iter=     6 ; resid.=  1.00754243019818E-01
(PID.TID 0000.0001)  cg2d: iter=     7 ; resid.=  8.27467732228525E-02
(PID.TID 0000.0001)  cg2d: iter=     8 ; resid.=  7.01582150316929E-02
(PID.TID 0000.0001)  cg2d: iter=     9 ; resid.=  6.02839825689519E-02
(PID.TID 0000.0001)  cg2d: iter=    10 ; resid.=  4.94960376483557E-02
(PID.TID 0000.0001)  cg2d: iter=    11 ; resid.=  4.48000970048942E-02
(PID.TID 0000.0001)  cg2d: iter=    12 ; resid.=  3.91415112552868E-02
(PID.TID 0000.0001)  cg2d: iter=    13 ; resid.=  3.05885072516001E-02
(PID.TID 0000.0001)  cg2d: iter=    14 ; resid.=  2.54261387067036E-02
(PID.TID 0000.0001)  cg2d: iter=    15 ; resid.=  2.09736572886357E-02
(PID.TID 0000.0001)  cg2d: iter=    16 ; resid.=  1.80850209413162E-02
(PID.TID 0000.0001)  cg2d: iter=    17 ; resid.=  1.51250048286950E-02
(PID.TID 0000.0001)  cg2d: iter=    18 ; resid.=  1.24968721026726E-02
(PID.TID 0000.0001)  cg2d: iter=    19 ; resid.=  1.01011086510614E-02
(PID.TID 0000.0001)  cg2d: iter=    20 ; resid.=  7.96975023105069E-03
(PID.TID 0000.0001)  cg2d: iter=    21 ; resid.=  6.49824452138912E-03
(PID.TID 0000.0001)  cg2d: iter=    22 ; resid.=  5.36060207033791E-03
(PID.TID 0000.0001)  cg2d: iter=    23 ; resid.=  4.40620040938171E-03
(PID.TID 0000.0001)  cg2d: iter=    24 ; resid.=  3.72679769484162E-03
(PID.TID 0000.0001)  cg2d: iter=    25 ; resid.=  2.93026703392381E-03
(PID.TID 0000.0001)  cg2d: iter=    26 ; resid.=  2.42833241864499E-03
(PID.TID 0000.0001)  cg2d: iter=    27 ; resid.=  2.08201749840221E-03
(PID.TID 0000.0001)  cg2d: iter=    28 ; resid.=  1.86428110622693E-03
(PID.TID 0000.0001)  cg2d: iter=    29 ; resid.=  1.62478123190682E-03
(PID.TID 0000.0001)  cg2d: iter=    30 ; resid.=  1.40389317350415E-03
(PID.TID 0000.0001)  cg2d: iter=    31 ; resid.=  1.11513668109504E-03
(PID.TID 0000.0001)  cg2d: iter=    32 ; resid.=  8.35850556930333E-04
(PID.TID 0000.0001)  cg2d: iter=    33 ; resid.=  7.11744940512997E-04
(PID.TID 0000.0001)  cg2d: iter=    34 ; resid.=  6.32574281517396E-04
(PID.TID 0000.0001)  cg2d: iter=    35 ; resid.=  4.94365119946860E-04
(PID.TID 0000.0001)  cg2d: iter=    36 ; resid.=  3.79904655380550E-04
(PID.TID 0000.0001)  cg2d: iter=    37 ; resid.=  2.87666292793594E-04
(PID.TID 0000.0001)  cg2d: iter=    38 ; resid.=  2.43384586459492E-04
(PID.TID 0000.0001)  cg2d: iter=    39 ; resid.=  2.10621299340314E-04
(PID.TID 0000.0001)  cg2d: iter=    40 ; resid.=  1.80174110863808E-04
(PID.TID 0000.0001)  cg2d: iter=    41 ; resid.=  1.59996699528135E-04
(PID.TID 0000.0001)  cg2d: iter=    42 ; resid.=  1.43369181435030E-04
(PID.TID 0000.0001)  cg2d: iter=    43 ; resid.=  1.27673949348412E-04
(PID.TID 0000.0001)  cg2d: iter=    44 ; resid.=  1.04333538834220E-04
(PID.TID 0000.0001)  cg2d: iter=    45 ; resid.=  8.20108029469520E-05
(PID.TID 0000.0001)  cg2d: iter=    46 ; resid.=  6.58660081773817E-05
(PID.TID 0000.0001)  cg2d: iter=    47 ; resid.=  6.05196504035609E-05
(PID.TID 0000.0001)  cg2d: iter=    48 ; resid.=  5.23147812150665E-05
(PID.TID 0000.0001)  cg2d: iter=    49 ; resid.=  4.32817448525645E-05
(PID.TID 0000.0001)  cg2d: iter=    50 ; resid.=  3.69735593439006E-05
(PID.TID 0000.0001)  cg2d: iter=    51 ; resid.=  3.07602980208806E-05
(PID.TID 0000.0001)  cg2d: iter=    52 ; resid.=  2.50596291103317E-05
(PID.TID 0000.0001)  cg2d: iter=    53 ; resid.=  2.11113990921164E-05
(PID.TID 0000.0001)  cg2d: iter=    54 ; resid.=  1.85127821549377E-05
(PID.TID 0000.0001)  cg2d: iter=    55 ; resid.=  1.60216960081181E-05
(PID.TID 0000.0001)  cg2d: iter=    56 ; resid.=  1.24033046714280E-05
(PID.TID 0000.0001)  cg2d: iter=    57 ; resid.=  9.54957638323158E-06
(PID.TID 0000.0001)  cg2d: iter=    58 ; resid.=  7.61237071668161E-06
(PID.TID 0000.0001)  cg2d: iter=    59 ; resid.=  6.28370464106408E-06
(PID.TID 0000.0001)  cg2d: iter=    60 ; resid.=  5.05631091245694E-06
(PID.TID 0000.0001)  cg2d: iter=    61 ; resid.=  4.06804618861555E-06
(PID.TID 0000.0001)  cg2d: iter=    62 ; resid.=  3.51548288406430E-06
(PID.TID 0000.0001)  cg2d: iter=    63 ; resid.=  3.07095916559479E-06
(PID.TID 0000.0001)  cg2d: iter=    64 ; resid.=  2.66728377921386E-06
(PID.TID 0000.0001)  cg2d: iter=    65 ; resid.=  2.31137447216484E-06
(PID.TID 0000.0001)  cg2d: iter=    66 ; resid.=  2.01383122774109E-06
(PID.TID 0000.0001)  cg2d: iter=    67 ; resid.=  1.70302738570735E-06
(PID.TID 0000.0001)  cg2d: iter=    68 ; resid.=  1.39452180259752E-06
(PID.TID 0000.0001)  cg2d: iter=    69 ; resid.=  1.00839734989138E-06
(PID.TID 0000.0001)  cg2d: iter=    70 ; resid.=  7.85482734456785E-07
(PID.TID 0000.0001)  cg2d: iter=    71 ; resid.=  6.86004596206612E-07
(PID.TID 0000.0001)  cg2d: iter=    72 ; resid.=  5.99231798126184E-07
(PID.TID 0000.0001)  cg2d: iter=    73 ; resid.=  5.13491568813728E-07
(PID.TID 0000.0001)  cg2d: iter=    74 ; resid.=  4.22654535482747E-07
(PID.TID 0000.0001)  cg2d: iter=    75 ; resid.=  3.34886804792359E-07
(PID.TID 0000.0001)  cg2d: iter=    76 ; resid.=  2.88164527963908E-07
(PID.TID 0000.0001)  cg2d: iter=    77 ; resid.=  2.48899616534785E-07
(PID.TID 0000.0001)  cg2d: iter=    78 ; resid.=  2.14175693559190E-07
(PID.TID 0000.0001)  cg2d: iter=    79 ; resid.=  1.75873492718655E-07
(PID.TID 0000.0001)  cg2d: iter=    80 ; resid.=  1.39060562623431E-07
(PID.TID 0000.0001)  cg2d: iter=    81 ; resid.=  1.08805593491071E-07
(PID.TID 0000.0001)  cg2d: iter=    82 ; resid.=  7.98706079695139E-08
(PID.TID 0000.0001)  cg2d: iter=    83 ; resid.=  5.66519326896050E-08
(PID.TID 0000.0001)  cg2d: iter=    84 ; resid.=  4.53349880912670E-08
(PID.TID 0000.0001)  cg2d: iter=    85 ; resid.=  3.51714081143443E-08
(PID.TID 0000.0001)  cg2d: iter=    86 ; resid.=  2.84751888536639E-08
(PID.TID 0000.0001)  cg2d: iter=    87 ; resid.=  2.25405013437185E-08
(PID.TID 0000.0001)  cg2d: iter=    88 ; resid.=  1.89804754631563E-08
(PID.TID 0000.0001)  cg2d: iter=    89 ; resid.=  1.66159924134801E-08
(PID.TID 0000.0001)  cg2d: iter=    90 ; resid.=  1.28240935203119E-08
(PID.TID 0000.0001)  cg2d: iter=    91 ; resid.=  9.41146521920579E-09
(PID.TID 0000.0001)  cg2d: iter=    92 ; resid.=  6.74506526402782E-09
(PID.TID 0000.0001)  cg2d: iter=    93 ; resid.=  5.07769610169826E-09
(PID.TID 0000.0001)  cg2d: iter=    94 ; resid.=  3.80833314029492E-09
(PID.TID 0000.0001)  cg2d: iter=    95 ; resid.=  3.18372716616026E-09
(PID.TID 0000.0001)  cg2d: iter=    96 ; resid.=  2.47351422472766E-09
(PID.TID 0000.0001)  cg2d: iter=    97 ; resid.=  1.96075017866864E-09
(PID.TID 0000.0001)  cg2d: iter=    98 ; resid.=  1.54217744738530E-09
(PID.TID 0000.0001)  cg2d: iter=    99 ; resid.=  1.36220233290884E-09
(PID.TID 0000.0001)  cg2d: iter=   100 ; resid.=  1.25116872253543E-09
(PID.TID 0000.0001)  cg2d: iter=   101 ; resid.=  1.03093321526719E-09
(PID.TID 0000.0001)  cg2d: iter=   102 ; resid.=  7.96806266873663E-10
(PID.TID 0000.0001)  cg2d: iter=   103 ; resid.=  6.59009374763769E-10
(PID.TID 0000.0001)  cg2d: iter=   104 ; resid.=  5.27443718471497E-10
(PID.TID 0000.0001)  cg2d: iter=   105 ; resid.=  4.03053092322996E-10
(PID.TID 0000.0001)  cg2d: iter=   106 ; resid.=  3.31380627274185E-10
(PID.TID 0000.0001)  cg2d: iter=   107 ; resid.=  2.53608123662406E-10
(PID.TID 0000.0001)  cg2d: iter=   108 ; resid.=  2.07294196932972E-10
(PID.TID 0000.0001)  cg2d: iter=   109 ; resid.=  1.67597398447699E-10
(PID.TID 0000.0001)  cg2d: iter=   110 ; resid.=  1.42093185800719E-10
(PID.TID 0000.0001)  cg2d: iter=   111 ; resid.=  1.19390068657321E-10
(PID.TID 0000.0001)  cg2d: iter=   112 ; resid.=  8.54993209240103E-11
(PID.TID 0000.0001)  cg2d: iter=   113 ; resid.=  6.25281155469239E-11
(PID.TID 0000.0001)  cg2d: iter=   114 ; resid.=  4.92145848439655E-11
(PID.TID 0000.0001)  cg2d: iter=   115 ; resid.=  3.64758816269988E-11
(PID.TID 0000.0001)  cg2d: iter=   116 ; resid.=  2.67402642455891E-11
(PID.TID 0000.0001)  cg2d: iter=   117 ; resid.=  2.05446077599265E-11
(PID.TID 0000.0001)  cg2d: iter=   118 ; resid.=  1.54847631024911E-11
(PID.TID 0000.0001)  cg2d: iter=   119 ; resid.=  1.19462499117806E-11
(PID.TID 0000.0001)  cg2d: iter=   120 ; resid.=  8.76581252366667E-12
(PID.TID 0000.0001)  cg2d: iter=   121 ; resid.=  6.91534564753218E-12
(PID.TID 0000.0001)  cg2d: iter=   122 ; resid.=  5.38496542544844E-12
(PID.TID 0000.0001)  cg2d: iter=   123 ; resid.=  3.84487534220340E-12
(PID.TID 0000.0001)  cg2d: iter=   124 ; resid.=  2.51793114347030E-12
(PID.TID 0000.0001)  cg2d: iter=   125 ; resid.=  1.73280683888760E-12
(PID.TID 0000.0001)  cg2d: iter=   126 ; resid.=  1.35683558858413E-12
(PID.TID 0000.0001)  cg2d: iter=   127 ; resid.=  9.96392235876766E-13
(PID.TID 0000.0001)  cg2d: iter=   128 ; resid.=  7.41493002173915E-13
(PID.TID 0000.0001)  cg2d: iter=   129 ; resid.=  5.51880204051690E-13
(PID.TID 0000.0001)  cg2d: iter=   130 ; resid.=  4.34914679767606E-13
(PID.TID 0000.0001)  cg2d: iter=   131 ; resid.=  3.37951917547810E-13
(PID.TID 0000.0001)  cg2d: iter=   132 ; resid.=  2.57972760679720E-13
(PID.TID 0000.0001)  cg2d: iter=   133 ; resid.=  1.96013688723137E-13
(PID.TID 0000.0001)  cg2d: iter=   134 ; resid.=  1.50711551339441E-13
(PID.TID 0000.0001)  cg2d: iter=   135 ; resid.=  1.19386841411754E-13
(PID.TID 0000.0001)  cg2d: iter=   136 ; resid.=  8.57384617193222E-14
DEBUG_STATS_RL:    cg2d_x (SOLVE_FOR_PRESSURE)  min= -1.80598179944733E+01
DEBUG_STATS_RL:    cg2d_x (SOLVE_FOR_PRESSURE)  max=  1.05462269529706E+01
DEBUG_STATS_RL:    cg2d_x (SOLVE_FOR_PRESSURE) mean= -1.81043136893635E+00
DEBUG_STATS_RL:    cg2d_x (SOLVE_FOR_PRESSURE) S.D.=  7.82765681001226E+00
(PID.TID 0000.0001)      cg2d_init_res =   4.11244013462587E-01
(PID.TID 0000.0001)      cg2d_iters(min,last) =      -1     136
(PID.TID 0000.0001)      cg2d_last_res =   8.57384617193222E-14
(PID.TID 0000.0001) // =======================================================
(PID.TID 0000.0001) // Begin MONITOR dynamic field statistics
(PID.TID 0000.0001) // =======================================================
(PID.TID 0000.0001) %MON time_tsnumber                =                    41
(PID.TID 0000.0001) %MON time_secondsf                =   3.5424000000000E+06
(PID.TID 0000.0001) %MON dynstat_eta_max              =   1.0750486190592E+00
(PID.TID 0000.0001) %MON dynstat_eta_min              =  -1.8409600402115E+00
(PID.TID 0000.0001) %MON dynstat_eta_mean             =  -3.0794986623914E-03
(PID.TID 0000.0001) %MON dynstat_eta_sd               =   7.2591459339676E-01
(PID.TID 0000.0001) %MON dynstat_eta_del2             =   2.2493263128386E-03
(PID.TID 0000.0001) %MON dynstat_uvel_max             =   1.4996304514644E-01
(PID.TID 0000.0001) %MON dynstat_uvel_min             =  -1.6253318386200E-01
(PID.TID 0000.0001) %MON dynstat_uvel_mean            =   1.1210662860861E-03
(PID.TID 0000.0001) %MON dynstat_uvel_sd              =   1.8579974452474E-02
(PID.TID 0000.0001) %MON dynstat_uvel_del2            =   1.0186156856568E-04
(PID.TID 0000.0001) %MON dynstat_vvel_max             =   1.5672074746936E-01
(PID.TID 0000.0001) %MON dynstat_vvel_min             =  -1.1594681047015E-01
(PID.TID 0000.0001) %MON dynstat_vvel_mean            =  -5.4282374179113E-05
(PID.TID 0000.0001) %MON dynstat_vvel_sd              =   1.0775706676854E-02
(PID.TID 0000.0001) %MON dynstat_vvel_del2            =   8.9779216114882E-05
(PID.TID 0000.0001) %MON dynstat_wvel_max             =   1.0167011612352E-04
(PID.TID 0000.0001) %MON dynstat_wvel_min             =  -1.5279508516575E-04
(PID.TID 0000.0001) %MON dynstat_wvel_mean            =  -3.4795312013927E-23
(PID.TID 0000.0001) %MON dynstat_wvel_sd              =   1.7125379132067E-05
(PID.TID 0000.0001) %MON dynstat_wvel_del2            =   1.7249360811772E-07
(PID.TID 0000.0001) %MON dynstat_theta_max            =   3.0233452186839E+01
(PID.TID 0000.0001) %MON dynstat_theta_min            =  -1.9993151607117E+00
(PID.TID 0000.0001) %MON dynstat_theta_mean           =   3.6418158778187E+00
(PID.TID 0000.0001) %MON dynstat_theta_sd             =   4.4192234877504E+00
(PID.TID 0000.0001) %MON dynstat_theta_del2           =   4.7535036170136E-03
(PID.TID 0000.0001) %MON dynstat_salt_max             =   3.7477318687901E+01
(PID.TID 0000.0001) %MON dynstat_salt_min             =   2.9840038314931E+01
(PID.TID 0000.0001) %MON dynstat_salt_mean            =   3.4738016597192E+01
(PID.TID 0000.0001) %MON dynstat_salt_sd              =   2.9638257226552E-01
(PID.TID 0000.0001) %MON dynstat_salt_del2            =   9.8685226290503E-04
(PID.TID 0000.0001) %MON dynstat_sst_max              =   3.0233452186839E+01
(PID.TID 0000.0001) %MON dynstat_sst_min              =  -1.9993151607117E+00
(PID.TID 0000.0001) %MON dynstat_sst_mean             =   1.8864342047813E+01
(PID.TID 0000.0001) %MON dynstat_sst_sd               =   9.0128316349060E+00
(PID.TID 0000.0001) %MON dynstat_sst_del2             =   2.7081101430383E-02
(PID.TID 0000.0001) %MON dynstat_sss_max              =   3.7449812768306E+01
(PID.TID 0000.0001) %MON dynstat_sss_min              =   2.9840038314931E+01
(PID.TID 0000.0001) %MON dynstat_sss_mean             =   3.4864471967252E+01
(PID.TID 0000.0001) %MON dynstat_sss_sd               =   9.7689397492074E-01
(PID.TID 0000.0001) %MON dynstat_sss_del2             =   7.8750533253420E-03
(PID.TID 0000.0001) %MON forcing_qnet_max             =   3.6522328694661E+02
(PID.TID 0000.0001) %MON forcing_qnet_min             =  -1.7403156534831E+02
(PID.TID 0000.0001) %MON forcing_qnet_mean            =  -1.4389796815960E+01
(PID.TID 0000.0001) %MON forcing_qnet_sd              =   8.4259729047287E+01
(PID.TID 0000.0001) %MON forcing_qnet_del2            =   9.5401834956669E-01
(PID.TID 0000.0001) %MON forcing_qsw_max              =   0.0000000000000E+00
(PID.TID 0000.0001) %MON forcing_qsw_min              =   0.0000000000000E+00
(PID.TID 0000.0001) %MON forcing_qsw_mean             =   0.0000000000000E+00
(PID.TID 0000.0001) %MON forcing_qsw_sd               =   0.0000000000000E+00
(PID.TID 0000.0001) %MON forcing_qsw_del2             =   0.0000000000000E+00
(PID.TID 0000.0001) %MON forcing_empmr_max            =   7.4321995668925E-05
(PID.TID 0000.0001) %MON forcing_empmr_min            =  -7.8147062746818E-05
(PID.TID 0000.0001) %MON forcing_empmr_mean           =   9.3999699360960E-07
(PID.TID 0000.0001) %MON forcing_empmr_sd             =   2.8003424718777E-05
(PID.TID 0000.0001) %MON forcing_empmr_del2           =   3.5419346009159E-07
(PID.TID 0000.0001) %MON forcing_fu_max               =   2.9769973456860E-01
(PID.TID 0000.0001) %MON forcing_fu_min               =  -2.0743273198605E-01
(PID.TID 0000.0001) %MON forcing_fu_mean              =   1.7359240539291E-02
(PID.TID 0000.0001) %MON forcing_fu_sd                =   9.1619137544782E-02
(PID.TID 0000.0001) %MON forcing_fu_del2              =   7.0729330182073E-04
(PID.TID 0000.0001) %MON forcing_fv_max               =   1.9102514038483E-01
(PID.TID 0000.0001) %MON forcing_fv_min               =  -1.8381976087888E-01
(PID.TID 0000.0001) %MON forcing_fv_mean              =  -6.8904204073845E-03
(PID.TID 0000.0001) %MON forcing_fv_sd                =   4.4605886402216E-02
(PID.TID 0000.0001) %MON forcing_fv_del2              =   5.0576945240665E-04
(PID.TID 0000.0001) %MON trAdv_CFL_u_max              =   4.8899708590104E-02
(PID.TID 0000.0001) %MON trAdv_CFL_v_max              =   3.2637959615324E-02
(PID.TID 0000.0001) %MON trAdv_CFL_w_max              =   4.7398286139368E-02
(PID.TID 0000.0001) %MON advcfl_uvel_max              =   4.9568127883836E-02
(PID.TID 0000.0001) %MON advcfl_vvel_max              =   3.0448327734695E-02
(PID.TID 0000.0001) %MON advcfl_wvel_max              =   4.0210476477443E-02
(PID.TID 0000.0001) %MON advcfl_W_hf_max              =   4.7390918705558E-02
(PID.TID 0000.0001) %MON pe_b_mean                    =   6.7431073009836E-04
(PID.TID 0000.0001) %MON ke_max                       =   1.6271337899779E-02
(PID.TID 0000.0001) %MON ke_mean                      =   2.0953840194323E-04
(PID.TID 0000.0001) %MON ke_vol                       =   1.3226782436723E+18
(PID.TID 0000.0001) %MON vort_r_min                   =  -4.6996697268479E-07
(PID.TID 0000.0001) %MON vort_r_max                   =   4.7938566752990E-07
(PID.TID 0000.0001) %MON vort_a_mean                  =  -2.5274806510247E-05
(PID.TID 0000.0001) %MON vort_a_sd                    =   7.3604488030235E-05
(PID.TID 0000.0001) %MON vort_p_mean                  =  -3.1845654681616E-05
(PID.TID 0000.0001) %MON vort_p_sd                    =   1.3162429031733E-04
(PID.TID 0000.0001) %MON surfExpan_theta_mean         =   4.7704445408609E-07
(PID.TID 0000.0001) %MON surfExpan_salt_mean          =  -5.2364690540016E-08
(PID.TID 0000.0001) // =======================================================
(PID.TID 0000.0001) // End MONITOR dynamic field statistics
(PID.TID 0000.0001) // =======================================================
 EXTERNAL_FIELDS_LOAD,        41 : iP,iLd,i0,i1=    1    2    1    2 ; Wght=  0.1333333333  0.8666666667
 EXTERNAL_FIELDS_LOAD: (fu0,1),fu,fv= -3.5633E-02 -1.4435E-02 -1.7261E-02 -2.2918E-02
 EXTERNAL_FIELDS_LOAD: SST,SSS,Q,E-P= -3.3315E-01  3.4460E+01  2.4385E+02  8.8118E-06
DEBUG_STATS_RL:          Uvel (THERMODYNAMICS)  min= -1.62533183861997E-01
DEBUG_STATS_RL:          Uvel (THERMODYNAMICS)  max=  1.49963045146439E-01
DEBUG_STATS_RL:          Uvel (THERMODYNAMICS) mean=  2.96892654567811E-03
DEBUG_STATS_RL:          Uvel (THERMODYNAMICS) S.D.=  2.67043435279771E-02
DEBUG_STATS_RL:          Vvel (THERMODYNAMICS)  min= -1.15946810470150E-01
DEBUG_STATS_RL:          Vvel (THERMODYNAMICS)  max=  1.56720747469362E-01
DEBUG_STATS_RL:          Vvel (THERMODYNAMICS) mean=  3.08217955971948E-04
DEBUG_STATS_RL:          Vvel (THERMODYNAMICS) S.D.=  1.57472242667439E-02
DEBUG_STATS_RL:          Wvel (THERMODYNAMICS)  min= -1.52795085165745E-04
DEBUG_STATS_RL:          Wvel (THERMODYNAMICS)  max=  1.01670116123515E-04
DEBUG_STATS_RL:          Wvel (THERMODYNAMICS) mean= -2.95936183399571E-07
DEBUG_STATS_RL:          Wvel (THERMODYNAMICS) S.D.=  1.48704012723968E-05
DEBUG_STATS_RL:         Theta (THERMODYNAMICS)  min= -1.99793234744079E+00
DEBUG_STATS_RL:         Theta (THERMODYNAMICS)  max=  3.02578807178378E+01
DEBUG_STATS_RL:         Theta (THERMODYNAMICS) mean=  3.23466916439093E+00
DEBUG_STATS_RL:         Theta (THERMODYNAMICS) S.D.=  5.86479873756867E+00
DEBUG_STATS_RL:          Salt (THERMODYNAMICS)  min=  2.00000000000000E-02
DEBUG_STATS_RL:          Salt (THERMODYNAMICS)  max=  3.74776787937636E+01
DEBUG_STATS_RL:          Salt (THERMODYNAMICS) mean=  1.88648726921445E+01
DEBUG_STATS_RL:          Salt (THERMODYNAMICS) S.D.=  1.73003927451009E+01
DEBUG_STATS_RL:         GtNm1 (THERMODYNAMICS)  min= -3.80587815012258E-06
DEBUG_STATS_RL:         GtNm1 (THERMODYNAMICS)  max=  2.78929360742862E-06
DEBUG_STATS_RL:         GtNm1 (THERMODYNAMICS) mean=  1.20992818827645E-08
DEBUG_STATS_RL:         GtNm1 (THERMODYNAMICS) S.D.=  2.08813145020402E-07
DEBUG_STATS_RL:         GsNm1 (THERMODYNAMICS)  min= -4.17798103603278E-07
DEBUG_STATS_RL:         GsNm1 (THERMODYNAMICS)  max=  3.35876855868590E-07
DEBUG_STATS_RL:         GsNm1 (THERMODYNAMICS) mean=  1.77217345742890E-10
DEBUG_STATS_RL:         GsNm1 (THERMODYNAMICS) S.D.=  1.91484125329965E-08
DEBUG_STATS_RL:                EtaN (DYNAMICS)  min= -1.84096004021150E+00
DEBUG_STATS_RL:                EtaN (DYNAMICS)  max=  1.07504861905916E+00
DEBUG_STATS_RL:                EtaN (DYNAMICS) mean= -1.84549578892595E-01
DEBUG_STATS_RL:                EtaN (DYNAMICS) S.D.=  7.97926280327453E-01
DEBUG_STATS_RL:                Uvel (DYNAMICS)  min= -1.62533183861997E-01
DEBUG_STATS_RL:                Uvel (DYNAMICS)  max=  1.49963045146439E-01
DEBUG_STATS_RL:                Uvel (DYNAMICS) mean=  2.96892654567811E-03
DEBUG_STATS_RL:                Uvel (DYNAMICS) S.D.=  2.67043435279771E-02
DEBUG_STATS_RL:                Vvel (DYNAMICS)  min= -1.15946810470150E-01
DEBUG_STATS_RL:                Vvel (DYNAMICS)  max=  1.56720747469362E-01
DEBUG_STATS_RL:                Vvel (DYNAMICS) mean=  3.08217955971948E-04
DEBUG_STATS_RL:                Vvel (DYNAMICS) S.D.=  1.57472242667439E-02
DEBUG_STATS_RL:                Wvel (DYNAMICS)  min= -1.52795085165745E-04
DEBUG_STATS_RL:                Wvel (DYNAMICS)  max=  1.01670116123515E-04
DEBUG_STATS_RL:                Wvel (DYNAMICS) mean= -2.95936183399571E-07
DEBUG_STATS_RL:                Wvel (DYNAMICS) S.D.=  1.48704012723968E-05
DEBUG_STATS_RL:               Theta (DYNAMICS)  min= -1.99793234744079E+00
DEBUG_STATS_RL:               Theta (DYNAMICS)  max=  3.02578807178378E+01
DEBUG_STATS_RL:               Theta (DYNAMICS) mean=  3.23466916439093E+00
DEBUG_STATS_RL:               Theta (DYNAMICS) S.D.=  5.86479873756867E+00
DEBUG_STATS_RL:                Salt (DYNAMICS)  min=  2.00000000000000E-02
DEBUG_STATS_RL:                Salt (DYNAMICS)  max=  3.74776787937636E+01
DEBUG_STATS_RL:                Salt (DYNAMICS) mean=  1.88648726921445E+01
DEBUG_STATS_RL:                Salt (DYNAMICS) S.D.=  1.73003927451009E+01
DEBUG_STATS_RL:                  Gu (DYNAMICS)  min= -1.62536930076316E-01
DEBUG_STATS_RL:                  Gu (DYNAMICS)  max=  1.55588761258321E-01
DEBUG_STATS_RL:                  Gu (DYNAMICS) mean=  2.63878530215132E-03
DEBUG_STATS_RL:                  Gu (DYNAMICS) S.D.=  2.71648886073323E-02
DEBUG_STATS_RL:                  Gv (DYNAMICS)  min= -1.11765263026975E-01
DEBUG_STATS_RL:                  Gv (DYNAMICS)  max=  1.52995844306601E-01
DEBUG_STATS_RL:                  Gv (DYNAMICS) mean=  2.65811448895389E-03
DEBUG_STATS_RL:                  Gv (DYNAMICS) S.D.=  1.59528558717742E-02
DEBUG_STATS_RL:               GuNm1 (DYNAMICS)  min= -9.24691873781496E-06
DEBUG_STATS_RL:               GuNm1 (DYNAMICS)  max=  8.49694735905586E-06
DEBUG_STATS_RL:               GuNm1 (DYNAMICS) mean= -1.56308182184067E-08
DEBUG_STATS_RL:               GuNm1 (DYNAMICS) S.D.=  1.17439840711828E-06
DEBUG_STATS_RL:               GvNm1 (DYNAMICS)  min= -1.02071395685771E-05
DEBUG_STATS_RL:               GvNm1 (DYNAMICS)  max=  1.63582331245246E-05
DEBUG_STATS_RL:               GvNm1 (DYNAMICS) mean=  7.45066113289515E-07
DEBUG_STATS_RL:               GvNm1 (DYNAMICS) S.D.=  2.60118747907885E-06
DEBUG_STATS_RL:               GtNm1 (DYNAMICS)  min= -3.80587815012258E-06
DEBUG_STATS_RL:               GtNm1 (DYNAMICS)  max=  2.78929360742862E-06
DEBUG_STATS_RL:               GtNm1 (DYNAMICS) mean=  1.20992818827645E-08
DEBUG_STATS_RL:               GtNm1 (DYNAMICS) S.D.=  2.08813145020402E-07
DEBUG_STATS_RL:               GsNm1 (DYNAMICS)  min= -4.17798103603278E-07
DEBUG_STATS_RL:               GsNm1 (DYNAMICS)  max=  3.35876855868590E-07
DEBUG_STATS_RL:               GsNm1 (DYNAMICS) mean=  1.77217345742890E-10
DEBUG_STATS_RL:               GsNm1 (DYNAMICS) S.D.=  1.91484125329965E-08
DEBUG_STATS_RL:    cg2d_b (SOLVE_FOR_PRESSURE)  min= -2.49737242372437E+04
DEBUG_STATS_RL:    cg2d_b (SOLVE_FOR_PRESSURE)  max=  1.63171153501547E+04
DEBUG_STATS_RL:    cg2d_b (SOLVE_FOR_PRESSURE) mean=  3.02673717776414E+00
DEBUG_STATS_RL:    cg2d_b (SOLVE_FOR_PRESSURE) S.D.=  3.74841056589616E+03
 cg2d: Sum(rhs),rhsMax =   2.80570751080603E-01  1.64034107319356E+00
(PID.TID 0000.0001)  cg2d: iter=     1 ; resid.=  2.10463629508770E-01
(PID.TID 0000.0001)  cg2d: iter=     2 ; resid.=  1.71042142949471E-01
(PID.TID 0000.0001)  cg2d: iter=     3 ; resid.=  1.63811820829658E-01
(PID.TID 0000.0001)  cg2d: iter=     4 ; resid.=  1.36041395641045E-01
(PID.TID 0000.0001)  cg2d: iter=     5 ; resid.=  1.07232152933961E-01
(PID.TID 0000.0001)  cg2d: iter=     6 ; resid.=  8.38471141325845E-02
(PID.TID 0000.0001)  cg2d: iter=     7 ; resid.=  6.73654834256227E-02
(PID.TID 0000.0001)  cg2d: iter=     8 ; resid.=  5.67652325360969E-02
(PID.TID 0000.0001)  cg2d: iter=     9 ; resid.=  4.82789909209704E-02
(PID.TID 0000.0001)  cg2d: iter=    10 ; resid.=  3.90475175946789E-02
(PID.TID 0000.0001)  cg2d: iter=    11 ; resid.=  3.48346579692937E-02
(PID.TID 0000.0001)  cg2d: iter=    12 ; resid.=  3.11363642089262E-02
(PID.TID 0000.0001)  cg2d: iter=    13 ; resid.=  2.44276963930377E-02
(PID.TID 0000.0001)  cg2d: iter=    14 ; resid.=  2.01554576063108E-02
(PID.TID 0000.0001)  cg2d: iter=    15 ; resid.=  1.67155302903849E-02
(PID.TID 0000.0001)  cg2d: iter=    16 ; resid.=  1.45239602934563E-02
(PID.TID 0000.0001)  cg2d: iter=    17 ; resid.=  1.22228819325598E-02
(PID.TID 0000.0001)  cg2d: iter=    18 ; resid.=  9.98709705963381E-03
(PID.TID 0000.0001)  cg2d: iter=    19 ; resid.=  8.19227700693495E-03
(PID.TID 0000.0001)  cg2d: iter=    20 ; resid.=  6.56998824934744E-03
(PID.TID 0000.0001)  cg2d: iter=    21 ; resid.=  5.37161591857545E-03
(PID.TID 0000.0001)  cg2d: iter=    22 ; resid.=  4.37518531436287E-03
(PID.TID 0000.0001)  cg2d: iter=    23 ; resid.=  3.50139879184640E-03
(PID.TID 0000.0001)  cg2d: iter=    24 ; resid.=  2.87190747861711E-03
(PID.TID 0000.0001)  cg2d: iter=    25 ; resid.=  2.23320763886362E-03
(PID.TID 0000.0001)  cg2d: iter=    26 ; resid.=  1.81641518340111E-03
(PID.TID 0000.0001)  cg2d: iter=    27 ; resid.=  1.55513752552123E-03
(PID.TID 0000.0001)  cg2d: iter=    28 ; resid.=  1.39434191195693E-03
(PID.TID 0000.0001)  cg2d: iter=    29 ; resid.=  1.24597641924643E-03
(PID.TID 0000.0001)  cg2d: iter=    30 ; resid.=  1.10305767058803E-03
(PID.TID 0000.0001)  cg2d: iter=    31 ; resid.=  9.13167898737042E-04
(PID.TID 0000.0001)  cg2d: iter=    32 ; resid.=  6.96604199769903E-04
(PID.TID 0000.0001)  cg2d: iter=    33 ; resid.=  6.01592034166201E-04
(PID.TID 0000.0001)  cg2d: iter=    34 ; resid.=  5.44928166141934E-04
(PID.TID 0000.0001)  cg2d: iter=    35 ; resid.=  4.27963591902409E-04
(PID.TID 0000.0001)  cg2d: iter=    36 ; resid.=  3.25084108296052E-04
(PID.TID 0000.0001)  cg2d: iter=    37 ; resid.=  2.40581819666217E-04
(PID.TID 0000.0001)  cg2d: iter=    38 ; resid.=  1.93409775491185E-04
(PID.TID 0000.0001)  cg2d: iter=    39 ; resid.=  1.57394401025286E-04
(PID.TID 0000.0001)  cg2d: iter=    40 ; resid.=  1.27471399170074E-04
(PID.TID 0000.0001)  cg2d: iter=    41 ; resid.=  1.08116012462417E-04
(PID.TID 0000.0001)  cg2d: iter=    42 ; resid.=  9.52543166916214E-05
(PID.TID 0000.0001)  cg2d: iter=    43 ; resid.=  8.67267136808624E-05
(PID.TID 0000.0001)  cg2d: iter=    44 ; resid.=  7.23506955506150E-05
(PID.TID 0000.0001)  cg2d: iter=    45 ; resid.=  5.77679913592913E-05
(PID.TID 0000.0001)  cg2d: iter=    46 ; resid.=  4.65543545456957E-05
(PID.TID 0000.0001)  cg2d: iter=    47 ; resid.=  4.36434227435698E-05
(PID.TID 0000.0001)  cg2d: iter=    48 ; resid.=  3.87439629683767E-05
(PID.TID 0000.0001)  cg2d: iter=    49 ; resid.=  3.23390945179942E-05
(PID.TID 0000.0001)  cg2d: iter=    50 ; resid.=  2.73883026707665E-05
(PID.TID 0000.0001)  cg2d: iter=    51 ; resid.=  2.31302880137976E-05
(PID.TID 0000.0001)  cg2d: iter=    52 ; resid.=  1.94378682858201E-05
(PID.TID 0000.0001)  cg2d: iter=    53 ; resid.=  1.64948358483724E-05
(PID.TID 0000.0001)  cg2d: iter=    54 ; resid.=  1.45075206112018E-05
(PID.TID 0000.0001)  cg2d: iter=    55 ; resid.=  1.27035422610446E-05
(PID.TID 0000.0001)  cg2d: iter=    56 ; resid.=  9.95644212297138E-06
(PID.TID 0000.0001)  cg2d: iter=    57 ; resid.=  7.62689736382937E-06
(PID.TID 0000.0001)  cg2d: iter=    58 ; resid.=  5.99249488093977E-06
(PID.TID 0000.0001)  cg2d: iter=    59 ; resid.=  4.76158642395325E-06
(PID.TID 0000.0001)  cg2d: iter=    60 ; resid.=  3.69530792606014E-06
(PID.TID 0000.0001)  cg2d: iter=    61 ; resid.=  2.80480429591355E-06
(PID.TID 0000.0001)  cg2d: iter=    62 ; resid.=  2.30564104002489E-06
(PID.TID 0000.0001)  cg2d: iter=    63 ; resid.=  1.95425448169725E-06
(PID.TID 0000.0001)  cg2d: iter=    64 ; resid.=  1.72507962356602E-06
(PID.TID 0000.0001)  cg2d: iter=    65 ; resid.=  1.53679020643118E-06
(PID.TID 0000.0001)  cg2d: iter=    66 ; resid.=  1.38077692086671E-06
(PID.TID 0000.0001)  cg2d: iter=    67 ; resid.=  1.24352882485491E-06
(PID.TID 0000.0001)  cg2d: iter=    68 ; resid.=  1.10275625224724E-06
(PID.TID 0000.0001)  cg2d: iter=    69 ; resid.=  8.29987486869370E-07
(PID.TID 0000.0001)  cg2d: iter=    70 ; resid.=  6.44956517419294E-07
(PID.TID 0000.0001)  cg2d: iter=    71 ; resid.=  5.58002983089158E-07
(PID.TID 0000.0001)  cg2d: iter=    72 ; resid.=  4.73202277266115E-07
(PID.TID 0000.0001)  cg2d: iter=    73 ; resid.=  3.93302040011774E-07
(PID.TID 0000.0001)  cg2d: iter=    74 ; resid.=  3.14232885012893E-07
(PID.TID 0000.0001)  cg2d: iter=    75 ; resid.=  2.39413797643533E-07
(PID.TID 0000.0001)  cg2d: iter=    76 ; resid.=  1.94078752893769E-07
(PID.TID 0000.0001)  cg2d: iter=    77 ; resid.=  1.63592261369962E-07
(PID.TID 0000.0001)  cg2d: iter=    78 ; resid.=  1.40028472026895E-07
(PID.TID 0000.0001)  cg2d: iter=    79 ; resid.=  1.20893224662204E-07
(PID.TID 0000.0001)  cg2d: iter=    80 ; resid.=  1.00106702362234E-07
(PID.TID 0000.0001)  cg2d: iter=    81 ; resid.=  8.17649619479023E-08
(PID.TID 0000.0001)  cg2d: iter=    82 ; resid.=  6.11925134050314E-08
(PID.TID 0000.0001)  cg2d: iter=    83 ; resid.=  4.38993413555878E-08
(PID.TID 0000.0001)  cg2d: iter=    84 ; resid.=  3.52012090312749E-08
(PID.TID 0000.0001)  cg2d: iter=    85 ; resid.=  2.75633281079734E-08
(PID.TID 0000.0001)  cg2d: iter=    86 ; resid.=  2.21007087431537E-08
(PID.TID 0000.0001)  cg2d: iter=    87 ; resid.=  1.71474438648735E-08
(PID.TID 0000.0001)  cg2d: iter=    88 ; resid.=  1.51386119211624E-08
(PID.TID 0000.0001)  cg2d: iter=    89 ; resid.=  1.46025895648253E-08
(PID.TID 0000.0001)  cg2d: iter=    90 ; resid.=  1.19639860575164E-08
(PID.TID 0000.0001)  cg2d: iter=    91 ; resid.=  8.95089414092997E-09
(PID.TID 0000.0001)  cg2d: iter=    92 ; resid.=  6.35503246032805E-09
(PID.TID 0000.0001)  cg2d: iter=    93 ; resid.=  4.73637485520650E-09
(PID.TID 0000.0001)  cg2d: iter=    94 ; resid.=  3.52577955568127E-09
(PID.TID 0000.0001)  cg2d: iter=    95 ; resid.=  2.94425574187693E-09
(PID.TID 0000.0001)  cg2d: iter=    96 ; resid.=  2.24102215829481E-09
(PID.TID 0000.0001)  cg2d: iter=    97 ; resid.=  1.74211926470230E-09
(PID.TID 0000.0001)  cg2d: iter=    98 ; resid.=  1.33395958102755E-09
(PID.TID 0000.0001)  cg2d: iter=    99 ; resid.=  1.16031797538680E-09
(PID.TID 0000.0001)  cg2d: iter=   100 ; resid.=  1.08348974692744E-09
(PID.TID 0000.0001)  cg2d: iter=   101 ; resid.=  9.08655397419861E-10
(PID.TID 0000.0001)  cg2d: iter=   102 ; resid.=  6.93671219610761E-10
(PID.TID 0000.0001)  cg2d: iter=   103 ; resid.=  5.53137184104168E-10
(PID.TID 0000.0001)  cg2d: iter=   104 ; resid.=  4.40075417313941E-10
(PID.TID 0000.0001)  cg2d: iter=   105 ; resid.=  3.32815809035278E-10
(PID.TID 0000.0001)  cg2d: iter=   106 ; resid.=  2.66706475945370E-10
(PID.TID 0000.0001)  cg2d: iter=   107 ; resid.=  1.99968594353211E-10
(PID.TID 0000.0001)  cg2d: iter=   108 ; resid.=  1.59959471950779E-10
(PID.TID 0000.0001)  cg2d: iter=   109 ; resid.=  1.30099383225818E-10
(PID.TID 0000.0001)  cg2d: iter=   110 ; resid.=  1.09250330286810E-10
(PID.TID 0000.0001)  cg2d: iter=   111 ; resid.=  9.47024152185542E-11
(PID.TID 0000.0001)  cg2d: iter=   112 ; resid.=  7.19952747524615E-11
(PID.TID 0000.0001)  cg2d: iter=   113 ; resid.=  5.45696574360250E-11
(PID.TID 0000.0001)  cg2d: iter=   114 ; resid.=  4.42060033897722E-11
(PID.TID 0000.0001)  cg2d: iter=   115 ; resid.=  3.30346868168438E-11
(PID.TID 0000.0001)  cg2d: iter=   116 ; resid.=  2.34091261850695E-11
(PID.TID 0000.0001)  cg2d: iter=   117 ; resid.=  1.71360546269820E-11
(PID.TID 0000.0001)  cg2d: iter=   118 ; resid.=  1.18920083340909E-11
(PID.TID 0000.0001)  cg2d: iter=   119 ; resid.=  9.07393762161068E-12
(PID.TID 0000.0001)  cg2d: iter=   120 ; resid.=  6.59167043573311E-12
(PID.TID 0000.0001)  cg2d: iter=   121 ; resid.=  5.09749911373841E-12
(PID.TID 0000.0001)  cg2d: iter=   122 ; resid.=  4.00722173624024E-12
(PID.TID 0000.0001)  cg2d: iter=   123 ; resid.=  2.97554742739646E-12
(PID.TID 0000.0001)  cg2d: iter=   124 ; resid.=  2.00271920941489E-12
(PID.TID 0000.0001)  cg2d: iter=   125 ; resid.=  1.41233843349480E-12
(PID.TID 0000.0001)  cg2d: iter=   126 ; resid.=  1.15069335084571E-12
(PID.TID 0000.0001)  cg2d: iter=   127 ; resid.=  8.99870042998368E-13
(PID.TID 0000.0001)  cg2d: iter=   128 ; resid.=  6.82878638151328E-13
(PID.TID 0000.0001)  cg2d: iter=   129 ; resid.=  5.13244350281044E-13
(PID.TID 0000.0001)  cg2d: iter=   130 ; resid.=  4.10688568114035E-13
(PID.TID 0000.0001)  cg2d: iter=   131 ; resid.=  3.38314900139616E-13
(PID.TID 0000.0001)  cg2d: iter=   132 ; resid.=  2.65008770179601E-13
(PID.TID 0000.0001)  cg2d: iter=   133 ; resid.=  1.91815805737547E-13
(PID.TID 0000.0001)  cg2d: iter=   134 ; resid.=  1.37619977007745E-13
(PID.TID 0000.0001)  cg2d: iter=   135 ; resid.=  1.02955837259042E-13
(PID.TID 0000.0001)  cg2d: iter=   136 ; resid.=  7.18170810324730E-14
DEBUG_STATS_RL:    cg2d_x (SOLVE_FOR_PRESSURE)  min= -1.81695256647268E+01
DEBUG_STATS_RL:    cg2d_x (SOLVE_FOR_PRESSURE)  max=  1.08306737428428E+01
DEBUG_STATS_RL:    cg2d_x (SOLVE_FOR_PRESSURE) mean= -1.83619267271104E+00
DEBUG_STATS_RL:    cg2d_x (SOLVE_FOR_PRESSURE) S.D.=  7.93103948954588E+00
(PID.TID 0000.0001)      cg2d_init_res =   3.96780168828366E-01
(PID.TID 0000.0001)      cg2d_iters(min,last) =      -1     136
(PID.TID 0000.0001)      cg2d_last_res =   7.18170810324730E-14
(PID.TID 0000.0001) // =======================================================
(PID.TID 0000.0001) // Begin MONITOR dynamic field statistics
(PID.TID 0000.0001) // =======================================================
(PID.TID 0000.0001) %MON time_tsnumber                =                    42
(PID.TID 0000.0001) %MON time_secondsf                =   3.6288000000000E+06
(PID.TID 0000.0001) %MON dynstat_eta_max              =   1.1040442143571E+00
(PID.TID 0000.0001) %MON dynstat_eta_min              =  -1.8521432889623E+00
(PID.TID 0000.0001) %MON dynstat_eta_mean             =  -3.1580249419766E-03
(PID.TID 0000.0001) %MON dynstat_eta_sd               =   7.3444023302506E-01
(PID.TID 0000.0001) %MON dynstat_eta_del2             =   2.2572055366810E-03
(PID.TID 0000.0001) %MON dynstat_uvel_max             =   1.5377428648038E-01
(PID.TID 0000.0001) %MON dynstat_uvel_min             =  -1.6279026778035E-01
(PID.TID 0000.0001) %MON dynstat_uvel_mean            =   8.4718363339582E-04
(PID.TID 0000.0001) %MON dynstat_uvel_sd              =   1.8577564525285E-02
(PID.TID 0000.0001) %MON dynstat_uvel_del2            =   1.0325369940546E-04
(PID.TID 0000.0001) %MON dynstat_vvel_max             =   1.5161833537045E-01
(PID.TID 0000.0001) %MON dynstat_vvel_min             =  -1.1591676166083E-01
(PID.TID 0000.0001) %MON dynstat_vvel_mean            =  -2.9531394982871E-05
(PID.TID 0000.0001) %MON dynstat_vvel_sd              =   1.0733958602083E-02
(PID.TID 0000.0001) %MON dynstat_vvel_del2            =   8.9358617475876E-05
(PID.TID 0000.0001) %MON dynstat_wvel_max             =   1.0687816135158E-04
(PID.TID 0000.0001) %MON dynstat_wvel_min             =  -1.5770817367902E-04
(PID.TID 0000.0001) %MON dynstat_wvel_mean            =  -1.4814958490307E-22
(PID.TID 0000.0001) %MON dynstat_wvel_sd              =   1.7051933654890E-05
(PID.TID 0000.0001) %MON dynstat_wvel_del2            =   1.7025228743822E-07
(PID.TID 0000.0001) %MON dynstat_theta_max            =   3.0257880717838E+01
(PID.TID 0000.0001) %MON dynstat_theta_min            =  -1.9979323474408E+00
(PID.TID 0000.0001) %MON dynstat_theta_mean           =   3.6418865826170E+00
(PID.TID 0000.0001) %MON dynstat_theta_sd             =   4.4194364175867E+00
(PID.TID 0000.0001) %MON dynstat_theta_del2           =   4.7494464082861E-03
(PID.TID 0000.0001) %MON dynstat_salt_max             =   3.7477678793764E+01
(PID.TID 0000.0001) %MON dynstat_salt_min             =   2.9842111408583E+01
(PID.TID 0000.0001) %MON dynstat_salt_mean            =   3.4738018185542E+01
(PID.TID 0000.0001) %MON dynstat_salt_sd              =   2.9639079724017E-01
(PID.TID 0000.0001) %MON dynstat_salt_del2            =   9.8654728419542E-04
(PID.TID 0000.0001) %MON dynstat_sst_max              =   3.0257880717838E+01
(PID.TID 0000.0001) %MON dynstat_sst_min              =  -1.9979323474408E+00
(PID.TID 0000.0001) %MON dynstat_sst_mean             =   1.8874998931036E+01
(PID.TID 0000.0001) %MON dynstat_sst_sd               =   9.0114757694413E+00
(PID.TID 0000.0001) %MON dynstat_sst_del2             =   2.7125312888541E-02
(PID.TID 0000.0001) %MON dynstat_sss_max              =   3.7449443713957E+01
(PID.TID 0000.0001) %MON dynstat_sss_min              =   2.9842111408583E+01
(PID.TID 0000.0001) %MON dynstat_sss_mean             =   3.4864494142292E+01
(PID.TID 0000.0001) %MON dynstat_sss_sd               =   9.7700060750139E-01
(PID.TID 0000.0001) %MON dynstat_sss_del2             =   7.8770944282256E-03
(PID.TID 0000.0001) %MON forcing_qnet_max             =   3.6386907755534E+02
(PID.TID 0000.0001) %MON forcing_qnet_min             =  -1.7379204610189E+02
(PID.TID 0000.0001) %MON forcing_qnet_mean            =  -1.4304887648557E+01
(PID.TID 0000.0001) %MON forcing_qnet_sd              =   8.3311816502922E+01
(PID.TID 0000.0001) %MON forcing_qnet_del2            =   9.5280129086967E-01
(PID.TID 0000.0001) %MON forcing_qsw_max              =   0.0000000000000E+00
(PID.TID 0000.0001) %MON forcing_qsw_min              =   0.0000000000000E+00
(PID.TID 0000.0001) %MON forcing_qsw_mean             =   0.0000000000000E+00
(PID.TID 0000.0001) %MON forcing_qsw_sd               =   0.0000000000000E+00
(PID.TID 0000.0001) %MON forcing_qsw_del2             =   0.0000000000000E+00
(PID.TID 0000.0001) %MON forcing_empmr_max            =   7.4007905936924E-05
(PID.TID 0000.0001) %MON forcing_empmr_min            =  -7.8226707008374E-05
(PID.TID 0000.0001) %MON forcing_empmr_mean           =   9.4067939086955E-07
(PID.TID 0000.0001) %MON forcing_empmr_sd             =   2.7995335629189E-05
(PID.TID 0000.0001) %MON forcing_empmr_del2           =   3.5444699729804E-07
(PID.TID 0000.0001) %MON forcing_fu_max               =   2.9908689260483E-01
(PID.TID 0000.0001) %MON forcing_fu_min               =  -2.0909265577793E-01
(PID.TID 0000.0001) %MON forcing_fu_mean              =   1.7413540754760E-02
(PID.TID 0000.0001) %MON forcing_fu_sd                =   9.1865449563120E-02
(PID.TID 0000.0001) %MON forcing_fu_del2              =   7.1428703033322E-04
(PID.TID 0000.0001) %MON forcing_fv_max               =   1.9313710530599E-01
(PID.TID 0000.0001) %MON forcing_fv_min               =  -1.8699165980021E-01
(PID.TID 0000.0001) %MON forcing_fv_mean              =  -6.9556813140996E-03
(PID.TID 0000.0001) %MON forcing_fv_sd                =   4.4663298961799E-02
(PID.TID 0000.0001) %MON forcing_fv_del2              =   5.1218138954002E-04
(PID.TID 0000.0001) %MON trAdv_CFL_u_max              =   4.9578195525127E-02
(PID.TID 0000.0001) %MON trAdv_CFL_v_max              =   3.1898843531605E-02
(PID.TID 0000.0001) %MON trAdv_CFL_w_max              =   4.7390918705558E-02
(PID.TID 0000.0001) %MON advcfl_uvel_max              =   4.9603038969722E-02
(PID.TID 0000.0001) %MON advcfl_vvel_max              =   2.9457010896729E-02
(PID.TID 0000.0001) %MON advcfl_wvel_max              =   3.8632233382287E-02
(PID.TID 0000.0001) %MON advcfl_W_hf_max              =   4.5530846486267E-02
(PID.TID 0000.0001) %MON pe_b_mean                    =   6.9024321982205E-04
(PID.TID 0000.0001) %MON ke_max                       =   1.6019340635750E-02
(PID.TID 0000.0001) %MON ke_mean                      =   2.0884873486093E-04
(PID.TID 0000.0001) %MON ke_vol                       =   1.3226782436723E+18
(PID.TID 0000.0001) %MON vort_r_min                   =  -4.8129031040625E-07
(PID.TID 0000.0001) %MON vort_r_max                   =   4.7770575301400E-07
(PID.TID 0000.0001) %MON vort_a_mean                  =  -2.5274806422788E-05
(PID.TID 0000.0001) %MON vort_a_sd                    =   7.3604445185067E-05
(PID.TID 0000.0001) %MON vort_p_mean                  =  -3.1845654571420E-05
(PID.TID 0000.0001) %MON vort_p_sd                    =   1.3162404240167E-04
(PID.TID 0000.0001) %MON surfExpan_theta_mean         =   4.0079049445064E-07
(PID.TID 0000.0001) %MON surfExpan_salt_mean          =  -7.7165832994338E-09
(PID.TID 0000.0001) // =======================================================
(PID.TID 0000.0001) // End MONITOR dynamic field statistics
(PID.TID 0000.0001) // =======================================================
 EXTERNAL_FIELDS_LOAD,        42 : iP,iLd,i0,i1=    1    2    1    2 ; Wght=  0.1000000000  0.9000000000
 EXTERNAL_FIELDS_LOAD: (fu0,1),fu,fv= -3.5633E-02 -1.4435E-02 -1.6555E-02 -2.1598E-02
 EXTERNAL_FIELDS_LOAD: SST,SSS,Q,E-P= -3.8283E-01  3.4450E+01  2.4301E+02  8.7032E-06
DEBUG_STATS_RL:          Uvel (THERMODYNAMICS)  min= -1.62790267780351E-01
DEBUG_STATS_RL:          Uvel (THERMODYNAMICS)  max=  1.53774286480380E-01
DEBUG_STATS_RL:          Uvel (THERMODYNAMICS) mean=  2.81664093438254E-03
DEBUG_STATS_RL:          Uvel (THERMODYNAMICS) S.D.=  2.67209562394519E-02
DEBUG_STATS_RL:          Vvel (THERMODYNAMICS)  min= -1.15916761660831E-01
DEBUG_STATS_RL:          Vvel (THERMODYNAMICS)  max=  1.51618335370453E-01
DEBUG_STATS_RL:          Vvel (THERMODYNAMICS) mean=  5.04300325347497E-04
DEBUG_STATS_RL:          Vvel (THERMODYNAMICS) S.D.=  1.57639275353998E-02
DEBUG_STATS_RL:          Wvel (THERMODYNAMICS)  min= -1.57708173679015E-04
DEBUG_STATS_RL:          Wvel (THERMODYNAMICS)  max=  1.06878161351576E-04
DEBUG_STATS_RL:          Wvel (THERMODYNAMICS) mean= -2.58084053595256E-07
DEBUG_STATS_RL:          Wvel (THERMODYNAMICS) S.D.=  1.47884511452824E-05
DEBUG_STATS_RL:         Theta (THERMODYNAMICS)  min= -1.99661322243603E+00
DEBUG_STATS_RL:         Theta (THERMODYNAMICS)  max=  3.02812174395961E+01
DEBUG_STATS_RL:         Theta (THERMODYNAMICS) mean=  3.23518828516767E+00
DEBUG_STATS_RL:         Theta (THERMODYNAMICS) S.D.=  5.86561991531136E+00
DEBUG_STATS_RL:          Salt (THERMODYNAMICS)  min=  2.00000000000000E-02
DEBUG_STATS_RL:          Salt (THERMODYNAMICS)  max=  3.74780524550410E+01
DEBUG_STATS_RL:          Salt (THERMODYNAMICS) mean=  1.88648848491787E+01
DEBUG_STATS_RL:          Salt (THERMODYNAMICS) S.D.=  1.73004044103053E+01
DEBUG_STATS_RL:         GtNm1 (THERMODYNAMICS)  min= -3.94438862231862E-06
DEBUG_STATS_RL:         GtNm1 (THERMODYNAMICS)  max=  2.90427863138233E-06
DEBUG_STATS_RL:         GtNm1 (THERMODYNAMICS) mean=  1.15859744221034E-08
DEBUG_STATS_RL:         GtNm1 (THERMODYNAMICS) S.D.=  2.07204143910906E-07
DEBUG_STATS_RL:         GsNm1 (THERMODYNAMICS)  min= -4.15047784804809E-07
DEBUG_STATS_RL:         GsNm1 (THERMODYNAMICS)  max=  3.21658673773417E-07
DEBUG_STATS_RL:         GsNm1 (THERMODYNAMICS) mean=  1.95156948049067E-10
DEBUG_STATS_RL:         GsNm1 (THERMODYNAMICS) S.D.=  1.89063207606400E-08
DEBUG_STATS_RL:                EtaN (DYNAMICS)  min= -1.85214328896234E+00
DEBUG_STATS_RL:                EtaN (DYNAMICS)  max=  1.10404421435711E+00
DEBUG_STATS_RL:                EtaN (DYNAMICS) mean= -1.87175603742207E-01
DEBUG_STATS_RL:                EtaN (DYNAMICS) S.D.=  8.08464779770227E-01
DEBUG_STATS_RL:                Uvel (DYNAMICS)  min= -1.62790267780351E-01
DEBUG_STATS_RL:                Uvel (DYNAMICS)  max=  1.53774286480380E-01
DEBUG_STATS_RL:                Uvel (DYNAMICS) mean=  2.81664093438254E-03
DEBUG_STATS_RL:                Uvel (DYNAMICS) S.D.=  2.67209562394519E-02
DEBUG_STATS_RL:                Vvel (DYNAMICS)  min= -1.15916761660831E-01
DEBUG_STATS_RL:                Vvel (DYNAMICS)  max=  1.51618335370453E-01
DEBUG_STATS_RL:                Vvel (DYNAMICS) mean=  5.04300325347497E-04
DEBUG_STATS_RL:                Vvel (DYNAMICS) S.D.=  1.57639275353998E-02
DEBUG_STATS_RL:                Wvel (DYNAMICS)  min= -1.57708173679015E-04
DEBUG_STATS_RL:                Wvel (DYNAMICS)  max=  1.06878161351576E-04
DEBUG_STATS_RL:                Wvel (DYNAMICS) mean= -2.58084053595256E-07
DEBUG_STATS_RL:                Wvel (DYNAMICS) S.D.=  1.47884511452824E-05
DEBUG_STATS_RL:               Theta (DYNAMICS)  min= -1.99661322243603E+00
DEBUG_STATS_RL:               Theta (DYNAMICS)  max=  3.02812174395961E+01
DEBUG_STATS_RL:               Theta (DYNAMICS) mean=  3.23518828516767E+00
DEBUG_STATS_RL:               Theta (DYNAMICS) S.D.=  5.86561991531136E+00
DEBUG_STATS_RL:                Salt (DYNAMICS)  min=  2.00000000000000E-02
DEBUG_STATS_RL:                Salt (DYNAMICS)  max=  3.74780524550410E+01
DEBUG_STATS_RL:                Salt (DYNAMICS) mean=  1.88648848491787E+01
DEBUG_STATS_RL:                Salt (DYNAMICS) S.D.=  1.73004044103053E+01
DEBUG_STATS_RL:                  Gu (DYNAMICS)  min= -1.62470770456645E-01
DEBUG_STATS_RL:                  Gu (DYNAMICS)  max=  1.60394737878972E-01
DEBUG_STATS_RL:                  Gu (DYNAMICS) mean=  2.51984631297831E-03
DEBUG_STATS_RL:                  Gu (DYNAMICS) S.D.=  2.71001760790902E-02
DEBUG_STATS_RL:                  Gv (DYNAMICS)  min= -1.12923313526135E-01
DEBUG_STATS_RL:                  Gv (DYNAMICS)  max=  1.45428555134601E-01
DEBUG_STATS_RL:                  Gv (DYNAMICS) mean=  2.82882852385658E-03
DEBUG_STATS_RL:                  Gv (DYNAMICS) S.D.=  1.60973444210223E-02
DEBUG_STATS_RL:               GuNm1 (DYNAMICS)  min= -9.30621517163924E-06
DEBUG_STATS_RL:               GuNm1 (DYNAMICS)  max=  8.54786975875893E-06
DEBUG_STATS_RL:               GuNm1 (DYNAMICS) mean= -1.38039238899630E-08
DEBUG_STATS_RL:               GuNm1 (DYNAMICS) S.D.=  1.17428927211697E-06
DEBUG_STATS_RL:               GvNm1 (DYNAMICS)  min= -1.00768927120434E-05
DEBUG_STATS_RL:               GvNm1 (DYNAMICS)  max=  1.63615033852144E-05
DEBUG_STATS_RL:               GvNm1 (DYNAMICS) mean=  7.44316686415833E-07
DEBUG_STATS_RL:               GvNm1 (DYNAMICS) S.D.=  2.59795495905147E-06
DEBUG_STATS_RL:               GtNm1 (DYNAMICS)  min= -3.94438862231862E-06
DEBUG_STATS_RL:               GtNm1 (DYNAMICS)  max=  2.90427863138233E-06
DEBUG_STATS_RL:               GtNm1 (DYNAMICS) mean=  1.15859744221034E-08
DEBUG_STATS_RL:               GtNm1 (DYNAMICS) S.D.=  2.07204143910906E-07
DEBUG_STATS_RL:               GsNm1 (DYNAMICS)  min= -4.15047784804809E-07
DEBUG_STATS_RL:               GsNm1 (DYNAMICS)  max=  3.21658673773417E-07
DEBUG_STATS_RL:               GsNm1 (DYNAMICS) mean=  1.95156948049067E-10
DEBUG_STATS_RL:               GsNm1 (DYNAMICS) S.D.=  1.89063207606400E-08
DEBUG_STATS_RL:    cg2d_b (SOLVE_FOR_PRESSURE)  min= -2.53780260956441E+04
DEBUG_STATS_RL:    cg2d_b (SOLVE_FOR_PRESSURE)  max=  1.61437172985357E+04
DEBUG_STATS_RL:    cg2d_b (SOLVE_FOR_PRESSURE) mean=  3.10205350151870E+00
DEBUG_STATS_RL:    cg2d_b (SOLVE_FOR_PRESSURE) S.D.=  3.74334699337546E+03
 cg2d: Sum(rhs),rhsMax =   2.82971332323081E-01  1.66689670174149E+00
(PID.TID 0000.0001)  cg2d: iter=     1 ; resid.=  1.99323862291911E-01
(PID.TID 0000.0001)  cg2d: iter=     2 ; resid.=  1.60121233845027E-01
(PID.TID 0000.0001)  cg2d: iter=     3 ; resid.=  1.50638134539523E-01
(PID.TID 0000.0001)  cg2d: iter=     4 ; resid.=  1.21960098042968E-01
(PID.TID 0000.0001)  cg2d: iter=     5 ; resid.=  9.33712609510315E-02
(PID.TID 0000.0001)  cg2d: iter=     6 ; resid.=  7.19421834445962E-02
(PID.TID 0000.0001)  cg2d: iter=     7 ; resid.=  5.66670567965902E-02
(PID.TID 0000.0001)  cg2d: iter=     8 ; resid.=  4.68202667171597E-02
(PID.TID 0000.0001)  cg2d: iter=     9 ; resid.=  3.88799174971623E-02
(PID.TID 0000.0001)  cg2d: iter=    10 ; resid.=  3.06887359493341E-02
(PID.TID 0000.0001)  cg2d: iter=    11 ; resid.=  2.66525805165762E-02
(PID.TID 0000.0001)  cg2d: iter=    12 ; resid.=  2.40149826011535E-02
(PID.TID 0000.0001)  cg2d: iter=    13 ; resid.=  1.87103855699884E-02
(PID.TID 0000.0001)  cg2d: iter=    14 ; resid.=  1.50412629975844E-02
(PID.TID 0000.0001)  cg2d: iter=    15 ; resid.=  1.22435388951491E-02
(PID.TID 0000.0001)  cg2d: iter=    16 ; resid.=  1.06367041584591E-02
(PID.TID 0000.0001)  cg2d: iter=    17 ; resid.=  9.01139410265929E-03
(PID.TID 0000.0001)  cg2d: iter=    18 ; resid.=  7.24670615516801E-03
(PID.TID 0000.0001)  cg2d: iter=    19 ; resid.=  5.96894117007318E-03
(PID.TID 0000.0001)  cg2d: iter=    20 ; resid.=  4.86270815378224E-03
(PID.TID 0000.0001)  cg2d: iter=    21 ; resid.=  4.01204393864811E-03
(PID.TID 0000.0001)  cg2d: iter=    22 ; resid.=  3.25858919506227E-03
(PID.TID 0000.0001)  cg2d: iter=    23 ; resid.=  2.55311283708347E-03
(PID.TID 0000.0001)  cg2d: iter=    24 ; resid.=  2.01951407845559E-03
(PID.TID 0000.0001)  cg2d: iter=    25 ; resid.=  1.52042555416964E-03
(PID.TID 0000.0001)  cg2d: iter=    26 ; resid.=  1.17239645226077E-03
(PID.TID 0000.0001)  cg2d: iter=    27 ; resid.=  9.56812290554949E-04
(PID.TID 0000.0001)  cg2d: iter=    28 ; resid.=  8.18060546577118E-04
(PID.TID 0000.0001)  cg2d: iter=    29 ; resid.=  7.15164358237905E-04
(PID.TID 0000.0001)  cg2d: iter=    30 ; resid.=  6.38007685775595E-04
(PID.TID 0000.0001)  cg2d: iter=    31 ; resid.=  5.58012212505818E-04
(PID.TID 0000.0001)  cg2d: iter=    32 ; resid.=  4.40422453237514E-04
(PID.TID 0000.0001)  cg2d: iter=    33 ; resid.=  3.91164115690596E-04
(PID.TID 0000.0001)  cg2d: iter=    34 ; resid.=  3.72183431428513E-04
(PID.TID 0000.0001)  cg2d: iter=    35 ; resid.=  3.11112065434062E-04
(PID.TID 0000.0001)  cg2d: iter=    36 ; resid.=  2.49893924449274E-04
(PID.TID 0000.0001)  cg2d: iter=    37 ; resid.=  1.90629671447276E-04
(PID.TID 0000.0001)  cg2d: iter=    38 ; resid.=  1.50633939865021E-04
(PID.TID 0000.0001)  cg2d: iter=    39 ; resid.=  1.17223111841603E-04
(PID.TID 0000.0001)  cg2d: iter=    40 ; resid.=  9.04560636569861E-05
(PID.TID 0000.0001)  cg2d: iter=    41 ; resid.=  7.19439831442877E-05
(PID.TID 0000.0001)  cg2d: iter=    42 ; resid.=  5.99557415957491E-05
(PID.TID 0000.0001)  cg2d: iter=    43 ; resid.=  5.35725122071629E-05
(PID.TID 0000.0001)  cg2d: iter=    44 ; resid.=  4.44037104431744E-05
(PID.TID 0000.0001)  cg2d: iter=    45 ; resid.=  3.46980274207468E-05
(PID.TID 0000.0001)  cg2d: iter=    46 ; resid.=  2.68758974266164E-05
(PID.TID 0000.0001)  cg2d: iter=    47 ; resid.=  2.44017424675977E-05
(PID.TID 0000.0001)  cg2d: iter=    48 ; resid.=  2.16331481611204E-05
(PID.TID 0000.0001)  cg2d: iter=    49 ; resid.=  1.78469363565908E-05
(PID.TID 0000.0001)  cg2d: iter=    50 ; resid.=  1.45930447990381E-05
(PID.TID 0000.0001)  cg2d: iter=    51 ; resid.=  1.20580190433118E-05
(PID.TID 0000.0001)  cg2d: iter=    52 ; resid.=  1.02432146001507E-05
(PID.TID 0000.0001)  cg2d: iter=    53 ; resid.=  8.71951622377611E-06
(PID.TID 0000.0001)  cg2d: iter=    54 ; resid.=  7.83154547010128E-06
(PID.TID 0000.0001)  cg2d: iter=    55 ; resid.=  7.25197525010687E-06
(PID.TID 0000.0001)  cg2d: iter=    56 ; resid.=  6.26391390713728E-06
(PID.TID 0000.0001)  cg2d: iter=    57 ; resid.=  5.29489837848044E-06
(PID.TID 0000.0001)  cg2d: iter=    58 ; resid.=  4.46745475339849E-06
(PID.TID 0000.0001)  cg2d: iter=    59 ; resid.=  3.65456268265145E-06
(PID.TID 0000.0001)  cg2d: iter=    60 ; resid.=  2.86446041731013E-06
(PID.TID 0000.0001)  cg2d: iter=    61 ; resid.=  2.13166388131978E-06
(PID.TID 0000.0001)  cg2d: iter=    62 ; resid.=  1.69284864294380E-06
(PID.TID 0000.0001)  cg2d: iter=    63 ; resid.=  1.33969399622981E-06
(PID.TID 0000.0001)  cg2d: iter=    64 ; resid.=  1.11240718451361E-06
(PID.TID 0000.0001)  cg2d: iter=    65 ; resid.=  9.25810950223629E-07
(PID.TID 0000.0001)  cg2d: iter=    66 ; resid.=  7.87066758445878E-07
(PID.TID 0000.0001)  cg2d: iter=    67 ; resid.=  6.98306090213586E-07
(PID.TID 0000.0001)  cg2d: iter=    68 ; resid.=  6.43016770506754E-07
(PID.TID 0000.0001)  cg2d: iter=    69 ; resid.=  5.05323949291685E-07
(PID.TID 0000.0001)  cg2d: iter=    70 ; resid.=  3.96023462265877E-07
(PID.TID 0000.0001)  cg2d: iter=    71 ; resid.=  3.44376871551456E-07
(PID.TID 0000.0001)  cg2d: iter=    72 ; resid.=  2.93044298032126E-07
(PID.TID 0000.0001)  cg2d: iter=    73 ; resid.=  2.49107704509479E-07
(PID.TID 0000.0001)  cg2d: iter=    74 ; resid.=  2.05694096171162E-07
(PID.TID 0000.0001)  cg2d: iter=    75 ; resid.=  1.61080406385406E-07
(PID.TID 0000.0001)  cg2d: iter=    76 ; resid.=  1.29841774411374E-07
(PID.TID 0000.0001)  cg2d: iter=    77 ; resid.=  1.10673997975582E-07
(PID.TID 0000.0001)  cg2d: iter=    78 ; resid.=  9.59603115172322E-08
(PID.TID 0000.0001)  cg2d: iter=    79 ; resid.=  8.75821663699781E-08
(PID.TID 0000.0001)  cg2d: iter=    80 ; resid.=  7.65896264336450E-08
(PID.TID 0000.0001)  cg2d: iter=    81 ; resid.=  6.64887888197533E-08
(PID.TID 0000.0001)  cg2d: iter=    82 ; resid.=  5.24409875393898E-08
(PID.TID 0000.0001)  cg2d: iter=    83 ; resid.=  3.89948137005664E-08
(PID.TID 0000.0001)  cg2d: iter=    84 ; resid.=  3.13289706847317E-08
(PID.TID 0000.0001)  cg2d: iter=    85 ; resid.=  2.42726123614098E-08
(PID.TID 0000.0001)  cg2d: iter=    86 ; resid.=  1.88420380055092E-08
(PID.TID 0000.0001)  cg2d: iter=    87 ; resid.=  1.38971089737795E-08
(PID.TID 0000.0001)  cg2d: iter=    88 ; resid.=  1.22296358115418E-08
(PID.TID 0000.0001)  cg2d: iter=    89 ; resid.=  1.22032630404932E-08
(PID.TID 0000.0001)  cg2d: iter=    90 ; resid.=  1.03235105073181E-08
(PID.TID 0000.0001)  cg2d: iter=    91 ; resid.=  7.91055955811799E-09
(PID.TID 0000.0001)  cg2d: iter=    92 ; resid.=  5.70072893141023E-09
(PID.TID 0000.0001)  cg2d: iter=    93 ; resid.=  4.22170030544572E-09
(PID.TID 0000.0001)  cg2d: iter=    94 ; resid.=  3.11807502117498E-09
(PID.TID 0000.0001)  cg2d: iter=    95 ; resid.=  2.59884234020939E-09
(PID.TID 0000.0001)  cg2d: iter=    96 ; resid.=  1.92445829374685E-09
(PID.TID 0000.0001)  cg2d: iter=    97 ; resid.=  1.44124939933163E-09
(PID.TID 0000.0001)  cg2d: iter=    98 ; resid.=  1.07248764704925E-09
(PID.TID 0000.0001)  cg2d: iter=    99 ; resid.=  9.14316497599056E-10
(PID.TID 0000.0001)  cg2d: iter=   100 ; resid.=  8.76004215312816E-10
(PID.TID 0000.0001)  cg2d: iter=   101 ; resid.=  7.57276956972003E-10
(PID.TID 0000.0001)  cg2d: iter=   102 ; resid.=  5.87533386463864E-10
(PID.TID 0000.0001)  cg2d: iter=   103 ; resid.=  4.60814291726358E-10
(PID.TID 0000.0001)  cg2d: iter=   104 ; resid.=  3.77425272053746E-10
(PID.TID 0000.0001)  cg2d: iter=   105 ; resid.=  2.95219997077185E-10
(PID.TID 0000.0001)  cg2d: iter=   106 ; resid.=  2.42602313060798E-10
(PID.TID 0000.0001)  cg2d: iter=   107 ; resid.=  1.83573836362722E-10
(PID.TID 0000.0001)  cg2d: iter=   108 ; resid.=  1.46274561944557E-10
(PID.TID 0000.0001)  cg2d: iter=   109 ; resid.=  1.17376384907311E-10
(PID.TID 0000.0001)  cg2d: iter=   110 ; resid.=  9.37109237223871E-11
(PID.TID 0000.0001)  cg2d: iter=   111 ; resid.=  7.89455001236640E-11
(PID.TID 0000.0001)  cg2d: iter=   112 ; resid.=  6.07469971692987E-11
(PID.TID 0000.0001)  cg2d: iter=   113 ; resid.=  4.69163441764440E-11
(PID.TID 0000.0001)  cg2d: iter=   114 ; resid.=  3.86704461865707E-11
(PID.TID 0000.0001)  cg2d: iter=   115 ; resid.=  2.85932583237435E-11
(PID.TID 0000.0001)  cg2d: iter=   116 ; resid.=  2.03217916203837E-11
(PID.TID 0000.0001)  cg2d: iter=   117 ; resid.=  1.54279504986791E-11
(PID.TID 0000.0001)  cg2d: iter=   118 ; resid.=  1.08391321074405E-11
(PID.TID 0000.0001)  cg2d: iter=   119 ; resid.=  8.65949160145314E-12
(PID.TID 0000.0001)  cg2d: iter=   120 ; resid.=  6.29062393552372E-12
(PID.TID 0000.0001)  cg2d: iter=   121 ; resid.=  4.78339239005186E-12
(PID.TID 0000.0001)  cg2d: iter=   122 ; resid.=  3.71669544304641E-12
(PID.TID 0000.0001)  cg2d: iter=   123 ; resid.=  2.82459294388025E-12
(PID.TID 0000.0001)  cg2d: iter=   124 ; resid.=  1.96520699406257E-12
(PID.TID 0000.0001)  cg2d: iter=   125 ; resid.=  1.42977042497791E-12
(PID.TID 0000.0001)  cg2d: iter=   126 ; resid.=  1.15175124340557E-12
(PID.TID 0000.0001)  cg2d: iter=   127 ; resid.=  8.69946601388690E-13
(PID.TID 0000.0001)  cg2d: iter=   128 ; resid.=  6.24940297257969E-13
(PID.TID 0000.0001)  cg2d: iter=   129 ; resid.=  4.60118131033742E-13
(PID.TID 0000.0001)  cg2d: iter=   130 ; resid.=  3.68179500265813E-13
(PID.TID 0000.0001)  cg2d: iter=   131 ; resid.=  3.10844830530208E-13
(PID.TID 0000.0001)  cg2d: iter=   132 ; resid.=  2.48153151820548E-13
(PID.TID 0000.0001)  cg2d: iter=   133 ; resid.=  1.80125410658412E-13
(PID.TID 0000.0001)  cg2d: iter=   134 ; resid.=  1.31719697565262E-13
(PID.TID 0000.0001)  cg2d: iter=   135 ; resid.=  1.00607919075425E-13
(PID.TID 0000.0001)  cg2d: iter=   136 ; resid.=  7.20262555276003E-14
DEBUG_STATS_RL:    cg2d_x (SOLVE_FOR_PRESSURE)  min= -1.82095516516937E+01
DEBUG_STATS_RL:    cg2d_x (SOLVE_FOR_PRESSURE)  max=  1.10733017606030E+01
DEBUG_STATS_RL:    cg2d_x (SOLVE_FOR_PRESSURE) mean= -1.85600126006320E+00
DEBUG_STATS_RL:    cg2d_x (SOLVE_FOR_PRESSURE) S.D.=  7.98100937863061E+00
(PID.TID 0000.0001)      cg2d_init_res =   3.85466609096666E-01
(PID.TID 0000.0001)      cg2d_iters(min,last) =      -1     136
(PID.TID 0000.0001)      cg2d_last_res =   7.20262555276003E-14
(PID.TID 0000.0001) // =======================================================
(PID.TID 0000.0001) // Begin MONITOR dynamic field statistics
(PID.TID 0000.0001) // =======================================================
(PID.TID 0000.0001) %MON time_tsnumber                =                    43
(PID.TID 0000.0001) %MON time_secondsf                =   3.7152000000000E+06
(PID.TID 0000.0001) %MON dynstat_eta_max              =   1.1287769378800E+00
(PID.TID 0000.0001) %MON dynstat_eta_min              =  -1.8562234099575E+00
(PID.TID 0000.0001) %MON dynstat_eta_mean             =  -3.2366081868992E-03
(PID.TID 0000.0001) %MON dynstat_eta_sd               =   7.3749321935316E-01
(PID.TID 0000.0001) %MON dynstat_eta_del2             =   2.2659016240176E-03
(PID.TID 0000.0001) %MON dynstat_uvel_max             =   1.5833669422133E-01
(PID.TID 0000.0001) %MON dynstat_uvel_min             =  -1.6260291452244E-01
(PID.TID 0000.0001) %MON dynstat_uvel_mean            =   6.0821517976646E-04
(PID.TID 0000.0001) %MON dynstat_uvel_sd              =   1.8545702767926E-02
(PID.TID 0000.0001) %MON dynstat_uvel_del2            =   1.0442273879705E-04
(PID.TID 0000.0001) %MON dynstat_vvel_max             =   1.4462400365568E-01
(PID.TID 0000.0001) %MON dynstat_vvel_min             =  -1.1557521279043E-01
(PID.TID 0000.0001) %MON dynstat_vvel_mean            =  -9.0880536627145E-06
(PID.TID 0000.0001) %MON dynstat_vvel_sd              =   1.0678916036823E-02
(PID.TID 0000.0001) %MON dynstat_vvel_del2            =   8.8944086301557E-05
(PID.TID 0000.0001) %MON dynstat_wvel_max             =   1.0877866453636E-04
(PID.TID 0000.0001) %MON dynstat_wvel_min             =  -1.5864501634119E-04
(PID.TID 0000.0001) %MON dynstat_wvel_mean            =   7.3811017838376E-23
(PID.TID 0000.0001) %MON dynstat_wvel_sd              =   1.6970566150849E-05
(PID.TID 0000.0001) %MON dynstat_wvel_del2            =   1.6838835680106E-07
(PID.TID 0000.0001) %MON dynstat_theta_max            =   3.0281217439596E+01
(PID.TID 0000.0001) %MON dynstat_theta_min            =  -1.9966132224360E+00
(PID.TID 0000.0001) %MON dynstat_theta_mean           =   3.6419587410591E+00
(PID.TID 0000.0001) %MON dynstat_theta_sd             =   4.4196583730459E+00
(PID.TID 0000.0001) %MON dynstat_theta_del2           =   4.7478600630675E-03
(PID.TID 0000.0001) %MON dynstat_salt_max             =   3.7478052455041E+01
(PID.TID 0000.0001) %MON dynstat_salt_min             =   2.9844498909165E+01
(PID.TID 0000.0001) %MON dynstat_salt_mean            =   3.4738018745293E+01
(PID.TID 0000.0001) %MON dynstat_salt_sd              =   2.9639714366124E-01
(PID.TID 0000.0001) %MON dynstat_salt_del2            =   9.8639041029037E-04
(PID.TID 0000.0001) %MON dynstat_sst_max              =   3.0281217439596E+01
(PID.TID 0000.0001) %MON dynstat_sst_min              =  -1.9966132224360E+00
(PID.TID 0000.0001) %MON dynstat_sst_mean             =   1.8885438475089E+01
(PID.TID 0000.0001) %MON dynstat_sst_sd               =   9.0107621947906E+00
(PID.TID 0000.0001) %MON dynstat_sst_del2             =   2.7172511998529E-02
(PID.TID 0000.0001) %MON dynstat_sss_max              =   3.7449079445438E+01
(PID.TID 0000.0001) %MON dynstat_sss_min              =   2.9844498909165E+01
(PID.TID 0000.0001) %MON dynstat_sss_mean             =   3.4864507019997E+01
(PID.TID 0000.0001) %MON dynstat_sss_sd               =   9.7710694332154E-01
(PID.TID 0000.0001) %MON dynstat_sss_del2             =   7.8798933901373E-03
(PID.TID 0000.0001) %MON forcing_qnet_max             =   3.6251486816406E+02
(PID.TID 0000.0001) %MON forcing_qnet_min             =  -1.7355252685547E+02
(PID.TID 0000.0001) %MON forcing_qnet_mean            =  -1.4219978481153E+01
(PID.TID 0000.0001) %MON forcing_qnet_sd              =   8.2371696760825E+01
(PID.TID 0000.0001) %MON forcing_qnet_del2            =   9.5171455231292E-01
(PID.TID 0000.0001) %MON forcing_qsw_max              =   0.0000000000000E+00
(PID.TID 0000.0001) %MON forcing_qsw_min              =   0.0000000000000E+00
(PID.TID 0000.0001) %MON forcing_qsw_mean             =   0.0000000000000E+00
(PID.TID 0000.0001) %MON forcing_qsw_sd               =   0.0000000000000E+00
(PID.TID 0000.0001) %MON forcing_qsw_del2             =   0.0000000000000E+00
(PID.TID 0000.0001) %MON forcing_empmr_max            =   7.3693816204923E-05
(PID.TID 0000.0001) %MON forcing_empmr_min            =  -7.8306351269930E-05
(PID.TID 0000.0001) %MON forcing_empmr_mean           =   9.4136178812951E-07
(PID.TID 0000.0001) %MON forcing_empmr_sd             =   2.7989109089205E-05
(PID.TID 0000.0001) %MON forcing_empmr_del2           =   3.5476172595568E-07
(PID.TID 0000.0001) %MON forcing_fu_max               =   3.0047405064106E-01
(PID.TID 0000.0001) %MON forcing_fu_min               =  -2.1116244494915E-01
(PID.TID 0000.0001) %MON forcing_fu_mean              =   1.7467840970229E-02
(PID.TID 0000.0001) %MON forcing_fu_sd                =   9.2128273679121E-02
(PID.TID 0000.0001) %MON forcing_fu_del2              =   7.2179649985701E-04
(PID.TID 0000.0001) %MON forcing_fv_max               =   1.9524907022715E-01
(PID.TID 0000.0001) %MON forcing_fv_min               =  -1.9016355872154E-01
(PID.TID 0000.0001) %MON forcing_fv_mean              =  -7.0209422208148E-03
(PID.TID 0000.0001) %MON forcing_fv_sd                =   4.4736678888232E-02
(PID.TID 0000.0001) %MON forcing_fv_del2              =   5.1897923714387E-04
(PID.TID 0000.0001) %MON trAdv_CFL_u_max              =   4.9613113701703E-02
(PID.TID 0000.0001) %MON trAdv_CFL_v_max              =   3.0860301744349E-02
(PID.TID 0000.0001) %MON trAdv_CFL_w_max              =   4.5530846486267E-02
(PID.TID 0000.0001) %MON advcfl_uvel_max              =   4.9027869913747E-02
(PID.TID 0000.0001) %MON advcfl_vvel_max              =   2.8098124420143E-02
(PID.TID 0000.0001) %MON advcfl_wvel_max              =   3.9032152817830E-02
(PID.TID 0000.0001) %MON advcfl_W_hf_max              =   4.2406160872831E-02
(PID.TID 0000.0001) %MON pe_b_mean                    =   6.9599421226233E-04
(PID.TID 0000.0001) %MON ke_max                       =   1.5692900679440E-02
(PID.TID 0000.0001) %MON ke_mean                      =   2.0762386853383E-04
(PID.TID 0000.0001) %MON ke_vol                       =   1.3226782436723E+18
(PID.TID 0000.0001) %MON vort_r_min                   =  -4.9127963711572E-07
(PID.TID 0000.0001) %MON vort_r_max                   =   4.7525979641111E-07
(PID.TID 0000.0001) %MON vort_a_mean                  =  -2.5274806367759E-05
(PID.TID 0000.0001) %MON vort_a_sd                    =   7.3604405583918E-05
(PID.TID 0000.0001) %MON vort_p_mean                  =  -3.1845654502085E-05
(PID.TID 0000.0001) %MON vort_p_sd                    =   1.3162384805839E-04
(PID.TID 0000.0001) %MON surfExpan_theta_mean         =   3.1985594843850E-07
(PID.TID 0000.0001) %MON surfExpan_salt_mean          =   3.7437385177401E-08
(PID.TID 0000.0001) // =======================================================
(PID.TID 0000.0001) // End MONITOR dynamic field statistics
(PID.TID 0000.0001) // =======================================================
 EXTERNAL_FIELDS_LOAD,        43 : iP,iLd,i0,i1=    1    2    1    2 ; Wght=  0.0666666667  0.9333333333
 EXTERNAL_FIELDS_LOAD: (fu0,1),fu,fv= -3.5633E-02 -1.4435E-02 -1.5848E-02 -2.0277E-02
 EXTERNAL_FIELDS_LOAD: SST,SSS,Q,E-P= -4.3250E-01  3.4441E+01  2.4217E+02  8.5945E-06
DEBUG_STATS_RL:          Uvel (THERMODYNAMICS)  min= -1.62602914522441E-01
DEBUG_STATS_RL:          Uvel (THERMODYNAMICS)  max=  1.58336694221326E-01
DEBUG_STATS_RL:          Uvel (THERMODYNAMICS) mean=  2.70985143557014E-03
DEBUG_STATS_RL:          Uvel (THERMODYNAMICS) S.D.=  2.66648613703368E-02
DEBUG_STATS_RL:          Vvel (THERMODYNAMICS)  min= -1.15575212790430E-01
DEBUG_STATS_RL:          Vvel (THERMODYNAMICS)  max=  1.44624003655680E-01
DEBUG_STATS_RL:          Vvel (THERMODYNAMICS) mean=  7.02385900250739E-04
DEBUG_STATS_RL:          Vvel (THERMODYNAMICS) S.D.=  1.57583197158810E-02
DEBUG_STATS_RL:          Wvel (THERMODYNAMICS)  min= -1.58645016341186E-04
DEBUG_STATS_RL:          Wvel (THERMODYNAMICS)  max=  1.08778664536357E-04
DEBUG_STATS_RL:          Wvel (THERMODYNAMICS) mean= -2.16335432053588E-07
DEBUG_STATS_RL:          Wvel (THERMODYNAMICS) S.D.=  1.47179269114984E-05
DEBUG_STATS_RL:         Theta (THERMODYNAMICS)  min= -1.99526631535541E+00
DEBUG_STATS_RL:         Theta (THERMODYNAMICS)  max=  3.03031581200743E+01
DEBUG_STATS_RL:         Theta (THERMODYNAMICS) mean=  3.23567546621596E+00
DEBUG_STATS_RL:         Theta (THERMODYNAMICS) S.D.=  5.86645399450063E+00
DEBUG_STATS_RL:          Salt (THERMODYNAMICS)  min=  2.00000000000000E-02
DEBUG_STATS_RL:          Salt (THERMODYNAMICS)  max=  3.74784503346788E+01
DEBUG_STATS_RL:          Salt (THERMODYNAMICS) mean=  1.88648972771380E+01
DEBUG_STATS_RL:          Salt (THERMODYNAMICS) S.D.=  1.73004162664251E+01
DEBUG_STATS_RL:         GtNm1 (THERMODYNAMICS)  min= -4.10349009555781E-06
DEBUG_STATS_RL:         GtNm1 (THERMODYNAMICS)  max=  3.00306104274131E-06
DEBUG_STATS_RL:         GtNm1 (THERMODYNAMICS) mean=  1.09787194200453E-08
DEBUG_STATS_RL:         GtNm1 (THERMODYNAMICS) S.D.=  2.07313290089121E-07
DEBUG_STATS_RL:         GsNm1 (THERMODYNAMICS)  min= -4.15003909348708E-07
DEBUG_STATS_RL:         GsNm1 (THERMODYNAMICS)  max=  3.32153504292164E-07
DEBUG_STATS_RL:         GsNm1 (THERMODYNAMICS) mean=  2.10079761065975E-10
DEBUG_STATS_RL:         GsNm1 (THERMODYNAMICS) S.D.=  1.91896610662242E-08
DEBUG_STATS_RL:                EtaN (DYNAMICS)  min= -1.85622340995748E+00
DEBUG_STATS_RL:                EtaN (DYNAMICS)  max=  1.12877693788001E+00
DEBUG_STATS_RL:                EtaN (DYNAMICS) mean= -1.89194827733253E-01
DEBUG_STATS_RL:                EtaN (DYNAMICS) S.D.=  8.13558550319128E-01
DEBUG_STATS_RL:                Uvel (DYNAMICS)  min= -1.62602914522441E-01
DEBUG_STATS_RL:                Uvel (DYNAMICS)  max=  1.58336694221326E-01
DEBUG_STATS_RL:                Uvel (DYNAMICS) mean=  2.70985143557014E-03
DEBUG_STATS_RL:                Uvel (DYNAMICS) S.D.=  2.66648613703368E-02
DEBUG_STATS_RL:                Vvel (DYNAMICS)  min= -1.15575212790430E-01
DEBUG_STATS_RL:                Vvel (DYNAMICS)  max=  1.44624003655680E-01
DEBUG_STATS_RL:                Vvel (DYNAMICS) mean=  7.02385900250739E-04
DEBUG_STATS_RL:                Vvel (DYNAMICS) S.D.=  1.57583197158810E-02
DEBUG_STATS_RL:                Wvel (DYNAMICS)  min= -1.58645016341186E-04
DEBUG_STATS_RL:                Wvel (DYNAMICS)  max=  1.08778664536357E-04
DEBUG_STATS_RL:                Wvel (DYNAMICS) mean= -2.16335432053588E-07
DEBUG_STATS_RL:                Wvel (DYNAMICS) S.D.=  1.47179269114984E-05
DEBUG_STATS_RL:               Theta (DYNAMICS)  min= -1.99526631535541E+00
DEBUG_STATS_RL:               Theta (DYNAMICS)  max=  3.03031581200743E+01
DEBUG_STATS_RL:               Theta (DYNAMICS) mean=  3.23567546621596E+00
DEBUG_STATS_RL:               Theta (DYNAMICS) S.D.=  5.86645399450063E+00
DEBUG_STATS_RL:                Salt (DYNAMICS)  min=  2.00000000000000E-02
DEBUG_STATS_RL:                Salt (DYNAMICS)  max=  3.74784503346788E+01
DEBUG_STATS_RL:                Salt (DYNAMICS) mean=  1.88648972771380E+01
DEBUG_STATS_RL:                Salt (DYNAMICS) S.D.=  1.73004162664251E+01
DEBUG_STATS_RL:                  Gu (DYNAMICS)  min= -1.61966938315232E-01
DEBUG_STATS_RL:                  Gu (DYNAMICS)  max=  1.64406467245268E-01
DEBUG_STATS_RL:                  Gu (DYNAMICS) mean=  2.45794576659054E-03
DEBUG_STATS_RL:                  Gu (DYNAMICS) S.D.=  2.69613719461328E-02
DEBUG_STATS_RL:                  Gv (DYNAMICS)  min= -1.14510982240570E-01
DEBUG_STATS_RL:                  Gv (DYNAMICS)  max=  1.36453103949957E-01
DEBUG_STATS_RL:                  Gv (DYNAMICS) mean=  2.99856862085225E-03
DEBUG_STATS_RL:                  Gv (DYNAMICS) S.D.=  1.62384719897168E-02
DEBUG_STATS_RL:               GuNm1 (DYNAMICS)  min= -9.35916926770126E-06
DEBUG_STATS_RL:               GuNm1 (DYNAMICS)  max=  8.59651088082535E-06
DEBUG_STATS_RL:               GuNm1 (DYNAMICS) mean= -1.18555203787374E-08
DEBUG_STATS_RL:               GuNm1 (DYNAMICS) S.D.=  1.17492375065431E-06
DEBUG_STATS_RL:               GvNm1 (DYNAMICS)  min= -9.94734060097003E-06
DEBUG_STATS_RL:               GvNm1 (DYNAMICS)  max=  1.63683413428829E-05
DEBUG_STATS_RL:               GvNm1 (DYNAMICS) mean=  7.43766308495787E-07
DEBUG_STATS_RL:               GvNm1 (DYNAMICS) S.D.=  2.59597880238811E-06
DEBUG_STATS_RL:               GtNm1 (DYNAMICS)  min= -4.10349009555781E-06
DEBUG_STATS_RL:               GtNm1 (DYNAMICS)  max=  3.00306104274131E-06
DEBUG_STATS_RL:               GtNm1 (DYNAMICS) mean=  1.09787194200453E-08
DEBUG_STATS_RL:               GtNm1 (DYNAMICS) S.D.=  2.07313290089121E-07
DEBUG_STATS_RL:               GsNm1 (DYNAMICS)  min= -4.15003909348708E-07
DEBUG_STATS_RL:               GsNm1 (DYNAMICS)  max=  3.32153504292164E-07
DEBUG_STATS_RL:               GsNm1 (DYNAMICS) mean=  2.10079761065975E-10
DEBUG_STATS_RL:               GsNm1 (DYNAMICS) S.D.=  1.91896610662242E-08
DEBUG_STATS_RL:    cg2d_b (SOLVE_FOR_PRESSURE)  min= -2.56164233537028E+04
DEBUG_STATS_RL:    cg2d_b (SOLVE_FOR_PRESSURE)  max=  1.65240898922128E+04
DEBUG_STATS_RL:    cg2d_b (SOLVE_FOR_PRESSURE) mean=  3.17742442240489E+00
DEBUG_STATS_RL:    cg2d_b (SOLVE_FOR_PRESSURE) S.D.=  3.74118727772424E+03
 cg2d: Sum(rhs),rhsMax =   2.87149280611907E-01  1.68255527194173E+00
(PID.TID 0000.0001)  cg2d: iter=     1 ; resid.=  1.91854238275380E-01
(PID.TID 0000.0001)  cg2d: iter=     2 ; resid.=  1.54412739906660E-01
(PID.TID 0000.0001)  cg2d: iter=     3 ; resid.=  1.43389319261079E-01
(PID.TID 0000.0001)  cg2d: iter=     4 ; resid.=  1.14024026242613E-01
(PID.TID 0000.0001)  cg2d: iter=     5 ; resid.=  8.68261283933730E-02
(PID.TID 0000.0001)  cg2d: iter=     6 ; resid.=  6.76836966250414E-02
(PID.TID 0000.0001)  cg2d: iter=     7 ; resid.=  5.37080700967193E-02
(PID.TID 0000.0001)  cg2d: iter=     8 ; resid.=  4.42780176079151E-02
(PID.TID 0000.0001)  cg2d: iter=     9 ; resid.=  3.63693595600097E-02
(PID.TID 0000.0001)  cg2d: iter=    10 ; resid.=  2.86779707518987E-02
(PID.TID 0000.0001)  cg2d: iter=    11 ; resid.=  2.47659107178717E-02
(PID.TID 0000.0001)  cg2d: iter=    12 ; resid.=  2.24666910403593E-02
(PID.TID 0000.0001)  cg2d: iter=    13 ; resid.=  1.73887031012881E-02
(PID.TID 0000.0001)  cg2d: iter=    14 ; resid.=  1.36461792849557E-02
(PID.TID 0000.0001)  cg2d: iter=    15 ; resid.=  1.08395143308388E-02
(PID.TID 0000.0001)  cg2d: iter=    16 ; resid.=  9.34067908406105E-03
(PID.TID 0000.0001)  cg2d: iter=    17 ; resid.=  7.85960763562206E-03
(PID.TID 0000.0001)  cg2d: iter=    18 ; resid.=  6.17060944068613E-03
(PID.TID 0000.0001)  cg2d: iter=    19 ; resid.=  5.02099457662545E-03
(PID.TID 0000.0001)  cg2d: iter=    20 ; resid.=  4.10572423635255E-03
(PID.TID 0000.0001)  cg2d: iter=    21 ; resid.=  3.42666653571783E-03
(PID.TID 0000.0001)  cg2d: iter=    22 ; resid.=  2.81785047228969E-03
(PID.TID 0000.0001)  cg2d: iter=    23 ; resid.=  2.22894427795435E-03
(PID.TID 0000.0001)  cg2d: iter=    24 ; resid.=  1.75335509937147E-03
(PID.TID 0000.0001)  cg2d: iter=    25 ; resid.=  1.32855548080951E-03
(PID.TID 0000.0001)  cg2d: iter=    26 ; resid.=  1.00925269154484E-03
(PID.TID 0000.0001)  cg2d: iter=    27 ; resid.=  8.25806432540265E-04
(PID.TID 0000.0001)  cg2d: iter=    28 ; resid.=  6.97572170776297E-04
(PID.TID 0000.0001)  cg2d: iter=    29 ; resid.=  5.98628905498291E-04
(PID.TID 0000.0001)  cg2d: iter=    30 ; resid.=  5.31637583546640E-04
(PID.TID 0000.0001)  cg2d: iter=    31 ; resid.=  4.65841220302492E-04
(PID.TID 0000.0001)  cg2d: iter=    32 ; resid.=  3.73153163401486E-04
(PID.TID 0000.0001)  cg2d: iter=    33 ; resid.=  3.27025126324383E-04
(PID.TID 0000.0001)  cg2d: iter=    34 ; resid.=  3.08555962196505E-04
(PID.TID 0000.0001)  cg2d: iter=    35 ; resid.=  2.62910036022426E-04
(PID.TID 0000.0001)  cg2d: iter=    36 ; resid.=  2.19345047572394E-04
(PID.TID 0000.0001)  cg2d: iter=    37 ; resid.=  1.73653028303320E-04
(PID.TID 0000.0001)  cg2d: iter=    38 ; resid.=  1.38822595143842E-04
(PID.TID 0000.0001)  cg2d: iter=    39 ; resid.=  1.08727166276026E-04
(PID.TID 0000.0001)  cg2d: iter=    40 ; resid.=  8.62835276745945E-05
(PID.TID 0000.0001)  cg2d: iter=    41 ; resid.=  7.02623155474283E-05
(PID.TID 0000.0001)  cg2d: iter=    42 ; resid.=  6.00894442339323E-05
(PID.TID 0000.0001)  cg2d: iter=    43 ; resid.=  5.55327733887955E-05
(PID.TID 0000.0001)  cg2d: iter=    44 ; resid.=  4.74025717211369E-05
(PID.TID 0000.0001)  cg2d: iter=    45 ; resid.=  3.80979725480034E-05
(PID.TID 0000.0001)  cg2d: iter=    46 ; resid.=  2.96905007962365E-05
(PID.TID 0000.0001)  cg2d: iter=    47 ; resid.=  2.67247488467556E-05
(PID.TID 0000.0001)  cg2d: iter=    48 ; resid.=  2.28668776418054E-05
(PID.TID 0000.0001)  cg2d: iter=    49 ; resid.=  1.82168543742468E-05
(PID.TID 0000.0001)  cg2d: iter=    50 ; resid.=  1.39528019815437E-05
(PID.TID 0000.0001)  cg2d: iter=    51 ; resid.=  1.06661198185210E-05
(PID.TID 0000.0001)  cg2d: iter=    52 ; resid.=  8.46159528101338E-06
(PID.TID 0000.0001)  cg2d: iter=    53 ; resid.=  6.67006788828118E-06
(PID.TID 0000.0001)  cg2d: iter=    54 ; resid.=  5.55129983928925E-06
(PID.TID 0000.0001)  cg2d: iter=    55 ; resid.=  4.83135204815171E-06
(PID.TID 0000.0001)  cg2d: iter=    56 ; resid.=  4.18289976106707E-06
(PID.TID 0000.0001)  cg2d: iter=    57 ; resid.=  3.73433867944934E-06
(PID.TID 0000.0001)  cg2d: iter=    58 ; resid.=  3.42230466126878E-06
(PID.TID 0000.0001)  cg2d: iter=    59 ; resid.=  2.99428307971613E-06
(PID.TID 0000.0001)  cg2d: iter=    60 ; resid.=  2.53640141799049E-06
(PID.TID 0000.0001)  cg2d: iter=    61 ; resid.=  2.08118405848498E-06
(PID.TID 0000.0001)  cg2d: iter=    62 ; resid.=  1.81937371218467E-06
(PID.TID 0000.0001)  cg2d: iter=    63 ; resid.=  1.53877309575440E-06
(PID.TID 0000.0001)  cg2d: iter=    64 ; resid.=  1.31802280034224E-06
(PID.TID 0000.0001)  cg2d: iter=    65 ; resid.=  1.10512038635412E-06
(PID.TID 0000.0001)  cg2d: iter=    66 ; resid.=  9.22821521973565E-07
(PID.TID 0000.0001)  cg2d: iter=    67 ; resid.=  7.94735792654001E-07
(PID.TID 0000.0001)  cg2d: iter=    68 ; resid.=  6.91849106059219E-07
(PID.TID 0000.0001)  cg2d: iter=    69 ; resid.=  5.13739751028402E-07
(PID.TID 0000.0001)  cg2d: iter=    70 ; resid.=  3.84855374577800E-07
(PID.TID 0000.0001)  cg2d: iter=    71 ; resid.=  3.15262290048076E-07
(PID.TID 0000.0001)  cg2d: iter=    72 ; resid.=  2.44355845163176E-07
(PID.TID 0000.0001)  cg2d: iter=    73 ; resid.=  1.90899721824811E-07
(PID.TID 0000.0001)  cg2d: iter=    74 ; resid.=  1.48373760528582E-07
(PID.TID 0000.0001)  cg2d: iter=    75 ; resid.=  1.07422944673900E-07
(PID.TID 0000.0001)  cg2d: iter=    76 ; resid.=  7.66318517415842E-08
(PID.TID 0000.0001)  cg2d: iter=    77 ; resid.=  5.72324606973257E-08
(PID.TID 0000.0001)  cg2d: iter=    78 ; resid.=  4.19433637625531E-08
(PID.TID 0000.0001)  cg2d: iter=    79 ; resid.=  3.41815519013912E-08
(PID.TID 0000.0001)  cg2d: iter=    80 ; resid.=  2.74861133168332E-08
(PID.TID 0000.0001)  cg2d: iter=    81 ; resid.=  2.32076210575392E-08
(PID.TID 0000.0001)  cg2d: iter=    82 ; resid.=  2.00613466361178E-08
(PID.TID 0000.0001)  cg2d: iter=    83 ; resid.=  1.61720352203314E-08
(PID.TID 0000.0001)  cg2d: iter=    84 ; resid.=  1.37703002188083E-08
(PID.TID 0000.0001)  cg2d: iter=    85 ; resid.=  1.10965898768017E-08
(PID.TID 0000.0001)  cg2d: iter=    86 ; resid.=  8.71044287855247E-09
(PID.TID 0000.0001)  cg2d: iter=    87 ; resid.=  5.94075599399648E-09
(PID.TID 0000.0001)  cg2d: iter=    88 ; resid.=  4.58487437553820E-09
(PID.TID 0000.0001)  cg2d: iter=    89 ; resid.=  4.38520586326112E-09
(PID.TID 0000.0001)  cg2d: iter=    90 ; resid.=  4.07014397986514E-09
(PID.TID 0000.0001)  cg2d: iter=    91 ; resid.=  3.64647385427720E-09
(PID.TID 0000.0001)  cg2d: iter=    92 ; resid.=  3.13031219690594E-09
(PID.TID 0000.0001)  cg2d: iter=    93 ; resid.=  2.57742174305230E-09
(PID.TID 0000.0001)  cg2d: iter=    94 ; resid.=  2.04195229500356E-09
(PID.TID 0000.0001)  cg2d: iter=    95 ; resid.=  1.83417477493590E-09
(PID.TID 0000.0001)  cg2d: iter=    96 ; resid.=  1.41343340220879E-09
(PID.TID 0000.0001)  cg2d: iter=    97 ; resid.=  1.04034761756283E-09
(PID.TID 0000.0001)  cg2d: iter=    98 ; resid.=  7.31167695781350E-10
(PID.TID 0000.0001)  cg2d: iter=    99 ; resid.=  5.70825257050828E-10
(PID.TID 0000.0001)  cg2d: iter=   100 ; resid.=  5.13104105267494E-10
(PID.TID 0000.0001)  cg2d: iter=   101 ; resid.=  4.23700016026270E-10
(PID.TID 0000.0001)  cg2d: iter=   102 ; resid.=  3.12850075520222E-10
(PID.TID 0000.0001)  cg2d: iter=   103 ; resid.=  2.24424275328088E-10
(PID.TID 0000.0001)  cg2d: iter=   104 ; resid.=  1.77081846065046E-10
(PID.TID 0000.0001)  cg2d: iter=   105 ; resid.=  1.36643657095856E-10
(PID.TID 0000.0001)  cg2d: iter=   106 ; resid.=  1.14654752835579E-10
(PID.TID 0000.0001)  cg2d: iter=   107 ; resid.=  9.13825370899004E-11
(PID.TID 0000.0001)  cg2d: iter=   108 ; resid.=  7.67428629744922E-11
(PID.TID 0000.0001)  cg2d: iter=   109 ; resid.=  6.69904156481390E-11
(PID.TID 0000.0001)  cg2d: iter=   110 ; resid.=  5.40913491421125E-11
(PID.TID 0000.0001)  cg2d: iter=   111 ; resid.=  4.65460798611368E-11
(PID.TID 0000.0001)  cg2d: iter=   112 ; resid.=  3.87242825418882E-11
(PID.TID 0000.0001)  cg2d: iter=   113 ; resid.=  3.16395392894857E-11
(PID.TID 0000.0001)  cg2d: iter=   114 ; resid.=  2.70070726030313E-11
(PID.TID 0000.0001)  cg2d: iter=   115 ; resid.=  2.05486910834509E-11
(PID.TID 0000.0001)  cg2d: iter=   116 ; resid.=  1.47106546677212E-11
(PID.TID 0000.0001)  cg2d: iter=   117 ; resid.=  1.21684965548625E-11
(PID.TID 0000.0001)  cg2d: iter=   118 ; resid.=  9.02031587782917E-12
(PID.TID 0000.0001)  cg2d: iter=   119 ; resid.=  7.70773241290818E-12
(PID.TID 0000.0001)  cg2d: iter=   120 ; resid.=  5.87346042923835E-12
(PID.TID 0000.0001)  cg2d: iter=   121 ; resid.=  4.48697503794689E-12
(PID.TID 0000.0001)  cg2d: iter=   122 ; resid.=  3.67329240197649E-12
(PID.TID 0000.0001)  cg2d: iter=   123 ; resid.=  2.98623887653355E-12
(PID.TID 0000.0001)  cg2d: iter=   124 ; resid.=  2.19348345744590E-12
(PID.TID 0000.0001)  cg2d: iter=   125 ; resid.=  1.62223450462760E-12
(PID.TID 0000.0001)  cg2d: iter=   126 ; resid.=  1.23596494068812E-12
(PID.TID 0000.0001)  cg2d: iter=   127 ; resid.=  8.55898876466257E-13
(PID.TID 0000.0001)  cg2d: iter=   128 ; resid.=  5.75114902998693E-13
(PID.TID 0000.0001)  cg2d: iter=   129 ; resid.=  4.20284307014426E-13
(PID.TID 0000.0001)  cg2d: iter=   130 ; resid.=  3.25959659055342E-13
(PID.TID 0000.0001)  cg2d: iter=   131 ; resid.=  2.59050086513240E-13
(PID.TID 0000.0001)  cg2d: iter=   132 ; resid.=  2.00795110059412E-13
(PID.TID 0000.0001)  cg2d: iter=   133 ; resid.=  1.49535378651326E-13
(PID.TID 0000.0001)  cg2d: iter=   134 ; resid.=  1.16920937032719E-13
(PID.TID 0000.0001)  cg2d: iter=   135 ; resid.=  9.24531802222972E-14
DEBUG_STATS_RL:    cg2d_x (SOLVE_FOR_PRESSURE)  min= -1.81759061720013E+01
DEBUG_STATS_RL:    cg2d_x (SOLVE_FOR_PRESSURE)  max=  1.11975067468970E+01
DEBUG_STATS_RL:    cg2d_x (SOLVE_FOR_PRESSURE) mean= -1.86924181682893E+00
DEBUG_STATS_RL:    cg2d_x (SOLVE_FOR_PRESSURE) S.D.=  7.97280752962499E+00
(PID.TID 0000.0001)      cg2d_init_res =   3.77599579732841E-01
(PID.TID 0000.0001)      cg2d_iters(min,last) =      -1     135
(PID.TID 0000.0001)      cg2d_last_res =   9.24531802222972E-14
(PID.TID 0000.0001) // =======================================================
(PID.TID 0000.0001) // Begin MONITOR dynamic field statistics
(PID.TID 0000.0001) // =======================================================
(PID.TID 0000.0001) %MON time_tsnumber                =                    44
(PID.TID 0000.0001) %MON time_secondsf                =   3.8016000000000E+06
(PID.TID 0000.0001) %MON dynstat_eta_max              =   1.1414379966256E+00
(PID.TID 0000.0001) %MON dynstat_eta_min              =  -1.8527936974517E+00
(PID.TID 0000.0001) %MON dynstat_eta_mean             =  -3.3152483971575E-03
(PID.TID 0000.0001) %MON dynstat_eta_sd               =   7.3467250276115E-01
(PID.TID 0000.0001) %MON dynstat_eta_del2             =   2.2751927339536E-03
(PID.TID 0000.0001) %MON dynstat_uvel_max             =   1.6239442991037E-01
(PID.TID 0000.0001) %MON dynstat_uvel_min             =  -1.6199160524688E-01
(PID.TID 0000.0001) %MON dynstat_uvel_mean            =   4.1353207830208E-04
(PID.TID 0000.0001) %MON dynstat_uvel_sd              =   1.8481927354404E-02
(PID.TID 0000.0001) %MON dynstat_uvel_del2            =   1.0536054666584E-04
(PID.TID 0000.0001) %MON dynstat_vvel_max             =   1.3601154654716E-01
(PID.TID 0000.0001) %MON dynstat_vvel_min             =  -1.1644895200700E-01
(PID.TID 0000.0001) %MON dynstat_vvel_mean            =   6.5919200299429E-06
(PID.TID 0000.0001) %MON dynstat_vvel_sd              =   1.0616384202010E-02
(PID.TID 0000.0001) %MON dynstat_vvel_del2            =   8.8555326336773E-05
(PID.TID 0000.0001) %MON dynstat_wvel_max             =   1.0733768912610E-04
(PID.TID 0000.0001) %MON dynstat_wvel_min             =  -1.5578025010361E-04
(PID.TID 0000.0001) %MON dynstat_wvel_mean            =   1.2658887739279E-22
(PID.TID 0000.0001) %MON dynstat_wvel_sd              =   1.6875617628988E-05
(PID.TID 0000.0001) %MON dynstat_wvel_del2            =   1.6681908158977E-07
(PID.TID 0000.0001) %MON dynstat_theta_max            =   3.0303158120074E+01
(PID.TID 0000.0001) %MON dynstat_theta_min            =  -1.9952663153554E+00
(PID.TID 0000.0001) %MON dynstat_theta_mean           =   3.6420322875051E+00
(PID.TID 0000.0001) %MON dynstat_theta_sd             =   4.4198890985489E+00
(PID.TID 0000.0001) %MON dynstat_theta_del2           =   4.7484313857288E-03
(PID.TID 0000.0001) %MON dynstat_salt_max             =   3.7478450334679E+01
(PID.TID 0000.0001) %MON dynstat_salt_min             =   2.9847050092063E+01
(PID.TID 0000.0001) %MON dynstat_salt_mean            =   3.4738018280890E+01
(PID.TID 0000.0001) %MON dynstat_salt_sd              =   2.9640180757718E-01
(PID.TID 0000.0001) %MON dynstat_salt_del2            =   9.8635359641700E-04
(PID.TID 0000.0001) %MON dynstat_sst_max              =   3.0303158120074E+01
(PID.TID 0000.0001) %MON dynstat_sst_min              =  -1.9952663153554E+00
(PID.TID 0000.0001) %MON dynstat_sst_mean             =   1.8895540738982E+01
(PID.TID 0000.0001) %MON dynstat_sst_sd               =   9.0106997015220E+00
(PID.TID 0000.0001) %MON dynstat_sst_del2             =   2.7220460421870E-02
(PID.TID 0000.0001) %MON dynstat_sss_max              =   3.7448734744312E+01
(PID.TID 0000.0001) %MON dynstat_sss_min              =   2.9847050092063E+01
(PID.TID 0000.0001) %MON dynstat_sss_mean             =   3.4864507519834E+01
(PID.TID 0000.0001) %MON dynstat_sss_sd               =   9.7721826483374E-01
(PID.TID 0000.0001) %MON dynstat_sss_del2             =   7.8832731025481E-03
(PID.TID 0000.0001) %MON forcing_qnet_max             =   3.6116065877279E+02
(PID.TID 0000.0001) %MON forcing_qnet_min             =  -1.7331300760905E+02
(PID.TID 0000.0001) %MON forcing_qnet_mean            =  -1.4135069313750E+01
(PID.TID 0000.0001) %MON forcing_qnet_sd              =   8.1439639696185E+01
(PID.TID 0000.0001) %MON forcing_qnet_del2            =   9.5075858077314E-01
(PID.TID 0000.0001) %MON forcing_qsw_max              =   0.0000000000000E+00
(PID.TID 0000.0001) %MON forcing_qsw_min              =   0.0000000000000E+00
(PID.TID 0000.0001) %MON forcing_qsw_mean             =   0.0000000000000E+00
(PID.TID 0000.0001) %MON forcing_qsw_sd               =   0.0000000000000E+00
(PID.TID 0000.0001) %MON forcing_qsw_del2             =   0.0000000000000E+00
(PID.TID 0000.0001) %MON forcing_empmr_max            =   7.3379726472922E-05
(PID.TID 0000.0001) %MON forcing_empmr_min            =  -7.8385995531486E-05
(PID.TID 0000.0001) %MON forcing_empmr_mean           =   9.4204418538947E-07
(PID.TID 0000.0001) %MON forcing_empmr_sd             =   2.7984746342061E-05
(PID.TID 0000.0001) %MON forcing_empmr_del2           =   3.5513748337795E-07
(PID.TID 0000.0001) %MON forcing_fu_max               =   3.0186120867729E-01
(PID.TID 0000.0001) %MON forcing_fu_min               =  -2.1399418314298E-01
(PID.TID 0000.0001) %MON forcing_fu_mean              =   1.7522141185698E-02
(PID.TID 0000.0001) %MON forcing_fu_sd                =   9.2407469002415E-02
(PID.TID 0000.0001) %MON forcing_fu_del2              =   7.2980579013269E-04
(PID.TID 0000.0001) %MON forcing_fv_max               =   1.9736103514830E-01
(PID.TID 0000.0001) %MON forcing_fv_min               =  -1.9333545764287E-01
(PID.TID 0000.0001) %MON forcing_fv_mean              =  -7.0862031275300E-03
(PID.TID 0000.0001) %MON forcing_fv_sd                =   4.4825947766004E-02
(PID.TID 0000.0001) %MON forcing_fv_del2              =   5.2614803750806E-04
(PID.TID 0000.0001) %MON trAdv_CFL_u_max              =   4.9037827824779E-02
(PID.TID 0000.0001) %MON trAdv_CFL_v_max              =   2.9436679814386E-02
(PID.TID 0000.0001) %MON trAdv_CFL_w_max              =   4.2406160872831E-02
(PID.TID 0000.0001) %MON advcfl_uvel_max              =   4.7904365221679E-02
(PID.TID 0000.0001) %MON advcfl_vvel_max              =   2.6424862131164E-02
(PID.TID 0000.0001) %MON advcfl_wvel_max              =   3.8553117248618E-02
(PID.TID 0000.0001) %MON advcfl_W_hf_max              =   4.2846636616255E-02
(PID.TID 0000.0001) %MON pe_b_mean                    =   6.9068116761772E-04
(PID.TID 0000.0001) %MON ke_max                       =   1.5416237855921E-02
(PID.TID 0000.0001) %MON ke_mean                      =   2.0586280745367E-04
(PID.TID 0000.0001) %MON ke_vol                       =   1.3226782436723E+18
(PID.TID 0000.0001) %MON vort_r_min                   =  -4.9980686691573E-07
(PID.TID 0000.0001) %MON vort_r_max                   =   4.7210185632260E-07
(PID.TID 0000.0001) %MON vort_a_mean                  =  -2.5274806346013E-05
(PID.TID 0000.0001) %MON vort_a_sd                    =   7.3604370837317E-05
(PID.TID 0000.0001) %MON vort_p_mean                  =  -3.1845654474686E-05
(PID.TID 0000.0001) %MON vort_p_sd                    =   1.3162370686530E-04
(PID.TID 0000.0001) %MON surfExpan_theta_mean         =   2.3584959148999E-07
(PID.TID 0000.0001) %MON surfExpan_salt_mean          =   8.1886710940940E-08
(PID.TID 0000.0001) // =======================================================
(PID.TID 0000.0001) // End MONITOR dynamic field statistics
(PID.TID 0000.0001) // =======================================================
 EXTERNAL_FIELDS_LOAD,        44 : iP,iLd,i0,i1=    1    2    1    2 ; Wght=  0.0333333333  0.9666666667
 EXTERNAL_FIELDS_LOAD: (fu0,1),fu,fv= -3.5633E-02 -1.4435E-02 -1.5141E-02 -1.8956E-02
 EXTERNAL_FIELDS_LOAD: SST,SSS,Q,E-P= -4.8218E-01  3.4431E+01  2.4132E+02  8.4859E-06
DEBUG_STATS_RL:          Uvel (THERMODYNAMICS)  min= -1.61991605246885E-01
DEBUG_STATS_RL:          Uvel (THERMODYNAMICS)  max=  1.62394429910372E-01
DEBUG_STATS_RL:          Uvel (THERMODYNAMICS) mean=  2.65498794129137E-03
DEBUG_STATS_RL:          Uvel (THERMODYNAMICS) S.D.=  2.65392870798665E-02
DEBUG_STATS_RL:          Vvel (THERMODYNAMICS)  min= -1.16448952006997E-01
DEBUG_STATS_RL:          Vvel (THERMODYNAMICS)  max=  1.36011546547163E-01
DEBUG_STATS_RL:          Vvel (THERMODYNAMICS) mean=  8.93933430406261E-04
DEBUG_STATS_RL:          Vvel (THERMODYNAMICS) S.D.=  1.57383499373456E-02
DEBUG_STATS_RL:          Wvel (THERMODYNAMICS)  min= -1.55780250103606E-04
DEBUG_STATS_RL:          Wvel (THERMODYNAMICS)  max=  1.07337689126104E-04
DEBUG_STATS_RL:          Wvel (THERMODYNAMICS) mean= -1.72912636073474E-07
DEBUG_STATS_RL:          Wvel (THERMODYNAMICS) S.D.=  1.46495937786967E-05
DEBUG_STATS_RL:         Theta (THERMODYNAMICS)  min= -1.99391654152853E+00
DEBUG_STATS_RL:         Theta (THERMODYNAMICS)  max=  3.03234628201572E+01
DEBUG_STATS_RL:         Theta (THERMODYNAMICS) mean=  3.23612814710034E+00
DEBUG_STATS_RL:         Theta (THERMODYNAMICS) S.D.=  5.86729211330175E+00
DEBUG_STATS_RL:          Salt (THERMODYNAMICS)  min=  2.00000000000000E-02
DEBUG_STATS_RL:          Salt (THERMODYNAMICS)  max=  3.74788799736675E+01
DEBUG_STATS_RL:          Salt (THERMODYNAMICS) mean=  1.88649092703557E+01
DEBUG_STATS_RL:          Salt (THERMODYNAMICS) S.D.=  1.73004276685751E+01
DEBUG_STATS_RL:         GtNm1 (THERMODYNAMICS)  min= -4.24254017054937E-06
DEBUG_STATS_RL:         GtNm1 (THERMODYNAMICS)  max=  2.94006296823627E-06
DEBUG_STATS_RL:         GtNm1 (THERMODYNAMICS) mean=  1.02501193788171E-08
DEBUG_STATS_RL:         GtNm1 (THERMODYNAMICS) S.D.=  2.06222754602796E-07
DEBUG_STATS_RL:         GsNm1 (THERMODYNAMICS)  min= -4.14758757333389E-07
DEBUG_STATS_RL:         GsNm1 (THERMODYNAMICS)  max=  3.24509459520460E-07
DEBUG_STATS_RL:         GsNm1 (THERMODYNAMICS) mean=  2.03247782114541E-10
DEBUG_STATS_RL:         GsNm1 (THERMODYNAMICS) S.D.=  1.91323042789651E-08
DEBUG_STATS_RL:                EtaN (DYNAMICS)  min= -1.85279369745172E+00
DEBUG_STATS_RL:                EtaN (DYNAMICS)  max=  1.14143799662557E+00
DEBUG_STATS_RL:                EtaN (DYNAMICS) mean= -1.90544527709372E-01
DEBUG_STATS_RL:                EtaN (DYNAMICS) S.D.=  8.12722480084104E-01
DEBUG_STATS_RL:                Uvel (DYNAMICS)  min= -1.61991605246885E-01
DEBUG_STATS_RL:                Uvel (DYNAMICS)  max=  1.62394429910372E-01
DEBUG_STATS_RL:                Uvel (DYNAMICS) mean=  2.65498794129137E-03
DEBUG_STATS_RL:                Uvel (DYNAMICS) S.D.=  2.65392870798665E-02
DEBUG_STATS_RL:                Vvel (DYNAMICS)  min= -1.16448952006997E-01
DEBUG_STATS_RL:                Vvel (DYNAMICS)  max=  1.36011546547163E-01
DEBUG_STATS_RL:                Vvel (DYNAMICS) mean=  8.93933430406261E-04
DEBUG_STATS_RL:                Vvel (DYNAMICS) S.D.=  1.57383499373456E-02
DEBUG_STATS_RL:                Wvel (DYNAMICS)  min= -1.55780250103606E-04
DEBUG_STATS_RL:                Wvel (DYNAMICS)  max=  1.07337689126104E-04
DEBUG_STATS_RL:                Wvel (DYNAMICS) mean= -1.72912636073474E-07
DEBUG_STATS_RL:                Wvel (DYNAMICS) S.D.=  1.46495937786967E-05
DEBUG_STATS_RL:               Theta (DYNAMICS)  min= -1.99391654152853E+00
DEBUG_STATS_RL:               Theta (DYNAMICS)  max=  3.03234628201572E+01
DEBUG_STATS_RL:               Theta (DYNAMICS) mean=  3.23612814710034E+00
DEBUG_STATS_RL:               Theta (DYNAMICS) S.D.=  5.86729211330175E+00
DEBUG_STATS_RL:                Salt (DYNAMICS)  min=  2.00000000000000E-02
DEBUG_STATS_RL:                Salt (DYNAMICS)  max=  3.74788799736675E+01
DEBUG_STATS_RL:                Salt (DYNAMICS) mean=  1.88649092703557E+01
DEBUG_STATS_RL:                Salt (DYNAMICS) S.D.=  1.73004276685751E+01
DEBUG_STATS_RL:                  Gu (DYNAMICS)  min= -1.61046541158994E-01
DEBUG_STATS_RL:                  Gu (DYNAMICS)  max=  1.68986796147365E-01
DEBUG_STATS_RL:                  Gu (DYNAMICS) mean=  2.45626447455570E-03
DEBUG_STATS_RL:                  Gu (DYNAMICS) S.D.=  2.67568330909161E-02
DEBUG_STATS_RL:                  Gv (DYNAMICS)  min= -1.15492673039266E-01
DEBUG_STATS_RL:                  Gv (DYNAMICS)  max=  1.26763384816608E-01
DEBUG_STATS_RL:                  Gv (DYNAMICS) mean=  3.16025150450616E-03
DEBUG_STATS_RL:                  Gv (DYNAMICS) S.D.=  1.63751448273655E-02
DEBUG_STATS_RL:               GuNm1 (DYNAMICS)  min= -9.40614715948632E-06
DEBUG_STATS_RL:               GuNm1 (DYNAMICS)  max=  8.64472610818297E-06
DEBUG_STATS_RL:               GuNm1 (DYNAMICS) mean= -9.83556454590064E-09
DEBUG_STATS_RL:               GuNm1 (DYNAMICS) S.D.=  1.17624061373992E-06
DEBUG_STATS_RL:               GvNm1 (DYNAMICS)  min= -9.82181788346979E-06
DEBUG_STATS_RL:               GvNm1 (DYNAMICS)  max=  1.63771701316454E-05
DEBUG_STATS_RL:               GvNm1 (DYNAMICS) mean=  7.43397903132248E-07
DEBUG_STATS_RL:               GvNm1 (DYNAMICS) S.D.=  2.59528304111437E-06
DEBUG_STATS_RL:               GtNm1 (DYNAMICS)  min= -4.24254017054937E-06
DEBUG_STATS_RL:               GtNm1 (DYNAMICS)  max=  2.94006296823627E-06
DEBUG_STATS_RL:               GtNm1 (DYNAMICS) mean=  1.02501193788171E-08
DEBUG_STATS_RL:               GtNm1 (DYNAMICS) S.D.=  2.06222754602796E-07
DEBUG_STATS_RL:               GsNm1 (DYNAMICS)  min= -4.14758757333389E-07
DEBUG_STATS_RL:               GsNm1 (DYNAMICS)  max=  3.24509459520460E-07
DEBUG_STATS_RL:               GsNm1 (DYNAMICS) mean=  2.03247782114541E-10
DEBUG_STATS_RL:               GsNm1 (DYNAMICS) S.D.=  1.91323042789651E-08
DEBUG_STATS_RL:    cg2d_b (SOLVE_FOR_PRESSURE)  min= -2.56801620382170E+04
DEBUG_STATS_RL:    cg2d_b (SOLVE_FOR_PRESSURE)  max=  1.73092616250715E+04
DEBUG_STATS_RL:    cg2d_b (SOLVE_FOR_PRESSURE) mean=  3.25284994042152E+00
DEBUG_STATS_RL:    cg2d_b (SOLVE_FOR_PRESSURE) S.D.=  3.74166180053945E+03
 cg2d: Sum(rhs),rhsMax =   2.93235985071618E-01  1.68674179939622E+00
(PID.TID 0000.0001)  cg2d: iter=     1 ; resid.=  1.89001213251756E-01
(PID.TID 0000.0001)  cg2d: iter=     2 ; resid.=  1.55484216730906E-01
(PID.TID 0000.0001)  cg2d: iter=     3 ; resid.=  1.44073583010618E-01
(PID.TID 0000.0001)  cg2d: iter=     4 ; resid.=  1.14236682237355E-01
(PID.TID 0000.0001)  cg2d: iter=     5 ; resid.=  8.95694702224247E-02
(PID.TID 0000.0001)  cg2d: iter=     6 ; resid.=  7.32712986656249E-02
(PID.TID 0000.0001)  cg2d: iter=     7 ; resid.=  6.05739077447701E-02
(PID.TID 0000.0001)  cg2d: iter=     8 ; resid.=  5.10815590780662E-02
(PID.TID 0000.0001)  cg2d: iter=     9 ; resid.=  4.24115040329045E-02
(PID.TID 0000.0001)  cg2d: iter=    10 ; resid.=  3.46349466411824E-02
(PID.TID 0000.0001)  cg2d: iter=    11 ; resid.=  3.05941493823584E-02
(PID.TID 0000.0001)  cg2d: iter=    12 ; resid.=  2.78236717288547E-02
(PID.TID 0000.0001)  cg2d: iter=    13 ; resid.=  2.13754655791279E-02
(PID.TID 0000.0001)  cg2d: iter=    14 ; resid.=  1.66961509346632E-02
(PID.TID 0000.0001)  cg2d: iter=    15 ; resid.=  1.32660792347100E-02
(PID.TID 0000.0001)  cg2d: iter=    16 ; resid.=  1.15356888182373E-02
(PID.TID 0000.0001)  cg2d: iter=    17 ; resid.=  9.71925710010166E-03
(PID.TID 0000.0001)  cg2d: iter=    18 ; resid.=  7.70112657709758E-03
(PID.TID 0000.0001)  cg2d: iter=    19 ; resid.=  6.37336427262968E-03
(PID.TID 0000.0001)  cg2d: iter=    20 ; resid.=  5.35881243446376E-03
(PID.TID 0000.0001)  cg2d: iter=    21 ; resid.=  4.63354991831158E-03
(PID.TID 0000.0001)  cg2d: iter=    22 ; resid.=  3.97303762518425E-03
(PID.TID 0000.0001)  cg2d: iter=    23 ; resid.=  3.28259618602615E-03
(PID.TID 0000.0001)  cg2d: iter=    24 ; resid.=  2.67687049036813E-03
(PID.TID 0000.0001)  cg2d: iter=    25 ; resid.=  2.13354681658416E-03
(PID.TID 0000.0001)  cg2d: iter=    26 ; resid.=  1.73979415551797E-03
(PID.TID 0000.0001)  cg2d: iter=    27 ; resid.=  1.54592916183824E-03
(PID.TID 0000.0001)  cg2d: iter=    28 ; resid.=  1.34587106754142E-03
(PID.TID 0000.0001)  cg2d: iter=    29 ; resid.=  1.14654923540119E-03
(PID.TID 0000.0001)  cg2d: iter=    30 ; resid.=  9.96779006582123E-04
(PID.TID 0000.0001)  cg2d: iter=    31 ; resid.=  8.29124090938191E-04
(PID.TID 0000.0001)  cg2d: iter=    32 ; resid.=  6.26265291822816E-04
(PID.TID 0000.0001)  cg2d: iter=    33 ; resid.=  5.13934613282373E-04
(PID.TID 0000.0001)  cg2d: iter=    34 ; resid.=  4.44588999455529E-04
(PID.TID 0000.0001)  cg2d: iter=    35 ; resid.=  3.54605749676231E-04
(PID.TID 0000.0001)  cg2d: iter=    36 ; resid.=  2.88655997268256E-04
(PID.TID 0000.0001)  cg2d: iter=    37 ; resid.=  2.23915980265146E-04
(PID.TID 0000.0001)  cg2d: iter=    38 ; resid.=  1.75806297960026E-04
(PID.TID 0000.0001)  cg2d: iter=    39 ; resid.=  1.38631065156468E-04
(PID.TID 0000.0001)  cg2d: iter=    40 ; resid.=  1.14558016755856E-04
(PID.TID 0000.0001)  cg2d: iter=    41 ; resid.=  9.72435750868013E-05
(PID.TID 0000.0001)  cg2d: iter=    42 ; resid.=  8.60170627880898E-05
(PID.TID 0000.0001)  cg2d: iter=    43 ; resid.=  8.04744453572767E-05
(PID.TID 0000.0001)  cg2d: iter=    44 ; resid.=  6.85991096880542E-05
(PID.TID 0000.0001)  cg2d: iter=    45 ; resid.=  5.61963477756740E-05
(PID.TID 0000.0001)  cg2d: iter=    46 ; resid.=  4.40403424411309E-05
(PID.TID 0000.0001)  cg2d: iter=    47 ; resid.=  3.91856074555123E-05
(PID.TID 0000.0001)  cg2d: iter=    48 ; resid.=  3.25610862491008E-05
(PID.TID 0000.0001)  cg2d: iter=    49 ; resid.=  2.61646166653445E-05
(PID.TID 0000.0001)  cg2d: iter=    50 ; resid.=  2.01862032548094E-05
(PID.TID 0000.0001)  cg2d: iter=    51 ; resid.=  1.59981804033774E-05
(PID.TID 0000.0001)  cg2d: iter=    52 ; resid.=  1.36315806973049E-05
(PID.TID 0000.0001)  cg2d: iter=    53 ; resid.=  1.16906950407123E-05
(PID.TID 0000.0001)  cg2d: iter=    54 ; resid.=  1.04460365574944E-05
(PID.TID 0000.0001)  cg2d: iter=    55 ; resid.=  9.63915844761535E-06
(PID.TID 0000.0001)  cg2d: iter=    56 ; resid.=  8.69864272944953E-06
(PID.TID 0000.0001)  cg2d: iter=    57 ; resid.=  7.81182212929320E-06
(PID.TID 0000.0001)  cg2d: iter=    58 ; resid.=  6.92652356776178E-06
(PID.TID 0000.0001)  cg2d: iter=    59 ; resid.=  5.49899075917031E-06
(PID.TID 0000.0001)  cg2d: iter=    60 ; resid.=  4.30929596848283E-06
(PID.TID 0000.0001)  cg2d: iter=    61 ; resid.=  3.37224139760373E-06
(PID.TID 0000.0001)  cg2d: iter=    62 ; resid.=  2.77864030854965E-06
(PID.TID 0000.0001)  cg2d: iter=    63 ; resid.=  2.14700953330994E-06
(PID.TID 0000.0001)  cg2d: iter=    64 ; resid.=  1.67333427341890E-06
(PID.TID 0000.0001)  cg2d: iter=    65 ; resid.=  1.29067405389490E-06
(PID.TID 0000.0001)  cg2d: iter=    66 ; resid.=  1.01103101303561E-06
(PID.TID 0000.0001)  cg2d: iter=    67 ; resid.=  8.39361316574561E-07
(PID.TID 0000.0001)  cg2d: iter=    68 ; resid.=  7.22060002659950E-07
(PID.TID 0000.0001)  cg2d: iter=    69 ; resid.=  5.43227045817968E-07
(PID.TID 0000.0001)  cg2d: iter=    70 ; resid.=  4.24719046714624E-07
(PID.TID 0000.0001)  cg2d: iter=    71 ; resid.=  3.64788152120356E-07
(PID.TID 0000.0001)  cg2d: iter=    72 ; resid.=  2.99619895318603E-07
(PID.TID 0000.0001)  cg2d: iter=    73 ; resid.=  2.56675121008402E-07
(PID.TID 0000.0001)  cg2d: iter=    74 ; resid.=  2.22837655621681E-07
(PID.TID 0000.0001)  cg2d: iter=    75 ; resid.=  1.82034558040419E-07
(PID.TID 0000.0001)  cg2d: iter=    76 ; resid.=  1.48299227232859E-07
(PID.TID 0000.0001)  cg2d: iter=    77 ; resid.=  1.29859159300747E-07
(PID.TID 0000.0001)  cg2d: iter=    78 ; resid.=  1.12740222062935E-07
(PID.TID 0000.0001)  cg2d: iter=    79 ; resid.=  1.04386858945173E-07
(PID.TID 0000.0001)  cg2d: iter=    80 ; resid.=  8.83795824110030E-08
(PID.TID 0000.0001)  cg2d: iter=    81 ; resid.=  7.53990398229105E-08
(PID.TID 0000.0001)  cg2d: iter=    82 ; resid.=  6.03157666586047E-08
(PID.TID 0000.0001)  cg2d: iter=    83 ; resid.=  4.50812655038499E-08
(PID.TID 0000.0001)  cg2d: iter=    84 ; resid.=  3.42114959805412E-08
(PID.TID 0000.0001)  cg2d: iter=    85 ; resid.=  2.47867491291400E-08
(PID.TID 0000.0001)  cg2d: iter=    86 ; resid.=  1.78378751183039E-08
(PID.TID 0000.0001)  cg2d: iter=    87 ; resid.=  1.17567687300496E-08
(PID.TID 0000.0001)  cg2d: iter=    88 ; resid.=  9.06071960092929E-09
(PID.TID 0000.0001)  cg2d: iter=    89 ; resid.=  8.19132885364058E-09
(PID.TID 0000.0001)  cg2d: iter=    90 ; resid.=  6.54500691776594E-09
(PID.TID 0000.0001)  cg2d: iter=    91 ; resid.=  5.22519813215772E-09
(PID.TID 0000.0001)  cg2d: iter=    92 ; resid.=  4.12251137522527E-09
(PID.TID 0000.0001)  cg2d: iter=    93 ; resid.=  3.15525639467797E-09
(PID.TID 0000.0001)  cg2d: iter=    94 ; resid.=  2.42581876571830E-09
(PID.TID 0000.0001)  cg2d: iter=    95 ; resid.=  2.19153960789501E-09
(PID.TID 0000.0001)  cg2d: iter=    96 ; resid.=  1.69326762526396E-09
(PID.TID 0000.0001)  cg2d: iter=    97 ; resid.=  1.28797522504616E-09
(PID.TID 0000.0001)  cg2d: iter=    98 ; resid.=  9.90787138239235E-10
(PID.TID 0000.0001)  cg2d: iter=    99 ; resid.=  8.50967252965243E-10
(PID.TID 0000.0001)  cg2d: iter=   100 ; resid.=  7.95803489613527E-10
(PID.TID 0000.0001)  cg2d: iter=   101 ; resid.=  6.37486560351743E-10
(PID.TID 0000.0001)  cg2d: iter=   102 ; resid.=  4.73279000612653E-10
(PID.TID 0000.0001)  cg2d: iter=   103 ; resid.=  3.46613996820022E-10
(PID.TID 0000.0001)  cg2d: iter=   104 ; resid.=  2.82819882156267E-10
(PID.TID 0000.0001)  cg2d: iter=   105 ; resid.=  2.24537151468347E-10
(PID.TID 0000.0001)  cg2d: iter=   106 ; resid.=  1.94948061170612E-10
(PID.TID 0000.0001)  cg2d: iter=   107 ; resid.=  1.62626448821143E-10
(PID.TID 0000.0001)  cg2d: iter=   108 ; resid.=  1.39423925203156E-10
(PID.TID 0000.0001)  cg2d: iter=   109 ; resid.=  1.17542774220780E-10
(PID.TID 0000.0001)  cg2d: iter=   110 ; resid.=  8.84212249209195E-11
(PID.TID 0000.0001)  cg2d: iter=   111 ; resid.=  7.05423394133971E-11
(PID.TID 0000.0001)  cg2d: iter=   112 ; resid.=  5.39802145409631E-11
(PID.TID 0000.0001)  cg2d: iter=   113 ; resid.=  3.97333579285322E-11
(PID.TID 0000.0001)  cg2d: iter=   114 ; resid.=  3.07316349564696E-11
(PID.TID 0000.0001)  cg2d: iter=   115 ; resid.=  2.11138070148784E-11
(PID.TID 0000.0001)  cg2d: iter=   116 ; resid.=  1.40863726195362E-11
(PID.TID 0000.0001)  cg2d: iter=   117 ; resid.=  1.09318013087492E-11
(PID.TID 0000.0001)  cg2d: iter=   118 ; resid.=  7.45026963046219E-12
(PID.TID 0000.0001)  cg2d: iter=   119 ; resid.=  5.97949766606214E-12
(PID.TID 0000.0001)  cg2d: iter=   120 ; resid.=  4.42961779138990E-12
(PID.TID 0000.0001)  cg2d: iter=   121 ; resid.=  3.18167686869034E-12
(PID.TID 0000.0001)  cg2d: iter=   122 ; resid.=  2.59906059498375E-12
(PID.TID 0000.0001)  cg2d: iter=   123 ; resid.=  2.21878350439064E-12
(PID.TID 0000.0001)  cg2d: iter=   124 ; resid.=  1.79016106956079E-12
(PID.TID 0000.0001)  cg2d: iter=   125 ; resid.=  1.44297081833265E-12
(PID.TID 0000.0001)  cg2d: iter=   126 ; resid.=  1.14377796835198E-12
(PID.TID 0000.0001)  cg2d: iter=   127 ; resid.=  7.84659990176001E-13
(PID.TID 0000.0001)  cg2d: iter=   128 ; resid.=  5.27046853828037E-13
(PID.TID 0000.0001)  cg2d: iter=   129 ; resid.=  3.94217345215262E-13
(PID.TID 0000.0001)  cg2d: iter=   130 ; resid.=  2.91467412542764E-13
(PID.TID 0000.0001)  cg2d: iter=   131 ; resid.=  2.07203837521746E-13
(PID.TID 0000.0001)  cg2d: iter=   132 ; resid.=  1.48127703732935E-13
(PID.TID 0000.0001)  cg2d: iter=   133 ; resid.=  1.07801948477894E-13
(PID.TID 0000.0001)  cg2d: iter=   134 ; resid.=  8.33026416029260E-14
DEBUG_STATS_RL:    cg2d_x (SOLVE_FOR_PRESSURE)  min= -1.80666818645718E+01
DEBUG_STATS_RL:    cg2d_x (SOLVE_FOR_PRESSURE)  max=  1.11887666636091E+01
DEBUG_STATS_RL:    cg2d_x (SOLVE_FOR_PRESSURE) mean= -1.87563419504596E+00
DEBUG_STATS_RL:    cg2d_x (SOLVE_FOR_PRESSURE) S.D.=  7.90599999171137E+00
(PID.TID 0000.0001)      cg2d_init_res =   3.73494433201252E-01
(PID.TID 0000.0001)      cg2d_iters(min,last) =      -1     134
(PID.TID 0000.0001)      cg2d_last_res =   8.33026416029260E-14
(PID.TID 0000.0001) // =======================================================
(PID.TID 0000.0001) // Begin MONITOR dynamic field statistics
(PID.TID 0000.0001) // =======================================================
(PID.TID 0000.0001) %MON time_tsnumber                =                    45
(PID.TID 0000.0001) %MON time_secondsf                =   3.8880000000000E+06
(PID.TID 0000.0001) %MON dynstat_eta_max              =   1.1405470605105E+00
(PID.TID 0000.0001) %MON dynstat_eta_min              =  -1.8416597211595E+00
(PID.TID 0000.0001) %MON dynstat_eta_mean             =  -3.3939455727524E-03
(PID.TID 0000.0001) %MON dynstat_eta_sd               =   7.2593398844888E-01
(PID.TID 0000.0001) %MON dynstat_eta_del2             =   2.2847769129446E-03
(PID.TID 0000.0001) %MON dynstat_uvel_max             =   1.6685156618716E-01
(PID.TID 0000.0001) %MON dynstat_uvel_min             =  -1.6098124012748E-01
(PID.TID 0000.0001) %MON dynstat_uvel_mean            =   2.6923720130243E-04
(PID.TID 0000.0001) %MON dynstat_uvel_sd              =   1.8386791646822E-02
(PID.TID 0000.0001) %MON dynstat_uvel_del2            =   1.0607488778698E-04
(PID.TID 0000.0001) %MON dynstat_vvel_max             =   1.2609332848263E-01
(PID.TID 0000.0001) %MON dynstat_vvel_min             =  -1.1687367009258E-01
(PID.TID 0000.0001) %MON dynstat_vvel_mean            =   1.7757760666942E-05
(PID.TID 0000.0001) %MON dynstat_vvel_sd              =   1.0551632046345E-02
(PID.TID 0000.0001) %MON dynstat_vvel_del2            =   8.8192977554886E-05
(PID.TID 0000.0001) %MON dynstat_wvel_max             =   1.0283629550217E-04
(PID.TID 0000.0001) %MON dynstat_wvel_min             =  -1.4942480235359E-04
(PID.TID 0000.0001) %MON dynstat_wvel_mean            =   2.8051856686244E-22
(PID.TID 0000.0001) %MON dynstat_wvel_sd              =   1.6762680737561E-05
(PID.TID 0000.0001) %MON dynstat_wvel_del2            =   1.6544849781277E-07
(PID.TID 0000.0001) %MON dynstat_theta_max            =   3.0323462820157E+01
(PID.TID 0000.0001) %MON dynstat_theta_min            =  -1.9939165415285E+00
(PID.TID 0000.0001) %MON dynstat_theta_mean           =   3.6421073501566E+00
(PID.TID 0000.0001) %MON dynstat_theta_sd             =   4.4201279448215E+00
(PID.TID 0000.0001) %MON dynstat_theta_del2           =   4.7512869710432E-03
(PID.TID 0000.0001) %MON dynstat_salt_max             =   3.7478879973668E+01
(PID.TID 0000.0001) %MON dynstat_salt_min             =   2.9849641867754E+01
(PID.TID 0000.0001) %MON dynstat_salt_mean            =   3.4738016824592E+01
(PID.TID 0000.0001) %MON dynstat_salt_sd              =   2.9640493707317E-01
(PID.TID 0000.0001) %MON dynstat_salt_del2            =   9.8639938696486E-04
(PID.TID 0000.0001) %MON dynstat_sst_max              =   3.0323462820157E+01
(PID.TID 0000.0001) %MON dynstat_sst_min              =  -1.9939165415285E+00
(PID.TID 0000.0001) %MON dynstat_sst_mean             =   1.8905313628222E+01
(PID.TID 0000.0001) %MON dynstat_sst_sd               =   9.0112912505942E+00
(PID.TID 0000.0001) %MON dynstat_sst_del2             =   2.7268977705243E-02
(PID.TID 0000.0001) %MON dynstat_sss_max              =   3.7448595040938E+01
(PID.TID 0000.0001) %MON dynstat_sss_min              =   2.9849641867754E+01
(PID.TID 0000.0001) %MON dynstat_sss_mean             =   3.4864484009892E+01
(PID.TID 0000.0001) %MON dynstat_sss_sd               =   9.7733401400762E-01
(PID.TID 0000.0001) %MON dynstat_sss_del2             =   7.8869965583993E-03
(PID.TID 0000.0001) %MON forcing_qnet_max             =   3.5980644938151E+02
(PID.TID 0000.0001) %MON forcing_qnet_min             =  -1.7307348836263E+02
(PID.TID 0000.0001) %MON forcing_qnet_mean            =  -1.4050160146347E+01
(PID.TID 0000.0001) %MON forcing_qnet_sd              =   8.0515925311569E+01
(PID.TID 0000.0001) %MON forcing_qnet_del2            =   9.4993377104494E-01
(PID.TID 0000.0001) %MON forcing_qsw_max              =   0.0000000000000E+00
(PID.TID 0000.0001) %MON forcing_qsw_min              =   0.0000000000000E+00
(PID.TID 0000.0001) %MON forcing_qsw_mean             =   0.0000000000000E+00
(PID.TID 0000.0001) %MON forcing_qsw_sd               =   0.0000000000000E+00
(PID.TID 0000.0001) %MON forcing_qsw_del2             =   0.0000000000000E+00
(PID.TID 0000.0001) %MON forcing_empmr_max            =   7.3065636740921E-05
(PID.TID 0000.0001) %MON forcing_empmr_min            =  -7.8465639793042E-05
(PID.TID 0000.0001) %MON forcing_empmr_mean           =   9.4272658264943E-07
(PID.TID 0000.0001) %MON forcing_empmr_sd             =   2.7982248259518E-05
(PID.TID 0000.0001) %MON forcing_empmr_del2           =   3.5557407608614E-07
(PID.TID 0000.0001) %MON forcing_fu_max               =   3.0324836671352E-01
(PID.TID 0000.0001) %MON forcing_fu_min               =  -2.1682592133681E-01
(PID.TID 0000.0001) %MON forcing_fu_mean              =   1.7576441401167E-02
(PID.TID 0000.0001) %MON forcing_fu_sd                =   9.2702887616547E-02
(PID.TID 0000.0001) %MON forcing_fu_del2              =   7.3829863471251E-04
(PID.TID 0000.0001) %MON forcing_fv_max               =   1.9947300006946E-01
(PID.TID 0000.0001) %MON forcing_fv_min               =  -1.9650735656420E-01
(PID.TID 0000.0001) %MON forcing_fv_mean              =  -7.1514640342452E-03
(PID.TID 0000.0001) %MON forcing_fv_sd                =   4.4931010890769E-02
(PID.TID 0000.0001) %MON forcing_fv_del2              =   5.3367284187280E-04
(PID.TID 0000.0001) %MON trAdv_CFL_u_max              =   4.7914094940873E-02
(PID.TID 0000.0001) %MON trAdv_CFL_v_max              =   2.8702359365889E-02
(PID.TID 0000.0001) %MON trAdv_CFL_w_max              =   4.2846636616255E-02
(PID.TID 0000.0001) %MON advcfl_uvel_max              =   4.6318490311462E-02
(PID.TID 0000.0001) %MON advcfl_vvel_max              =   2.4497911430318E-02
(PID.TID 0000.0001) %MON advcfl_wvel_max              =   4.0480297788504E-02
(PID.TID 0000.0001) %MON advcfl_W_hf_max              =   4.7708922393594E-02
(PID.TID 0000.0001) %MON pe_b_mean                    =   6.7434936725947E-04
(PID.TID 0000.0001) %MON ke_max                       =   1.5583015779201E-02
(PID.TID 0000.0001) %MON ke_mean                      =   2.0360928966890E-04
(PID.TID 0000.0001) %MON ke_vol                       =   1.3226782436723E+18
(PID.TID 0000.0001) %MON vort_r_min                   =  -5.0675832261113E-07
(PID.TID 0000.0001) %MON vort_r_max                   =   4.6827692802612E-07
(PID.TID 0000.0001) %MON vort_a_mean                  =  -2.5274806357393E-05
(PID.TID 0000.0001) %MON vort_a_sd                    =   7.3604342105085E-05
(PID.TID 0000.0001) %MON vort_p_mean                  =  -3.1845654489024E-05
(PID.TID 0000.0001) %MON vort_p_sd                    =   1.3162361555813E-04
(PID.TID 0000.0001) %MON surfExpan_theta_mean         =   1.5042960818807E-07
(PID.TID 0000.0001) %MON surfExpan_salt_mean          =   1.2440099778179E-07
(PID.TID 0000.0001) // =======================================================
(PID.TID 0000.0001) // End MONITOR dynamic field statistics
(PID.TID 0000.0001) // =======================================================
 EXTERNAL_FIELDS_LOAD,        45 : iP,iLd,i0,i1=    1    2    2    3 ; Wght=  1.0000000000  0.0000000000
 EXTERNAL_FIELDS_LOAD, it=        45 : Reading new data, i0,i1=    2    3 (prev=    1    2 )
(PID.TID 0000.0001)  MDS_READ_FIELD: opening global file: trenberth_taux.bin
(PID.TID 0000.0001)  MDS_READ_FIELD: opening global file: trenberth_taux.bin
(PID.TID 0000.0001)  MDS_READ_FIELD: opening global file: trenberth_tauy.bin
(PID.TID 0000.0001)  MDS_READ_FIELD: opening global file: trenberth_tauy.bin
(PID.TID 0000.0001)  MDS_READ_FIELD: opening global file: ncep_qnet.bin
(PID.TID 0000.0001)  MDS_READ_FIELD: opening global file: ncep_qnet.bin
(PID.TID 0000.0001)  MDS_READ_FIELD: opening global file: ncep_emp.bin
(PID.TID 0000.0001)  MDS_READ_FIELD: opening global file: ncep_emp.bin
(PID.TID 0000.0001)  MDS_READ_FIELD: opening global file: lev_sst.bin
(PID.TID 0000.0001)  MDS_READ_FIELD: opening global file: lev_sst.bin
(PID.TID 0000.0001)  MDS_READ_FIELD: opening global file: lev_sss.bin
(PID.TID 0000.0001)  MDS_READ_FIELD: opening global file: lev_sss.bin
 EXTERNAL_FIELDS_LOAD: (fu0,1),fu,fv= -1.4435E-02 -2.7199E-02 -1.4435E-02 -1.7636E-02
 EXTERNAL_FIELDS_LOAD: SST,SSS,Q,E-P= -5.3186E-01  3.4421E+01  2.4048E+02  8.3772E-06
DEBUG_STATS_RL:          Uvel (THERMODYNAMICS)  min= -1.60981240127482E-01
DEBUG_STATS_RL:          Uvel (THERMODYNAMICS)  max=  1.66851566187162E-01
DEBUG_STATS_RL:          Uvel (THERMODYNAMICS) mean=  2.65510895065254E-03
DEBUG_STATS_RL:          Uvel (THERMODYNAMICS) S.D.=  2.63516535312147E-02
DEBUG_STATS_RL:          Vvel (THERMODYNAMICS)  min= -1.16873670092583E-01
DEBUG_STATS_RL:          Vvel (THERMODYNAMICS)  max=  1.26093328482631E-01
DEBUG_STATS_RL:          Vvel (THERMODYNAMICS) mean=  1.07150362744853E-03
DEBUG_STATS_RL:          Vvel (THERMODYNAMICS) S.D.=  1.57108378991786E-02
DEBUG_STATS_RL:          Wvel (THERMODYNAMICS)  min= -1.49424802353590E-04
DEBUG_STATS_RL:          Wvel (THERMODYNAMICS)  max=  1.02836295502168E-04
DEBUG_STATS_RL:          Wvel (THERMODYNAMICS) mean= -1.29965776691296E-07
DEBUG_STATS_RL:          Wvel (THERMODYNAMICS) S.D.=  1.45749155919358E-05
DEBUG_STATS_RL:         Theta (THERMODYNAMICS)  min= -1.99255924760839E+00
DEBUG_STATS_RL:         Theta (THERMODYNAMICS)  max=  3.03419597190552E+01
DEBUG_STATS_RL:         Theta (THERMODYNAMICS) mean=  3.23654189022929E+00
DEBUG_STATS_RL:         Theta (THERMODYNAMICS) S.D.=  5.86812455787168E+00
DEBUG_STATS_RL:          Salt (THERMODYNAMICS)  min=  2.00000000000000E-02
DEBUG_STATS_RL:          Salt (THERMODYNAMICS)  max=  3.74793454024805E+01
DEBUG_STATS_RL:          Salt (THERMODYNAMICS) mean=  1.88649198144770E+01
DEBUG_STATS_RL:          Salt (THERMODYNAMICS) S.D.=  1.73004376772604E+01
DEBUG_STATS_RL:         GtNm1 (THERMODYNAMICS)  min= -4.44107490593140E-06
DEBUG_STATS_RL:         GtNm1 (THERMODYNAMICS)  max=  2.67831933512820E-06
DEBUG_STATS_RL:         GtNm1 (THERMODYNAMICS) mean=  9.42081079701040E-09
DEBUG_STATS_RL:         GtNm1 (THERMODYNAMICS) S.D.=  2.05145633822508E-07
DEBUG_STATS_RL:         GsNm1 (THERMODYNAMICS)  min= -4.14940141659247E-07
DEBUG_STATS_RL:         GsNm1 (THERMODYNAMICS)  max=  2.96944130062502E-07
DEBUG_STATS_RL:         GsNm1 (THERMODYNAMICS) mean=  1.84762680176456E-10
DEBUG_STATS_RL:         GsNm1 (THERMODYNAMICS) S.D.=  1.92465073173197E-08
DEBUG_STATS_RL:                EtaN (DYNAMICS)  min= -1.84165972115954E+00
DEBUG_STATS_RL:                EtaN (DYNAMICS)  max=  1.14054706051051E+00
DEBUG_STATS_RL:                EtaN (DYNAMICS) mean= -1.91196146283993E-01
DEBUG_STATS_RL:                EtaN (DYNAMICS) S.D.=  8.05912333507790E-01
DEBUG_STATS_RL:                Uvel (DYNAMICS)  min= -1.60981240127482E-01
DEBUG_STATS_RL:                Uvel (DYNAMICS)  max=  1.66851566187162E-01
DEBUG_STATS_RL:                Uvel (DYNAMICS) mean=  2.65510895065254E-03
DEBUG_STATS_RL:                Uvel (DYNAMICS) S.D.=  2.63516535312147E-02
DEBUG_STATS_RL:                Vvel (DYNAMICS)  min= -1.16873670092583E-01
DEBUG_STATS_RL:                Vvel (DYNAMICS)  max=  1.26093328482631E-01
DEBUG_STATS_RL:                Vvel (DYNAMICS) mean=  1.07150362744853E-03
DEBUG_STATS_RL:                Vvel (DYNAMICS) S.D.=  1.57108378991786E-02
DEBUG_STATS_RL:                Wvel (DYNAMICS)  min= -1.49424802353590E-04
DEBUG_STATS_RL:                Wvel (DYNAMICS)  max=  1.02836295502168E-04
DEBUG_STATS_RL:                Wvel (DYNAMICS) mean= -1.29965776691296E-07
DEBUG_STATS_RL:                Wvel (DYNAMICS) S.D.=  1.45749155919358E-05
DEBUG_STATS_RL:               Theta (DYNAMICS)  min= -1.99255924760839E+00
DEBUG_STATS_RL:               Theta (DYNAMICS)  max=  3.03419597190552E+01
DEBUG_STATS_RL:               Theta (DYNAMICS) mean=  3.23654189022929E+00
DEBUG_STATS_RL:               Theta (DYNAMICS) S.D.=  5.86812455787168E+00
DEBUG_STATS_RL:                Salt (DYNAMICS)  min=  2.00000000000000E-02
DEBUG_STATS_RL:                Salt (DYNAMICS)  max=  3.74793454024805E+01
DEBUG_STATS_RL:                Salt (DYNAMICS) mean=  1.88649198144770E+01
DEBUG_STATS_RL:                Salt (DYNAMICS) S.D.=  1.73004376772604E+01
DEBUG_STATS_RL:                  Gu (DYNAMICS)  min= -1.59735055590915E-01
DEBUG_STATS_RL:                  Gu (DYNAMICS)  max=  1.75591973194603E-01
DEBUG_STATS_RL:                  Gu (DYNAMICS) mean=  2.51444607586999E-03
DEBUG_STATS_RL:                  Gu (DYNAMICS) S.D.=  2.64984487726353E-02
DEBUG_STATS_RL:                  Gv (DYNAMICS)  min= -1.15869701895869E-01
DEBUG_STATS_RL:                  Gv (DYNAMICS)  max=  1.24054170481922E-01
DEBUG_STATS_RL:                  Gv (DYNAMICS) mean=  3.30800489576164E-03
DEBUG_STATS_RL:                  Gv (DYNAMICS) S.D.=  1.65051635215159E-02
DEBUG_STATS_RL:               GuNm1 (DYNAMICS)  min= -9.44751895879589E-06
DEBUG_STATS_RL:               GuNm1 (DYNAMICS)  max=  8.69414736100324E-06
DEBUG_STATS_RL:               GuNm1 (DYNAMICS) mean= -7.79336780550059E-09
DEBUG_STATS_RL:               GuNm1 (DYNAMICS) S.D.=  1.17816021882679E-06
DEBUG_STATS_RL:               GvNm1 (DYNAMICS)  min= -9.70349169543531E-06
DEBUG_STATS_RL:               GvNm1 (DYNAMICS)  max=  1.64154355694292E-05
DEBUG_STATS_RL:               GvNm1 (DYNAMICS) mean=  7.43189075558049E-07
DEBUG_STATS_RL:               GvNm1 (DYNAMICS) S.D.=  2.59584056299780E-06
DEBUG_STATS_RL:               GtNm1 (DYNAMICS)  min= -4.44107490593140E-06
DEBUG_STATS_RL:               GtNm1 (DYNAMICS)  max=  2.67831933512820E-06
DEBUG_STATS_RL:               GtNm1 (DYNAMICS) mean=  9.42081079701040E-09
DEBUG_STATS_RL:               GtNm1 (DYNAMICS) S.D.=  2.05145633822508E-07
DEBUG_STATS_RL:               GsNm1 (DYNAMICS)  min= -4.14940141659247E-07
DEBUG_STATS_RL:               GsNm1 (DYNAMICS)  max=  2.96944130062502E-07
DEBUG_STATS_RL:               GsNm1 (DYNAMICS) mean=  1.84762680176456E-10
DEBUG_STATS_RL:               GsNm1 (DYNAMICS) S.D.=  1.92465073173197E-08
DEBUG_STATS_RL:    cg2d_b (SOLVE_FOR_PRESSURE)  min= -2.55641766928242E+04
DEBUG_STATS_RL:    cg2d_b (SOLVE_FOR_PRESSURE)  max=  1.81504036448787E+04
DEBUG_STATS_RL:    cg2d_b (SOLVE_FOR_PRESSURE) mean=  3.32833005556885E+00
DEBUG_STATS_RL:    cg2d_b (SOLVE_FOR_PRESSURE) S.D.=  3.74456500185600E+03
 cg2d: Sum(rhs),rhsMax =   3.01401612546520E-01  1.67912357136867E+00
(PID.TID 0000.0001)  cg2d: iter=     1 ; resid.=  1.91253213754558E-01
(PID.TID 0000.0001)  cg2d: iter=     2 ; resid.=  1.64021903719280E-01
(PID.TID 0000.0001)  cg2d: iter=     3 ; resid.=  1.53219009773322E-01
(PID.TID 0000.0001)  cg2d: iter=     4 ; resid.=  1.22915732533684E-01
(PID.TID 0000.0001)  cg2d: iter=     5 ; resid.=  1.02019410593285E-01
(PID.TID 0000.0001)  cg2d: iter=     6 ; resid.=  8.86071091015359E-02
(PID.TID 0000.0001)  cg2d: iter=     7 ; resid.=  7.57402873183178E-02
(PID.TID 0000.0001)  cg2d: iter=     8 ; resid.=  6.38563398851236E-02
(PID.TID 0000.0001)  cg2d: iter=     9 ; resid.=  5.26921039351098E-02
(PID.TID 0000.0001)  cg2d: iter=    10 ; resid.=  4.39594513823772E-02
(PID.TID 0000.0001)  cg2d: iter=    11 ; resid.=  3.87170254241747E-02
(PID.TID 0000.0001)  cg2d: iter=    12 ; resid.=  3.41748412425306E-02
(PID.TID 0000.0001)  cg2d: iter=    13 ; resid.=  2.57805369960421E-02
(PID.TID 0000.0001)  cg2d: iter=    14 ; resid.=  2.00303740143175E-02
(PID.TID 0000.0001)  cg2d: iter=    15 ; resid.=  1.58420992520035E-02
(PID.TID 0000.0001)  cg2d: iter=    16 ; resid.=  1.38913786996466E-02
(PID.TID 0000.0001)  cg2d: iter=    17 ; resid.=  1.18263698546241E-02
(PID.TID 0000.0001)  cg2d: iter=    18 ; resid.=  9.57062011858929E-03
(PID.TID 0000.0001)  cg2d: iter=    19 ; resid.=  8.03591323798091E-03
(PID.TID 0000.0001)  cg2d: iter=    20 ; resid.=  6.82595967993214E-03
(PID.TID 0000.0001)  cg2d: iter=    21 ; resid.=  5.98634725176392E-03
(PID.TID 0000.0001)  cg2d: iter=    22 ; resid.=  5.20104670510511E-03
(PID.TID 0000.0001)  cg2d: iter=    23 ; resid.=  4.32201238568848E-03
(PID.TID 0000.0001)  cg2d: iter=    24 ; resid.=  3.48960403515823E-03
(PID.TID 0000.0001)  cg2d: iter=    25 ; resid.=  2.75627538712059E-03
(PID.TID 0000.0001)  cg2d: iter=    26 ; resid.=  2.23529283553842E-03
(PID.TID 0000.0001)  cg2d: iter=    27 ; resid.=  1.97648322748396E-03
(PID.TID 0000.0001)  cg2d: iter=    28 ; resid.=  1.64794147878196E-03
(PID.TID 0000.0001)  cg2d: iter=    29 ; resid.=  1.34069822544727E-03
(PID.TID 0000.0001)  cg2d: iter=    30 ; resid.=  1.13689700386049E-03
(PID.TID 0000.0001)  cg2d: iter=    31 ; resid.=  9.36993952187899E-04
(PID.TID 0000.0001)  cg2d: iter=    32 ; resid.=  6.95419678480688E-04
(PID.TID 0000.0001)  cg2d: iter=    33 ; resid.=  5.56082447785116E-04
(PID.TID 0000.0001)  cg2d: iter=    34 ; resid.=  4.74273425148996E-04
(PID.TID 0000.0001)  cg2d: iter=    35 ; resid.=  3.84586418822221E-04
(PID.TID 0000.0001)  cg2d: iter=    36 ; resid.=  3.23618663267230E-04
(PID.TID 0000.0001)  cg2d: iter=    37 ; resid.=  2.58371284718092E-04
(PID.TID 0000.0001)  cg2d: iter=    38 ; resid.=  2.07196848030802E-04
(PID.TID 0000.0001)  cg2d: iter=    39 ; resid.=  1.68292366933664E-04
(PID.TID 0000.0001)  cg2d: iter=    40 ; resid.=  1.44029933109628E-04
(PID.TID 0000.0001)  cg2d: iter=    41 ; resid.=  1.25120109659301E-04
(PID.TID 0000.0001)  cg2d: iter=    42 ; resid.=  1.11362667379515E-04
(PID.TID 0000.0001)  cg2d: iter=    43 ; resid.=  1.02689579723823E-04
(PID.TID 0000.0001)  cg2d: iter=    44 ; resid.=  8.64444461620989E-05
(PID.TID 0000.0001)  cg2d: iter=    45 ; resid.=  7.11903471872337E-05
(PID.TID 0000.0001)  cg2d: iter=    46 ; resid.=  5.54110326059457E-05
(PID.TID 0000.0001)  cg2d: iter=    47 ; resid.=  4.83089208702749E-05
(PID.TID 0000.0001)  cg2d: iter=    48 ; resid.=  3.93763569170555E-05
(PID.TID 0000.0001)  cg2d: iter=    49 ; resid.=  3.20782903742629E-05
(PID.TID 0000.0001)  cg2d: iter=    50 ; resid.=  2.50942345570659E-05
(PID.TID 0000.0001)  cg2d: iter=    51 ; resid.=  2.04258579065357E-05
(PID.TID 0000.0001)  cg2d: iter=    52 ; resid.=  1.79581704537205E-05
(PID.TID 0000.0001)  cg2d: iter=    53 ; resid.=  1.56046059837299E-05
(PID.TID 0000.0001)  cg2d: iter=    54 ; resid.=  1.40133161364371E-05
(PID.TID 0000.0001)  cg2d: iter=    55 ; resid.=  1.29742540371000E-05
(PID.TID 0000.0001)  cg2d: iter=    56 ; resid.=  1.15648452345178E-05
(PID.TID 0000.0001)  cg2d: iter=    57 ; resid.=  1.00050938426801E-05
(PID.TID 0000.0001)  cg2d: iter=    58 ; resid.=  8.41047720993905E-06
(PID.TID 0000.0001)  cg2d: iter=    59 ; resid.=  6.33898193587026E-06
(PID.TID 0000.0001)  cg2d: iter=    60 ; resid.=  4.83854448480229E-06
(PID.TID 0000.0001)  cg2d: iter=    61 ; resid.=  3.78665876200005E-06
(PID.TID 0000.0001)  cg2d: iter=    62 ; resid.=  3.08582600589947E-06
(PID.TID 0000.0001)  cg2d: iter=    63 ; resid.=  2.35509996803563E-06
(PID.TID 0000.0001)  cg2d: iter=    64 ; resid.=  1.82037320127719E-06
(PID.TID 0000.0001)  cg2d: iter=    65 ; resid.=  1.39781637564864E-06
(PID.TID 0000.0001)  cg2d: iter=    66 ; resid.=  1.10670419182603E-06
(PID.TID 0000.0001)  cg2d: iter=    67 ; resid.=  9.55440783020176E-07
(PID.TID 0000.0001)  cg2d: iter=    68 ; resid.=  8.74445589136528E-07
(PID.TID 0000.0001)  cg2d: iter=    69 ; resid.=  7.04592580842986E-07
(PID.TID 0000.0001)  cg2d: iter=    70 ; resid.=  6.03052143501655E-07
(PID.TID 0000.0001)  cg2d: iter=    71 ; resid.=  5.42202797154270E-07
(PID.TID 0000.0001)  cg2d: iter=    72 ; resid.=  4.63115783832878E-07
(PID.TID 0000.0001)  cg2d: iter=    73 ; resid.=  4.08156141842363E-07
(PID.TID 0000.0001)  cg2d: iter=    74 ; resid.=  3.52821995370072E-07
(PID.TID 0000.0001)  cg2d: iter=    75 ; resid.=  2.75002791810606E-07
(PID.TID 0000.0001)  cg2d: iter=    76 ; resid.=  2.15422809148859E-07
(PID.TID 0000.0001)  cg2d: iter=    77 ; resid.=  1.79573335613770E-07
(PID.TID 0000.0001)  cg2d: iter=    78 ; resid.=  1.44170781700795E-07
(PID.TID 0000.0001)  cg2d: iter=    79 ; resid.=  1.23094866276160E-07
(PID.TID 0000.0001)  cg2d: iter=    80 ; resid.=  9.55370492627815E-08
(PID.TID 0000.0001)  cg2d: iter=    81 ; resid.=  7.76951750711245E-08
(PID.TID 0000.0001)  cg2d: iter=    82 ; resid.=  6.18793733489136E-08
(PID.TID 0000.0001)  cg2d: iter=    83 ; resid.=  4.56674789803791E-08
(PID.TID 0000.0001)  cg2d: iter=    84 ; resid.=  3.38873788547661E-08
(PID.TID 0000.0001)  cg2d: iter=    85 ; resid.=  2.46904478851836E-08
(PID.TID 0000.0001)  cg2d: iter=    86 ; resid.=  1.80824760577005E-08
(PID.TID 0000.0001)  cg2d: iter=    87 ; resid.=  1.22319582720574E-08
(PID.TID 0000.0001)  cg2d: iter=    88 ; resid.=  9.55679218420788E-09
(PID.TID 0000.0001)  cg2d: iter=    89 ; resid.=  8.71788718788462E-09
(PID.TID 0000.0001)  cg2d: iter=    90 ; resid.=  6.90836635561113E-09
(PID.TID 0000.0001)  cg2d: iter=    91 ; resid.=  5.71691285420041E-09
(PID.TID 0000.0001)  cg2d: iter=    92 ; resid.=  4.74431495755285E-09
(PID.TID 0000.0001)  cg2d: iter=    93 ; resid.=  3.79574254288606E-09
(PID.TID 0000.0001)  cg2d: iter=    94 ; resid.=  3.07872216767433E-09
(PID.TID 0000.0001)  cg2d: iter=    95 ; resid.=  2.91625446774758E-09
(PID.TID 0000.0001)  cg2d: iter=    96 ; resid.=  2.28715549237525E-09
(PID.TID 0000.0001)  cg2d: iter=    97 ; resid.=  1.80849958126040E-09
(PID.TID 0000.0001)  cg2d: iter=    98 ; resid.=  1.46677290056423E-09
(PID.TID 0000.0001)  cg2d: iter=    99 ; resid.=  1.26544249010574E-09
(PID.TID 0000.0001)  cg2d: iter=   100 ; resid.=  1.10540127860650E-09
(PID.TID 0000.0001)  cg2d: iter=   101 ; resid.=  8.06788605564959E-10
(PID.TID 0000.0001)  cg2d: iter=   102 ; resid.=  5.77588257976932E-10
(PID.TID 0000.0001)  cg2d: iter=   103 ; resid.=  3.98756229921939E-10
(PID.TID 0000.0001)  cg2d: iter=   104 ; resid.=  2.97827751595717E-10
(PID.TID 0000.0001)  cg2d: iter=   105 ; resid.=  2.14246327142037E-10
(PID.TID 0000.0001)  cg2d: iter=   106 ; resid.=  1.71082346392697E-10
(PID.TID 0000.0001)  cg2d: iter=   107 ; resid.=  1.34336399085668E-10
(PID.TID 0000.0001)  cg2d: iter=   108 ; resid.=  1.07866339533508E-10
(PID.TID 0000.0001)  cg2d: iter=   109 ; resid.=  8.84878381935466E-11
(PID.TID 0000.0001)  cg2d: iter=   110 ; resid.=  6.72419889181863E-11
(PID.TID 0000.0001)  cg2d: iter=   111 ; resid.=  5.48610785145116E-11
(PID.TID 0000.0001)  cg2d: iter=   112 ; resid.=  4.36783223772657E-11
(PID.TID 0000.0001)  cg2d: iter=   113 ; resid.=  3.25610208225771E-11
(PID.TID 0000.0001)  cg2d: iter=   114 ; resid.=  2.59847777196002E-11
(PID.TID 0000.0001)  cg2d: iter=   115 ; resid.=  1.85712574060714E-11
(PID.TID 0000.0001)  cg2d: iter=   116 ; resid.=  1.27427279327286E-11
(PID.TID 0000.0001)  cg2d: iter=   117 ; resid.=  9.87265682944935E-12
(PID.TID 0000.0001)  cg2d: iter=   118 ; resid.=  6.62358778246278E-12
(PID.TID 0000.0001)  cg2d: iter=   119 ; resid.=  5.25268595743478E-12
(PID.TID 0000.0001)  cg2d: iter=   120 ; resid.=  3.95442586061405E-12
(PID.TID 0000.0001)  cg2d: iter=   121 ; resid.=  2.77665088208424E-12
(PID.TID 0000.0001)  cg2d: iter=   122 ; resid.=  2.24920636302727E-12
(PID.TID 0000.0001)  cg2d: iter=   123 ; resid.=  1.89014183130319E-12
(PID.TID 0000.0001)  cg2d: iter=   124 ; resid.=  1.54307155393255E-12
(PID.TID 0000.0001)  cg2d: iter=   125 ; resid.=  1.27984829819878E-12
(PID.TID 0000.0001)  cg2d: iter=   126 ; resid.=  1.03997939099865E-12
(PID.TID 0000.0001)  cg2d: iter=   127 ; resid.=  7.15106257959683E-13
(PID.TID 0000.0001)  cg2d: iter=   128 ; resid.=  4.93614628846485E-13
(PID.TID 0000.0001)  cg2d: iter=   129 ; resid.=  3.80040576874434E-13
(PID.TID 0000.0001)  cg2d: iter=   130 ; resid.=  2.71845353459169E-13
(PID.TID 0000.0001)  cg2d: iter=   131 ; resid.=  1.81966679893254E-13
(PID.TID 0000.0001)  cg2d: iter=   132 ; resid.=  1.28385002393411E-13
(PID.TID 0000.0001)  cg2d: iter=   133 ; resid.=  9.81609307015430E-14
DEBUG_STATS_RL:    cg2d_x (SOLVE_FOR_PRESSURE)  min= -1.81079665849544E+01
DEBUG_STATS_RL:    cg2d_x (SOLVE_FOR_PRESSURE)  max=  1.10401677409602E+01
DEBUG_STATS_RL:    cg2d_x (SOLVE_FOR_PRESSURE) mean= -1.87524335790709E+00
DEBUG_STATS_RL:    cg2d_x (SOLVE_FOR_PRESSURE) S.D.=  7.78487120804115E+00
(PID.TID 0000.0001)      cg2d_init_res =   3.73332048923069E-01
(PID.TID 0000.0001)      cg2d_iters(min,last) =      -1     133
(PID.TID 0000.0001)      cg2d_last_res =   9.81609307015430E-14
(PID.TID 0000.0001) // =======================================================
(PID.TID 0000.0001) // Begin MONITOR dynamic field statistics
(PID.TID 0000.0001) // =======================================================
(PID.TID 0000.0001) %MON time_tsnumber                =                    46
(PID.TID 0000.0001) %MON time_secondsf                =   3.9744000000000E+06
(PID.TID 0000.0001) %MON dynstat_eta_max              =   1.1253993619736E+00
(PID.TID 0000.0001) %MON dynstat_eta_min              =  -1.8458681534102E+00
(PID.TID 0000.0001) %MON dynstat_eta_mean             =  -3.4726997136841E-03
(PID.TID 0000.0001) %MON dynstat_eta_sd               =   7.1166178130440E-01
(PID.TID 0000.0001) %MON dynstat_eta_del2             =   2.2943517930501E-03
(PID.TID 0000.0001) %MON dynstat_uvel_max             =   1.7346500789993E-01
(PID.TID 0000.0001) %MON dynstat_uvel_min             =  -1.5959992817387E-01
(PID.TID 0000.0001) %MON dynstat_uvel_mean            =   1.7824541931871E-04
(PID.TID 0000.0001) %MON dynstat_uvel_sd              =   1.8263545965300E-02
(PID.TID 0000.0001) %MON dynstat_uvel_del2            =   1.0657938527478E-04
(PID.TID 0000.0001) %MON dynstat_vvel_max             =   1.2242653314568E-01
(PID.TID 0000.0001) %MON dynstat_vvel_min             =  -1.1669426632100E-01
(PID.TID 0000.0001) %MON dynstat_vvel_mean            =   2.5306340428379E-05
(PID.TID 0000.0001) %MON dynstat_vvel_sd              =   1.0488767976968E-02
(PID.TID 0000.0001) %MON dynstat_vvel_del2            =   8.7841777554592E-05
(PID.TID 0000.0001) %MON dynstat_wvel_max             =   1.0156760699497E-04
(PID.TID 0000.0001) %MON dynstat_wvel_min             =  -1.4000369402509E-04
(PID.TID 0000.0001) %MON dynstat_wvel_mean            =   1.6122363094653E-22
(PID.TID 0000.0001) %MON dynstat_wvel_sd              =   1.6629097736465E-05
(PID.TID 0000.0001) %MON dynstat_wvel_del2            =   1.6417363439983E-07
(PID.TID 0000.0001) %MON dynstat_theta_max            =   3.0341959719055E+01
(PID.TID 0000.0001) %MON dynstat_theta_min            =  -1.9925592476084E+00
(PID.TID 0000.0001) %MON dynstat_theta_mean           =   3.6421838915393E+00
(PID.TID 0000.0001) %MON dynstat_theta_sd             =   4.4203744355284E+00
(PID.TID 0000.0001) %MON dynstat_theta_del2           =   4.7558208652184E-03
(PID.TID 0000.0001) %MON dynstat_salt_max             =   3.7479345402481E+01
(PID.TID 0000.0001) %MON dynstat_salt_min             =   2.9852190241528E+01
(PID.TID 0000.0001) %MON dynstat_salt_mean            =   3.4738014436658E+01
(PID.TID 0000.0001) %MON dynstat_salt_sd              =   2.9640668519108E-01
(PID.TID 0000.0001) %MON dynstat_salt_del2            =   9.8650942322643E-04
(PID.TID 0000.0001) %MON dynstat_sst_max              =   3.0341959719055E+01
(PID.TID 0000.0001) %MON dynstat_sst_min              =  -1.9925592476084E+00
(PID.TID 0000.0001) %MON dynstat_sst_mean             =   1.8914654629168E+01
(PID.TID 0000.0001) %MON dynstat_sst_sd               =   9.0124948132097E+00
(PID.TID 0000.0001) %MON dynstat_sst_del2             =   2.7313056386254E-02
(PID.TID 0000.0001) %MON dynstat_sss_max              =   3.7449814074748E+01
(PID.TID 0000.0001) %MON dynstat_sss_min              =   2.9852190241528E+01
(PID.TID 0000.0001) %MON dynstat_sss_mean             =   3.4864425101556E+01
(PID.TID 0000.0001) %MON dynstat_sss_sd               =   9.7745300115389E-01
(PID.TID 0000.0001) %MON dynstat_sss_del2             =   7.8909063020641E-03
(PID.TID 0000.0001) %MON forcing_qnet_max             =   3.5845223999023E+02
(PID.TID 0000.0001) %MON forcing_qnet_min             =  -1.7283396911621E+02
(PID.TID 0000.0001) %MON forcing_qnet_mean            =  -1.3965250978943E+01
(PID.TID 0000.0001) %MON forcing_qnet_sd              =   7.9600844041117E+01
(PID.TID 0000.0001) %MON forcing_qnet_del2            =   9.4924046503394E-01
(PID.TID 0000.0001) %MON forcing_qsw_max              =   0.0000000000000E+00
(PID.TID 0000.0001) %MON forcing_qsw_min              =   0.0000000000000E+00
(PID.TID 0000.0001) %MON forcing_qsw_mean             =   0.0000000000000E+00
(PID.TID 0000.0001) %MON forcing_qsw_sd               =   0.0000000000000E+00
(PID.TID 0000.0001) %MON forcing_qsw_del2             =   0.0000000000000E+00
(PID.TID 0000.0001) %MON forcing_empmr_max            =   7.2751547008920E-05
(PID.TID 0000.0001) %MON forcing_empmr_min            =  -7.8545284054599E-05
(PID.TID 0000.0001) %MON forcing_empmr_mean           =   9.4340897990939E-07
(PID.TID 0000.0001) %MON forcing_empmr_sd             =   2.7981615340984E-05
(PID.TID 0000.0001) %MON forcing_empmr_del2           =   3.5607128030285E-07
(PID.TID 0000.0001) %MON forcing_fu_max               =   3.0463552474976E-01
(PID.TID 0000.0001) %MON forcing_fu_min               =  -2.1965765953064E-01
(PID.TID 0000.0001) %MON forcing_fu_mean              =   1.7630741616636E-02
(PID.TID 0000.0001) %MON forcing_fu_sd                =   9.3014374943535E-02
(PID.TID 0000.0001) %MON forcing_fu_del2              =   7.4725854650669E-04
(PID.TID 0000.0001) %MON forcing_fv_max               =   2.0158496499062E-01
(PID.TID 0000.0001) %MON forcing_fv_min               =  -1.9967925548553E-01
(PID.TID 0000.0001) %MON forcing_fv_mean              =  -7.2167249409603E-03
(PID.TID 0000.0001) %MON forcing_fv_sd                =   4.5051757763558E-02
(PID.TID 0000.0001) %MON forcing_fv_del2              =   5.4153881017288E-04
(PID.TID 0000.0001) %MON trAdv_CFL_u_max              =   4.6327897928119E-02
(PID.TID 0000.0001) %MON trAdv_CFL_v_max              =   2.9428333689224E-02
(PID.TID 0000.0001) %MON trAdv_CFL_w_max              =   4.7708922393594E-02
(PID.TID 0000.0001) %MON advcfl_uvel_max              =   4.6132980136536E-02
(PID.TID 0000.0001) %MON advcfl_vvel_max              =   2.3785511904675E-02
(PID.TID 0000.0001) %MON advcfl_wvel_max              =   4.3361585656023E-02
(PID.TID 0000.0001) %MON advcfl_W_hf_max              =   5.1104725951742E-02
(PID.TID 0000.0001) %MON pe_b_mean                    =   6.4809523432020E-04
(PID.TID 0000.0001) %MON ke_max                       =   1.5825135498000E-02
(PID.TID 0000.0001) %MON ke_mean                      =   2.0094498623260E-04
(PID.TID 0000.0001) %MON ke_vol                       =   1.3226782436723E+18
(PID.TID 0000.0001) %MON vort_r_min                   =  -5.1203907624271E-07
(PID.TID 0000.0001) %MON vort_r_max                   =   4.6382435255451E-07
(PID.TID 0000.0001) %MON vort_a_mean                  =  -2.5274806400634E-05
(PID.TID 0000.0001) %MON vort_a_sd                    =   7.3604320104797E-05
(PID.TID 0000.0001) %MON vort_p_mean                  =  -3.1845654543507E-05
(PID.TID 0000.0001) %MON vort_p_sd                    =   1.3162356859811E-04
(PID.TID 0000.0001) %MON surfExpan_theta_mean         =   6.5455589850698E-08
(PID.TID 0000.0001) %MON surfExpan_salt_mean          =   1.6375926157356E-07
(PID.TID 0000.0001) // =======================================================
(PID.TID 0000.0001) // End MONITOR dynamic field statistics
(PID.TID 0000.0001) // =======================================================
 EXTERNAL_FIELDS_LOAD,        46 : iP,iLd,i0,i1=    2    3    2    3 ; Wght=  0.9666666667  0.0333333333
 EXTERNAL_FIELDS_LOAD: (fu0,1),fu,fv= -1.4435E-02 -2.7199E-02 -1.4860E-02 -1.7067E-02
 EXTERNAL_FIELDS_LOAD: SST,SSS,Q,E-P= -5.2026E-01  3.4426E+01  2.3964E+02  8.4007E-06
DEBUG_STATS_RL:          Uvel (THERMODYNAMICS)  min= -1.59599928173869E-01
DEBUG_STATS_RL:          Uvel (THERMODYNAMICS)  max=  1.73465007899925E-01
DEBUG_STATS_RL:          Uvel (THERMODYNAMICS) mean=  2.71008928030584E-03
DEBUG_STATS_RL:          Uvel (THERMODYNAMICS) S.D.=  2.61125224238912E-02
DEBUG_STATS_RL:          Vvel (THERMODYNAMICS)  min= -1.16694266321003E-01
DEBUG_STATS_RL:          Vvel (THERMODYNAMICS)  max=  1.22426533145677E-01
DEBUG_STATS_RL:          Vvel (THERMODYNAMICS) mean=  1.22906292357341E-03
DEBUG_STATS_RL:          Vvel (THERMODYNAMICS) S.D.=  1.56807028782439E-02
DEBUG_STATS_RL:          Wvel (THERMODYNAMICS)  min= -1.40003694025092E-04
DEBUG_STATS_RL:          Wvel (THERMODYNAMICS)  max=  1.01567606994972E-04
DEBUG_STATS_RL:          Wvel (THERMODYNAMICS) mean= -8.94786481708447E-08
DEBUG_STATS_RL:          Wvel (THERMODYNAMICS) S.D.=  1.44869787995526E-05
DEBUG_STATS_RL:         Theta (THERMODYNAMICS)  min= -1.99029749409050E+00
DEBUG_STATS_RL:         Theta (THERMODYNAMICS)  max=  3.03585191254555E+01
DEBUG_STATS_RL:         Theta (THERMODYNAMICS) mean=  3.23690917057407E+00
DEBUG_STATS_RL:         Theta (THERMODYNAMICS) S.D.=  5.86893838938373E+00
DEBUG_STATS_RL:          Salt (THERMODYNAMICS)  min=  2.00000000000000E-02
DEBUG_STATS_RL:          Salt (THERMODYNAMICS)  max=  3.74798455130451E+01
DEBUG_STATS_RL:          Salt (THERMODYNAMICS) mean=  1.88649283777066E+01
DEBUG_STATS_RL:          Salt (THERMODYNAMICS) S.D.=  1.73004458142717E+01
DEBUG_STATS_RL:         GtNm1 (THERMODYNAMICS)  min= -4.67744088266557E-06
DEBUG_STATS_RL:         GtNm1 (THERMODYNAMICS)  max=  2.66499960032683E-06
DEBUG_STATS_RL:         GtNm1 (THERMODYNAMICS) mean=  8.51004424704384E-09
DEBUG_STATS_RL:         GtNm1 (THERMODYNAMICS) S.D.=  2.03370415178327E-07
DEBUG_STATS_RL:         GsNm1 (THERMODYNAMICS)  min= -4.34475313974035E-07
DEBUG_STATS_RL:         GsNm1 (THERMODYNAMICS)  max=  3.03162111087213E-07
DEBUG_STATS_RL:         GsNm1 (THERMODYNAMICS) mean=  1.49576752621487E-10
DEBUG_STATS_RL:         GsNm1 (THERMODYNAMICS) S.D.=  1.92369370469105E-08
DEBUG_STATS_RL:                EtaN (DYNAMICS)  min= -1.84586815341023E+00
DEBUG_STATS_RL:                EtaN (DYNAMICS)  max=  1.12539936197361E+00
DEBUG_STATS_RL:                EtaN (DYNAMICS) mean= -1.91156305597053E-01
DEBUG_STATS_RL:                EtaN (DYNAMICS) S.D.=  7.93564853011330E-01
DEBUG_STATS_RL:                Uvel (DYNAMICS)  min= -1.59599928173869E-01
DEBUG_STATS_RL:                Uvel (DYNAMICS)  max=  1.73465007899925E-01
DEBUG_STATS_RL:                Uvel (DYNAMICS) mean=  2.71008928030584E-03
DEBUG_STATS_RL:                Uvel (DYNAMICS) S.D.=  2.61125224238912E-02
DEBUG_STATS_RL:                Vvel (DYNAMICS)  min= -1.16694266321003E-01
DEBUG_STATS_RL:                Vvel (DYNAMICS)  max=  1.22426533145677E-01
DEBUG_STATS_RL:                Vvel (DYNAMICS) mean=  1.22906292357341E-03
DEBUG_STATS_RL:                Vvel (DYNAMICS) S.D.=  1.56807028782439E-02
DEBUG_STATS_RL:                Wvel (DYNAMICS)  min= -1.40003694025092E-04
DEBUG_STATS_RL:                Wvel (DYNAMICS)  max=  1.01567606994972E-04
DEBUG_STATS_RL:                Wvel (DYNAMICS) mean= -8.94786481708447E-08
DEBUG_STATS_RL:                Wvel (DYNAMICS) S.D.=  1.44869787995526E-05
DEBUG_STATS_RL:               Theta (DYNAMICS)  min= -1.99029749409050E+00
DEBUG_STATS_RL:               Theta (DYNAMICS)  max=  3.03585191254555E+01
DEBUG_STATS_RL:               Theta (DYNAMICS) mean=  3.23690917057407E+00
DEBUG_STATS_RL:               Theta (DYNAMICS) S.D.=  5.86893838938373E+00
DEBUG_STATS_RL:                Salt (DYNAMICS)  min=  2.00000000000000E-02
DEBUG_STATS_RL:                Salt (DYNAMICS)  max=  3.74798455130451E+01
DEBUG_STATS_RL:                Salt (DYNAMICS) mean=  1.88649283777066E+01
DEBUG_STATS_RL:                Salt (DYNAMICS) S.D.=  1.73004458142717E+01
DEBUG_STATS_RL:                  Gu (DYNAMICS)  min= -1.58102362461798E-01
DEBUG_STATS_RL:                  Gu (DYNAMICS)  max=  1.81521637631452E-01
DEBUG_STATS_RL:                  Gu (DYNAMICS) mean=  2.62892119289961E-03
DEBUG_STATS_RL:                  Gu (DYNAMICS) S.D.=  2.62026988707577E-02
DEBUG_STATS_RL:                  Gv (DYNAMICS)  min= -1.15642502084719E-01
DEBUG_STATS_RL:                  Gv (DYNAMICS)  max=  1.26962888884938E-01
DEBUG_STATS_RL:                  Gv (DYNAMICS) mean=  3.43748825728079E-03
DEBUG_STATS_RL:                  Gv (DYNAMICS) S.D.=  1.66249073661205E-02
DEBUG_STATS_RL:               GuNm1 (DYNAMICS)  min= -9.48370267708152E-06
DEBUG_STATS_RL:               GuNm1 (DYNAMICS)  max=  8.74601357088192E-06
DEBUG_STATS_RL:               GuNm1 (DYNAMICS) mean= -5.75930072377453E-09
DEBUG_STATS_RL:               GuNm1 (DYNAMICS) S.D.=  1.17968774477331E-06
DEBUG_STATS_RL:               GvNm1 (DYNAMICS)  min= -9.59524552733209E-06
DEBUG_STATS_RL:               GvNm1 (DYNAMICS)  max=  1.64465562950064E-05
DEBUG_STATS_RL:               GvNm1 (DYNAMICS) mean=  7.43177082329246E-07
DEBUG_STATS_RL:               GvNm1 (DYNAMICS) S.D.=  2.59724607840206E-06
DEBUG_STATS_RL:               GtNm1 (DYNAMICS)  min= -4.67744088266557E-06
DEBUG_STATS_RL:               GtNm1 (DYNAMICS)  max=  2.66499960032683E-06
DEBUG_STATS_RL:               GtNm1 (DYNAMICS) mean=  8.51004424704384E-09
DEBUG_STATS_RL:               GtNm1 (DYNAMICS) S.D.=  2.03370415178327E-07
DEBUG_STATS_RL:               GsNm1 (DYNAMICS)  min= -4.34475313974035E-07
DEBUG_STATS_RL:               GsNm1 (DYNAMICS)  max=  3.03162111087213E-07
DEBUG_STATS_RL:               GsNm1 (DYNAMICS) mean=  1.49576752621487E-10
DEBUG_STATS_RL:               GsNm1 (DYNAMICS) S.D.=  1.92369370469105E-08
DEBUG_STATS_RL:    cg2d_b (SOLVE_FOR_PRESSURE)  min= -2.52667118656375E+04
DEBUG_STATS_RL:    cg2d_b (SOLVE_FOR_PRESSURE)  max=  1.90234945222580E+04
DEBUG_STATS_RL:    cg2d_b (SOLVE_FOR_PRESSURE) mean=  3.40276287361559E+00
DEBUG_STATS_RL:    cg2d_b (SOLVE_FOR_PRESSURE) S.D.=  3.74970087426528E+03
 cg2d: Sum(rhs),rhsMax =   3.11769734594411E-01  1.65958528507907E+00
(PID.TID 0000.0001)  cg2d: iter=     1 ; resid.=  1.98292169831754E-01
(PID.TID 0000.0001)  cg2d: iter=     2 ; resid.=  1.79277225313422E-01
(PID.TID 0000.0001)  cg2d: iter=     3 ; resid.=  1.69068166816491E-01
(PID.TID 0000.0001)  cg2d: iter=     4 ; resid.=  1.38357847559611E-01
(PID.TID 0000.0001)  cg2d: iter=     5 ; resid.=  1.22645043327879E-01
(PID.TID 0000.0001)  cg2d: iter=     6 ; resid.=  1.10574580334359E-01
(PID.TID 0000.0001)  cg2d: iter=     7 ; resid.=  9.42805468855419E-02
(PID.TID 0000.0001)  cg2d: iter=     8 ; resid.=  7.67969499039580E-02
(PID.TID 0000.0001)  cg2d: iter=     9 ; resid.=  6.18680966869267E-02
(PID.TID 0000.0001)  cg2d: iter=    10 ; resid.=  5.18040448521079E-02
(PID.TID 0000.0001)  cg2d: iter=    11 ; resid.=  4.49326985870301E-02
(PID.TID 0000.0001)  cg2d: iter=    12 ; resid.=  3.85444082750022E-02
(PID.TID 0000.0001)  cg2d: iter=    13 ; resid.=  2.91580761371546E-02
(PID.TID 0000.0001)  cg2d: iter=    14 ; resid.=  2.28752278123735E-02
(PID.TID 0000.0001)  cg2d: iter=    15 ; resid.=  1.80951286810998E-02
(PID.TID 0000.0001)  cg2d: iter=    16 ; resid.=  1.60978921950517E-02
(PID.TID 0000.0001)  cg2d: iter=    17 ; resid.=  1.39828774457990E-02
(PID.TID 0000.0001)  cg2d: iter=    18 ; resid.=  1.15639495267103E-02
(PID.TID 0000.0001)  cg2d: iter=    19 ; resid.=  9.71250308466541E-03
(PID.TID 0000.0001)  cg2d: iter=    20 ; resid.=  8.19991072030612E-03
(PID.TID 0000.0001)  cg2d: iter=    21 ; resid.=  7.16565534147723E-03
(PID.TID 0000.0001)  cg2d: iter=    22 ; resid.=  6.20608095170510E-03
(PID.TID 0000.0001)  cg2d: iter=    23 ; resid.=  5.11757422310981E-03
(PID.TID 0000.0001)  cg2d: iter=    24 ; resid.=  4.09129786733167E-03
(PID.TID 0000.0001)  cg2d: iter=    25 ; resid.=  3.19729903288765E-03
(PID.TID 0000.0001)  cg2d: iter=    26 ; resid.=  2.55983346414182E-03
(PID.TID 0000.0001)  cg2d: iter=    27 ; resid.=  2.24357851575564E-03
(PID.TID 0000.0001)  cg2d: iter=    28 ; resid.=  1.82220720835466E-03
(PID.TID 0000.0001)  cg2d: iter=    29 ; resid.=  1.45051265695429E-03
(PID.TID 0000.0001)  cg2d: iter=    30 ; resid.=  1.23346915799359E-03
(PID.TID 0000.0001)  cg2d: iter=    31 ; resid.=  1.02121334492899E-03
(PID.TID 0000.0001)  cg2d: iter=    32 ; resid.=  7.56681990592804E-04
(PID.TID 0000.0001)  cg2d: iter=    33 ; resid.=  6.00567192754942E-04
(PID.TID 0000.0001)  cg2d: iter=    34 ; resid.=  5.13456965981327E-04
(PID.TID 0000.0001)  cg2d: iter=    35 ; resid.=  4.24811351801408E-04
(PID.TID 0000.0001)  cg2d: iter=    36 ; resid.=  3.67073972597850E-04
(PID.TID 0000.0001)  cg2d: iter=    37 ; resid.=  2.99650716626869E-04
(PID.TID 0000.0001)  cg2d: iter=    38 ; resid.=  2.45345576602205E-04
(PID.TID 0000.0001)  cg2d: iter=    39 ; resid.=  2.01946287573114E-04
(PID.TID 0000.0001)  cg2d: iter=    40 ; resid.=  1.72940721803150E-04
(PID.TID 0000.0001)  cg2d: iter=    41 ; resid.=  1.50141027175449E-04
(PID.TID 0000.0001)  cg2d: iter=    42 ; resid.=  1.32434680941560E-04
(PID.TID 0000.0001)  cg2d: iter=    43 ; resid.=  1.18914837750220E-04
(PID.TID 0000.0001)  cg2d: iter=    44 ; resid.=  9.90326814932191E-05
(PID.TID 0000.0001)  cg2d: iter=    45 ; resid.=  8.20867008667580E-05
(PID.TID 0000.0001)  cg2d: iter=    46 ; resid.=  6.40036016252993E-05
(PID.TID 0000.0001)  cg2d: iter=    47 ; resid.=  5.52707070365045E-05
(PID.TID 0000.0001)  cg2d: iter=    48 ; resid.=  4.45566792998672E-05
(PID.TID 0000.0001)  cg2d: iter=    49 ; resid.=  3.69771965482362E-05
(PID.TID 0000.0001)  cg2d: iter=    50 ; resid.=  2.95944934479667E-05
(PID.TID 0000.0001)  cg2d: iter=    51 ; resid.=  2.47599138100587E-05
(PID.TID 0000.0001)  cg2d: iter=    52 ; resid.=  2.21076208784123E-05
(PID.TID 0000.0001)  cg2d: iter=    53 ; resid.=  1.90104824508955E-05
(PID.TID 0000.0001)  cg2d: iter=    54 ; resid.=  1.69568885763696E-05
(PID.TID 0000.0001)  cg2d: iter=    55 ; resid.=  1.56594443214385E-05
(PID.TID 0000.0001)  cg2d: iter=    56 ; resid.=  1.37220458645566E-05
(PID.TID 0000.0001)  cg2d: iter=    57 ; resid.=  1.14248872379569E-05
(PID.TID 0000.0001)  cg2d: iter=    58 ; resid.=  9.27249662162141E-06
(PID.TID 0000.0001)  cg2d: iter=    59 ; resid.=  6.87364934686383E-06
(PID.TID 0000.0001)  cg2d: iter=    60 ; resid.=  5.24064175824430E-06
(PID.TID 0000.0001)  cg2d: iter=    61 ; resid.=  4.18916705113102E-06
(PID.TID 0000.0001)  cg2d: iter=    62 ; resid.=  3.45357146717089E-06
(PID.TID 0000.0001)  cg2d: iter=    63 ; resid.=  2.69652449729629E-06
(PID.TID 0000.0001)  cg2d: iter=    64 ; resid.=  2.13372784222838E-06
(PID.TID 0000.0001)  cg2d: iter=    65 ; resid.=  1.66746302523937E-06
(PID.TID 0000.0001)  cg2d: iter=    66 ; resid.=  1.35456120394735E-06
(PID.TID 0000.0001)  cg2d: iter=    67 ; resid.=  1.21526092042044E-06
(PID.TID 0000.0001)  cg2d: iter=    68 ; resid.=  1.13967432855174E-06
(PID.TID 0000.0001)  cg2d: iter=    69 ; resid.=  9.34693965831011E-07
(PID.TID 0000.0001)  cg2d: iter=    70 ; resid.=  8.14865373802187E-07
(PID.TID 0000.0001)  cg2d: iter=    71 ; resid.=  7.06501480655506E-07
(PID.TID 0000.0001)  cg2d: iter=    72 ; resid.=  5.86706458363988E-07
(PID.TID 0000.0001)  cg2d: iter=    73 ; resid.=  5.04639848838066E-07
(PID.TID 0000.0001)  cg2d: iter=    74 ; resid.=  4.21885146737176E-07
(PID.TID 0000.0001)  cg2d: iter=    75 ; resid.=  3.18141632294617E-07
(PID.TID 0000.0001)  cg2d: iter=    76 ; resid.=  2.51365833256498E-07
(PID.TID 0000.0001)  cg2d: iter=    77 ; resid.=  2.05498702696656E-07
(PID.TID 0000.0001)  cg2d: iter=    78 ; resid.=  1.61707968575584E-07
(PID.TID 0000.0001)  cg2d: iter=    79 ; resid.=  1.34216830475590E-07
(PID.TID 0000.0001)  cg2d: iter=    80 ; resid.=  1.01530826842325E-07
(PID.TID 0000.0001)  cg2d: iter=    81 ; resid.=  8.32944713019418E-08
(PID.TID 0000.0001)  cg2d: iter=    82 ; resid.=  6.70784761518285E-08
(PID.TID 0000.0001)  cg2d: iter=    83 ; resid.=  5.01286755526583E-08
(PID.TID 0000.0001)  cg2d: iter=    84 ; resid.=  3.72885445328936E-08
(PID.TID 0000.0001)  cg2d: iter=    85 ; resid.=  2.80018000544640E-08
(PID.TID 0000.0001)  cg2d: iter=    86 ; resid.=  2.12000738105880E-08
(PID.TID 0000.0001)  cg2d: iter=    87 ; resid.=  1.52302383801365E-08
(PID.TID 0000.0001)  cg2d: iter=    88 ; resid.=  1.25552332223240E-08
(PID.TID 0000.0001)  cg2d: iter=    89 ; resid.=  1.16555748973649E-08
(PID.TID 0000.0001)  cg2d: iter=    90 ; resid.=  8.98816269626805E-09
(PID.TID 0000.0001)  cg2d: iter=    91 ; resid.=  7.35058106400818E-09
(PID.TID 0000.0001)  cg2d: iter=    92 ; resid.=  5.93423327423710E-09
(PID.TID 0000.0001)  cg2d: iter=    93 ; resid.=  4.58590688487391E-09
(PID.TID 0000.0001)  cg2d: iter=    94 ; resid.=  3.56978176687209E-09
(PID.TID 0000.0001)  cg2d: iter=    95 ; resid.=  3.19967271034668E-09
(PID.TID 0000.0001)  cg2d: iter=    96 ; resid.=  2.40024585188383E-09
(PID.TID 0000.0001)  cg2d: iter=    97 ; resid.=  1.90952985595375E-09
(PID.TID 0000.0001)  cg2d: iter=    98 ; resid.=  1.59067365671968E-09
(PID.TID 0000.0001)  cg2d: iter=    99 ; resid.=  1.39210210080430E-09
(PID.TID 0000.0001)  cg2d: iter=   100 ; resid.=  1.23265042026555E-09
(PID.TID 0000.0001)  cg2d: iter=   101 ; resid.=  9.27041423612236E-10
(PID.TID 0000.0001)  cg2d: iter=   102 ; resid.=  7.29461396829610E-10
(PID.TID 0000.0001)  cg2d: iter=   103 ; resid.=  5.57237516194299E-10
(PID.TID 0000.0001)  cg2d: iter=   104 ; resid.=  4.51191270536694E-10
(PID.TID 0000.0001)  cg2d: iter=   105 ; resid.=  3.57404844843530E-10
(PID.TID 0000.0001)  cg2d: iter=   106 ; resid.=  3.12264493188904E-10
(PID.TID 0000.0001)  cg2d: iter=   107 ; resid.=  2.53856073288632E-10
(PID.TID 0000.0001)  cg2d: iter=   108 ; resid.=  1.97432029892354E-10
(PID.TID 0000.0001)  cg2d: iter=   109 ; resid.=  1.52509700953181E-10
(PID.TID 0000.0001)  cg2d: iter=   110 ; resid.=  1.11048693994108E-10
(PID.TID 0000.0001)  cg2d: iter=   111 ; resid.=  8.42776633631145E-11
(PID.TID 0000.0001)  cg2d: iter=   112 ; resid.=  6.11488170906231E-11
(PID.TID 0000.0001)  cg2d: iter=   113 ; resid.=  4.25532029238176E-11
(PID.TID 0000.0001)  cg2d: iter=   114 ; resid.=  3.30031747516577E-11
(PID.TID 0000.0001)  cg2d: iter=   115 ; resid.=  2.33560997604723E-11
(PID.TID 0000.0001)  cg2d: iter=   116 ; resid.=  1.63618988264372E-11
(PID.TID 0000.0001)  cg2d: iter=   117 ; resid.=  1.28467494053897E-11
(PID.TID 0000.0001)  cg2d: iter=   118 ; resid.=  9.02489903250009E-12
(PID.TID 0000.0001)  cg2d: iter=   119 ; resid.=  7.52595746378299E-12
(PID.TID 0000.0001)  cg2d: iter=   120 ; resid.=  5.94369964528992E-12
(PID.TID 0000.0001)  cg2d: iter=   121 ; resid.=  4.40141679416787E-12
(PID.TID 0000.0001)  cg2d: iter=   122 ; resid.=  3.79961678901778E-12
(PID.TID 0000.0001)  cg2d: iter=   123 ; resid.=  3.09694700211847E-12
(PID.TID 0000.0001)  cg2d: iter=   124 ; resid.=  2.35688953222075E-12
(PID.TID 0000.0001)  cg2d: iter=   125 ; resid.=  1.80739013170786E-12
(PID.TID 0000.0001)  cg2d: iter=   126 ; resid.=  1.32301740032417E-12
(PID.TID 0000.0001)  cg2d: iter=   127 ; resid.=  8.43084248677082E-13
(PID.TID 0000.0001)  cg2d: iter=   128 ; resid.=  5.76858784524164E-13
(PID.TID 0000.0001)  cg2d: iter=   129 ; resid.=  4.30242717206379E-13
(PID.TID 0000.0001)  cg2d: iter=   130 ; resid.=  2.91337383396222E-13
(PID.TID 0000.0001)  cg2d: iter=   131 ; resid.=  1.89662087420801E-13
(PID.TID 0000.0001)  cg2d: iter=   132 ; resid.=  1.36348776804485E-13
(PID.TID 0000.0001)  cg2d: iter=   133 ; resid.=  1.10886052684565E-13
(PID.TID 0000.0001)  cg2d: iter=   134 ; resid.=  9.32085027429705E-14
DEBUG_STATS_RL:    cg2d_x (SOLVE_FOR_PRESSURE)  min= -1.81343037563813E+01
DEBUG_STATS_RL:    cg2d_x (SOLVE_FOR_PRESSURE)  max=  1.07538073176375E+01
DEBUG_STATS_RL:    cg2d_x (SOLVE_FOR_PRESSURE) mean= -1.86851139229294E+00
DEBUG_STATS_RL:    cg2d_x (SOLVE_FOR_PRESSURE) S.D.=  7.61851307225816E+00
(PID.TID 0000.0001)      cg2d_init_res =   3.77021905909051E-01
(PID.TID 0000.0001)      cg2d_iters(min,last) =      -1     134
(PID.TID 0000.0001)      cg2d_last_res =   9.32085027429705E-14
(PID.TID 0000.0001) // =======================================================
(PID.TID 0000.0001) // Begin MONITOR dynamic field statistics
(PID.TID 0000.0001) // =======================================================
(PID.TID 0000.0001) %MON time_tsnumber                =                    47
(PID.TID 0000.0001) %MON time_secondsf                =   4.0608000000000E+06
(PID.TID 0000.0001) %MON dynstat_eta_max              =   1.0962086970068E+00
(PID.TID 0000.0001) %MON dynstat_eta_min              =  -1.8485528803651E+00
(PID.TID 0000.0001) %MON dynstat_eta_mean             =  -3.5503611299512E-03
(PID.TID 0000.0001) %MON dynstat_eta_sd               =   6.9270811715971E-01
(PID.TID 0000.0001) %MON dynstat_eta_del2             =   2.3038757993032E-03
(PID.TID 0000.0001) %MON dynstat_uvel_max             =   1.7814298717976E-01
(PID.TID 0000.0001) %MON dynstat_uvel_min             =  -1.5791878799909E-01
(PID.TID 0000.0001) %MON dynstat_uvel_mean            =   1.4055998418239E-04
(PID.TID 0000.0001) %MON dynstat_uvel_sd              =   1.8118110244007E-02
(PID.TID 0000.0001) %MON dynstat_uvel_del2            =   1.0688359480332E-04
(PID.TID 0000.0001) %MON dynstat_vvel_max             =   1.2590574169710E-01
(PID.TID 0000.0001) %MON dynstat_vvel_min             =  -1.1592007928109E-01
(PID.TID 0000.0001) %MON dynstat_vvel_mean            =   3.0638584882570E-05
(PID.TID 0000.0001) %MON dynstat_vvel_sd              =   1.0430262032388E-02
(PID.TID 0000.0001) %MON dynstat_vvel_del2            =   8.7471999587315E-05
(PID.TID 0000.0001) %MON dynstat_wvel_max             =   9.9151441523069E-05
(PID.TID 0000.0001) %MON dynstat_wvel_min             =  -1.4015639233119E-04
(PID.TID 0000.0001) %MON dynstat_wvel_mean            =   3.3774618945621E-23
(PID.TID 0000.0001) %MON dynstat_wvel_sd              =   1.6474131652096E-05
(PID.TID 0000.0001) %MON dynstat_wvel_del2            =   1.6289585647208E-07
(PID.TID 0000.0001) %MON dynstat_theta_max            =   3.0358519125456E+01
(PID.TID 0000.0001) %MON dynstat_theta_min            =  -1.9902974940905E+00
(PID.TID 0000.0001) %MON dynstat_theta_mean           =   3.6422606554234E+00
(PID.TID 0000.0001) %MON dynstat_theta_sd             =   4.4206235628009E+00
(PID.TID 0000.0001) %MON dynstat_theta_del2           =   4.7627912298310E-03
(PID.TID 0000.0001) %MON dynstat_salt_max             =   3.7479845513045E+01
(PID.TID 0000.0001) %MON dynstat_salt_min             =   2.9854655887998E+01
(PID.TID 0000.0001) %MON dynstat_salt_mean            =   3.4738011188091E+01
(PID.TID 0000.0001) %MON dynstat_salt_sd              =   2.9640719125651E-01
(PID.TID 0000.0001) %MON dynstat_salt_del2            =   9.8666299496969E-04
(PID.TID 0000.0001) %MON dynstat_sst_max              =   3.0358519125456E+01
(PID.TID 0000.0001) %MON dynstat_sst_min              =  -1.9902974940905E+00
(PID.TID 0000.0001) %MON dynstat_sst_mean             =   1.8923457645137E+01
(PID.TID 0000.0001) %MON dynstat_sst_sd               =   9.0143193194467E+00
(PID.TID 0000.0001) %MON dynstat_sst_del2             =   2.7354020705250E-02
(PID.TID 0000.0001) %MON dynstat_sss_max              =   3.7450990261188E+01
(PID.TID 0000.0001) %MON dynstat_sss_min              =   2.9854655887998E+01
(PID.TID 0000.0001) %MON dynstat_sss_mean             =   3.4864325962459E+01
(PID.TID 0000.0001) %MON dynstat_sss_sd               =   9.7757543093129E-01
(PID.TID 0000.0001) %MON dynstat_sss_del2             =   7.8947805250370E-03
(PID.TID 0000.0001) %MON forcing_qnet_max             =   3.5565408833822E+02
(PID.TID 0000.0001) %MON forcing_qnet_min             =  -1.7253468983968E+02
(PID.TID 0000.0001) %MON forcing_qnet_mean            =  -1.3741911479317E+01
(PID.TID 0000.0001) %MON forcing_qnet_sd              =   7.8173808417116E+01
(PID.TID 0000.0001) %MON forcing_qnet_del2            =   9.4361086901404E-01
(PID.TID 0000.0001) %MON forcing_qsw_max              =   0.0000000000000E+00
(PID.TID 0000.0001) %MON forcing_qsw_min              =   0.0000000000000E+00
(PID.TID 0000.0001) %MON forcing_qsw_mean             =   0.0000000000000E+00
(PID.TID 0000.0001) %MON forcing_qsw_sd               =   0.0000000000000E+00
(PID.TID 0000.0001) %MON forcing_qsw_del2             =   0.0000000000000E+00
(PID.TID 0000.0001) %MON forcing_empmr_max            =   7.1917854664131E-05
(PID.TID 0000.0001) %MON forcing_empmr_min            =  -7.7443707032406E-05
(PID.TID 0000.0001) %MON forcing_empmr_mean           =   9.3031904903503E-07
(PID.TID 0000.0001) %MON forcing_empmr_sd             =   2.7892298564578E-05
(PID.TID 0000.0001) %MON forcing_empmr_del2           =   3.5549806318694E-07
(PID.TID 0000.0001) %MON forcing_fu_max               =   3.0595987737179E-01
(PID.TID 0000.0001) %MON forcing_fu_min               =  -2.2111698041360E-01
(PID.TID 0000.0001) %MON forcing_fu_mean              =   1.7724941206094E-02
(PID.TID 0000.0001) %MON forcing_fu_sd                =   9.3018818826085E-02
(PID.TID 0000.0001) %MON forcing_fu_del2              =   7.3973840042027E-04
(PID.TID 0000.0001) %MON forcing_fv_max               =   1.9589827271799E-01
(PID.TID 0000.0001) %MON forcing_fv_min               =  -1.9819321930408E-01
(PID.TID 0000.0001) %MON forcing_fv_mean              =  -7.2271532909298E-03
(PID.TID 0000.0001) %MON forcing_fv_sd                =   4.4730626914368E-02
(PID.TID 0000.0001) %MON forcing_fv_del2              =   5.3371170048375E-04
(PID.TID 0000.0001) %MON trAdv_CFL_u_max              =   4.6142350074750E-02
(PID.TID 0000.0001) %MON trAdv_CFL_v_max              =   2.9990099839531E-02
(PID.TID 0000.0001) %MON trAdv_CFL_w_max              =   5.1104725951742E-02
(PID.TID 0000.0001) %MON advcfl_uvel_max              =   4.6572786558493E-02
(PID.TID 0000.0001) %MON advcfl_vvel_max              =   2.4461466326420E-02
(PID.TID 0000.0001) %MON advcfl_wvel_max              =   4.4963803514565E-02
(PID.TID 0000.0001) %MON advcfl_W_hf_max              =   5.2993054142166E-02
(PID.TID 0000.0001) %MON pe_b_mean                    =   6.1403504999239E-04
(PID.TID 0000.0001) %MON ke_max                       =   1.6434782483410E-02
(PID.TID 0000.0001) %MON ke_mean                      =   1.9798633628911E-04
(PID.TID 0000.0001) %MON ke_vol                       =   1.3226782436723E+18
(PID.TID 0000.0001) %MON vort_r_min                   =  -5.1558278627974E-07
(PID.TID 0000.0001) %MON vort_r_max                   =   4.5895221660332E-07
(PID.TID 0000.0001) %MON vort_a_mean                  =  -2.5274806472236E-05
(PID.TID 0000.0001) %MON vort_a_sd                    =   7.3604305163041E-05
(PID.TID 0000.0001) %MON vort_p_mean                  =  -3.1845654633724E-05
(PID.TID 0000.0001) %MON vort_p_sd                    =   1.3162355864095E-04
(PID.TID 0000.0001) %MON surfExpan_theta_mean         =  -1.6341516946972E-08
(PID.TID 0000.0001) %MON surfExpan_salt_mean          =   1.9874625992540E-07
(PID.TID 0000.0001) // =======================================================
(PID.TID 0000.0001) // End MONITOR dynamic field statistics
(PID.TID 0000.0001) // =======================================================
 EXTERNAL_FIELDS_LOAD,        47 : iP,iLd,i0,i1=    2    3    2    3 ; Wght=  0.9333333333  0.0666666667
 EXTERNAL_FIELDS_LOAD: (fu0,1),fu,fv= -1.4435E-02 -2.7199E-02 -1.5286E-02 -1.6498E-02
 EXTERNAL_FIELDS_LOAD: SST,SSS,Q,E-P= -5.0866E-01  3.4432E+01  2.3881E+02  8.4241E-06
DEBUG_STATS_RL:          Uvel (THERMODYNAMICS)  min= -1.57918787999092E-01
DEBUG_STATS_RL:          Uvel (THERMODYNAMICS)  max=  1.78142987179763E-01
DEBUG_STATS_RL:          Uvel (THERMODYNAMICS) mean=  2.81690449954445E-03
DEBUG_STATS_RL:          Uvel (THERMODYNAMICS) S.D.=  2.58368222955236E-02
DEBUG_STATS_RL:          Vvel (THERMODYNAMICS)  min= -1.15920079281094E-01
DEBUG_STATS_RL:          Vvel (THERMODYNAMICS)  max=  1.25905741697101E-01
DEBUG_STATS_RL:          Vvel (THERMODYNAMICS) mean=  1.36219452439148E-03
DEBUG_STATS_RL:          Vvel (THERMODYNAMICS) S.D.=  1.56501491788392E-02
DEBUG_STATS_RL:          Wvel (THERMODYNAMICS)  min= -1.40156392331193E-04
DEBUG_STATS_RL:          Wvel (THERMODYNAMICS)  max=  9.91514415230691E-05
DEBUG_STATS_RL:          Wvel (THERMODYNAMICS) mean= -5.31626042015755E-08
DEBUG_STATS_RL:          Wvel (THERMODYNAMICS) S.D.=  1.43809749040296E-05
DEBUG_STATS_RL:         Theta (THERMODYNAMICS)  min= -1.98837040536029E+00
DEBUG_STATS_RL:         Theta (THERMODYNAMICS)  max=  3.03730951351537E+01
DEBUG_STATS_RL:         Theta (THERMODYNAMICS) mean=  3.23723604144397E+00
DEBUG_STATS_RL:         Theta (THERMODYNAMICS) S.D.=  5.86973281674944E+00
DEBUG_STATS_RL:          Salt (THERMODYNAMICS)  min=  2.00000000000000E-02
DEBUG_STATS_RL:          Salt (THERMODYNAMICS)  max=  3.74803784226298E+01
DEBUG_STATS_RL:          Salt (THERMODYNAMICS) mean=  1.88649348921852E+01
DEBUG_STATS_RL:          Salt (THERMODYNAMICS) S.D.=  1.73004520352049E+01
DEBUG_STATS_RL:         GtNm1 (THERMODYNAMICS)  min= -4.86176044553570E-06
DEBUG_STATS_RL:         GtNm1 (THERMODYNAMICS)  max=  2.71507562174016E-06
DEBUG_STATS_RL:         GtNm1 (THERMODYNAMICS) mean=  7.59184941231090E-09
DEBUG_STATS_RL:         GtNm1 (THERMODYNAMICS) S.D.=  2.02114154981473E-07
DEBUG_STATS_RL:         GsNm1 (THERMODYNAMICS)  min= -4.54830471569796E-07
DEBUG_STATS_RL:         GsNm1 (THERMODYNAMICS)  max=  3.09431966842272E-07
DEBUG_STATS_RL:         GsNm1 (THERMODYNAMICS) mean=  1.04588861234722E-10
DEBUG_STATS_RL:         GsNm1 (THERMODYNAMICS) S.D.=  1.93184513235824E-08
DEBUG_STATS_RL:                EtaN (DYNAMICS)  min= -1.84855288036508E+00
DEBUG_STATS_RL:                EtaN (DYNAMICS)  max=  1.09620869700683E+00
DEBUG_STATS_RL:                EtaN (DYNAMICS) mean= -1.90470070570126E-01
DEBUG_STATS_RL:                EtaN (DYNAMICS) S.D.=  7.76606837131314E-01
DEBUG_STATS_RL:                Uvel (DYNAMICS)  min= -1.57918787999092E-01
DEBUG_STATS_RL:                Uvel (DYNAMICS)  max=  1.78142987179763E-01
DEBUG_STATS_RL:                Uvel (DYNAMICS) mean=  2.81690449954445E-03
DEBUG_STATS_RL:                Uvel (DYNAMICS) S.D.=  2.58368222955236E-02
DEBUG_STATS_RL:                Vvel (DYNAMICS)  min= -1.15920079281094E-01
DEBUG_STATS_RL:                Vvel (DYNAMICS)  max=  1.25905741697101E-01
DEBUG_STATS_RL:                Vvel (DYNAMICS) mean=  1.36219452439148E-03
DEBUG_STATS_RL:                Vvel (DYNAMICS) S.D.=  1.56501491788392E-02
DEBUG_STATS_RL:                Wvel (DYNAMICS)  min= -1.40156392331193E-04
DEBUG_STATS_RL:                Wvel (DYNAMICS)  max=  9.91514415230691E-05
DEBUG_STATS_RL:                Wvel (DYNAMICS) mean= -5.31626042015755E-08
DEBUG_STATS_RL:                Wvel (DYNAMICS) S.D.=  1.43809749040296E-05
DEBUG_STATS_RL:               Theta (DYNAMICS)  min= -1.98837040536029E+00
DEBUG_STATS_RL:               Theta (DYNAMICS)  max=  3.03730951351537E+01
DEBUG_STATS_RL:               Theta (DYNAMICS) mean=  3.23723604144397E+00
DEBUG_STATS_RL:               Theta (DYNAMICS) S.D.=  5.86973281674944E+00
DEBUG_STATS_RL:                Salt (DYNAMICS)  min=  2.00000000000000E-02
DEBUG_STATS_RL:                Salt (DYNAMICS)  max=  3.74803784226298E+01
DEBUG_STATS_RL:                Salt (DYNAMICS) mean=  1.88649348921852E+01
DEBUG_STATS_RL:                Salt (DYNAMICS) S.D.=  1.73004520352049E+01
DEBUG_STATS_RL:                  Gu (DYNAMICS)  min= -1.56163072196128E-01
DEBUG_STATS_RL:                  Gu (DYNAMICS)  max=  1.86021201016862E-01
DEBUG_STATS_RL:                  Gu (DYNAMICS) mean=  2.79352169321964E-03
DEBUG_STATS_RL:                  Gu (DYNAMICS) S.D.=  2.58830078299249E-02
DEBUG_STATS_RL:                  Gv (DYNAMICS)  min= -1.14833842743214E-01
DEBUG_STATS_RL:                  Gv (DYNAMICS)  max=  1.30256660142904E-01
DEBUG_STATS_RL:                  Gv (DYNAMICS) mean=  3.54566765989275E-03
DEBUG_STATS_RL:                  Gv (DYNAMICS) S.D.=  1.67303917814814E-02
DEBUG_STATS_RL:               GuNm1 (DYNAMICS)  min= -9.51529080683399E-06
DEBUG_STATS_RL:               GuNm1 (DYNAMICS)  max=  8.80107847178514E-06
DEBUG_STATS_RL:               GuNm1 (DYNAMICS) mean= -3.78521932256825E-09
DEBUG_STATS_RL:               GuNm1 (DYNAMICS) S.D.=  1.18161743428383E-06
DEBUG_STATS_RL:               GvNm1 (DYNAMICS)  min= -9.49967254511892E-06
DEBUG_STATS_RL:               GvNm1 (DYNAMICS)  max=  1.64669364912798E-05
DEBUG_STATS_RL:               GvNm1 (DYNAMICS) mean=  7.43272819300617E-07
DEBUG_STATS_RL:               GvNm1 (DYNAMICS) S.D.=  2.59970908054605E-06
DEBUG_STATS_RL:               GtNm1 (DYNAMICS)  min= -4.86176044553570E-06
DEBUG_STATS_RL:               GtNm1 (DYNAMICS)  max=  2.71507562174016E-06
DEBUG_STATS_RL:               GtNm1 (DYNAMICS) mean=  7.59184941231090E-09
DEBUG_STATS_RL:               GtNm1 (DYNAMICS) S.D.=  2.02114154981473E-07
DEBUG_STATS_RL:               GsNm1 (DYNAMICS)  min= -4.54830471569796E-07
DEBUG_STATS_RL:               GsNm1 (DYNAMICS)  max=  3.09431966842272E-07
DEBUG_STATS_RL:               GsNm1 (DYNAMICS) mean=  1.04588861234722E-10
DEBUG_STATS_RL:               GsNm1 (DYNAMICS) S.D.=  1.93184513235824E-08
DEBUG_STATS_RL:    cg2d_b (SOLVE_FOR_PRESSURE)  min= -2.47919354930320E+04
DEBUG_STATS_RL:    cg2d_b (SOLVE_FOR_PRESSURE)  max=  1.99035394350794E+04
DEBUG_STATS_RL:    cg2d_b (SOLVE_FOR_PRESSURE) mean=  3.47614839456251E+00
DEBUG_STATS_RL:    cg2d_b (SOLVE_FOR_PRESSURE) S.D.=  3.75701841640169E+03
 cg2d: Sum(rhs),rhsMax =   3.24592790896647E-01  1.62840070174787E+00
(PID.TID 0000.0001)  cg2d: iter=     1 ; resid.=  2.09203185202316E-01
(PID.TID 0000.0001)  cg2d: iter=     2 ; resid.=  1.99485369134903E-01
(PID.TID 0000.0001)  cg2d: iter=     3 ; resid.=  1.89185794935772E-01
(PID.TID 0000.0001)  cg2d: iter=     4 ; resid.=  1.57775891426138E-01
(PID.TID 0000.0001)  cg2d: iter=     5 ; resid.=  1.48257674620315E-01
(PID.TID 0000.0001)  cg2d: iter=     6 ; resid.=  1.34798094531370E-01
(PID.TID 0000.0001)  cg2d: iter=     7 ; resid.=  1.11734950675710E-01
(PID.TID 0000.0001)  cg2d: iter=     8 ; resid.=  8.68403819917044E-02
(PID.TID 0000.0001)  cg2d: iter=     9 ; resid.=  6.81846161297931E-02
(PID.TID 0000.0001)  cg2d: iter=    10 ; resid.=  5.70544810363347E-02
(PID.TID 0000.0001)  cg2d: iter=    11 ; resid.=  4.90764739442314E-02
(PID.TID 0000.0001)  cg2d: iter=    12 ; resid.=  4.16423025362920E-02
(PID.TID 0000.0001)  cg2d: iter=    13 ; resid.=  3.23521599026390E-02
(PID.TID 0000.0001)  cg2d: iter=    14 ; resid.=  2.58802294304328E-02
(PID.TID 0000.0001)  cg2d: iter=    15 ; resid.=  2.04724437721174E-02
(PID.TID 0000.0001)  cg2d: iter=    16 ; resid.=  1.84689945769738E-02
(PID.TID 0000.0001)  cg2d: iter=    17 ; resid.=  1.62490449341820E-02
(PID.TID 0000.0001)  cg2d: iter=    18 ; resid.=  1.35807653520809E-02
(PID.TID 0000.0001)  cg2d: iter=    19 ; resid.=  1.12503567926921E-02
(PID.TID 0000.0001)  cg2d: iter=    20 ; resid.=  9.34339546111119E-03
(PID.TID 0000.0001)  cg2d: iter=    21 ; resid.=  8.07826934789989E-03
(PID.TID 0000.0001)  cg2d: iter=    22 ; resid.=  6.95832163995657E-03
(PID.TID 0000.0001)  cg2d: iter=    23 ; resid.=  5.70346214229730E-03
(PID.TID 0000.0001)  cg2d: iter=    24 ; resid.=  4.59055748638078E-03
(PID.TID 0000.0001)  cg2d: iter=    25 ; resid.=  3.59602738463694E-03
(PID.TID 0000.0001)  cg2d: iter=    26 ; resid.=  2.85766033895135E-03
(PID.TID 0000.0001)  cg2d: iter=    27 ; resid.=  2.49541083418402E-03
(PID.TID 0000.0001)  cg2d: iter=    28 ; resid.=  1.99570654526461E-03
(PID.TID 0000.0001)  cg2d: iter=    29 ; resid.=  1.56953362714102E-03
(PID.TID 0000.0001)  cg2d: iter=    30 ; resid.=  1.34555726776248E-03
(PID.TID 0000.0001)  cg2d: iter=    31 ; resid.=  1.11529498403800E-03
(PID.TID 0000.0001)  cg2d: iter=    32 ; resid.=  8.26495183738804E-04
(PID.TID 0000.0001)  cg2d: iter=    33 ; resid.=  6.54953587929754E-04
(PID.TID 0000.0001)  cg2d: iter=    34 ; resid.=  5.62416240892815E-04
(PID.TID 0000.0001)  cg2d: iter=    35 ; resid.=  4.70043047657993E-04
(PID.TID 0000.0001)  cg2d: iter=    36 ; resid.=  4.11406861937246E-04
(PID.TID 0000.0001)  cg2d: iter=    37 ; resid.=  3.40760137219931E-04
(PID.TID 0000.0001)  cg2d: iter=    38 ; resid.=  2.84669361302261E-04
(PID.TID 0000.0001)  cg2d: iter=    39 ; resid.=  2.35031951139840E-04
(PID.TID 0000.0001)  cg2d: iter=    40 ; resid.=  1.98085242851954E-04
(PID.TID 0000.0001)  cg2d: iter=    41 ; resid.=  1.71474112696461E-04
(PID.TID 0000.0001)  cg2d: iter=    42 ; resid.=  1.50326892030201E-04
(PID.TID 0000.0001)  cg2d: iter=    43 ; resid.=  1.31552468515418E-04
(PID.TID 0000.0001)  cg2d: iter=    44 ; resid.=  1.09333842310448E-04
(PID.TID 0000.0001)  cg2d: iter=    45 ; resid.=  9.15449751568298E-05
(PID.TID 0000.0001)  cg2d: iter=    46 ; resid.=  7.17732449358582E-05
(PID.TID 0000.0001)  cg2d: iter=    47 ; resid.=  6.17097573363218E-05
(PID.TID 0000.0001)  cg2d: iter=    48 ; resid.=  4.92459728308571E-05
(PID.TID 0000.0001)  cg2d: iter=    49 ; resid.=  4.14993277461677E-05
(PID.TID 0000.0001)  cg2d: iter=    50 ; resid.=  3.39773846419091E-05
(PID.TID 0000.0001)  cg2d: iter=    51 ; resid.=  2.91143160739242E-05
(PID.TID 0000.0001)  cg2d: iter=    52 ; resid.=  2.63067558297576E-05
(PID.TID 0000.0001)  cg2d: iter=    53 ; resid.=  2.22150849181709E-05
(PID.TID 0000.0001)  cg2d: iter=    54 ; resid.=  1.95792718815015E-05
(PID.TID 0000.0001)  cg2d: iter=    55 ; resid.=  1.79767464584267E-05
(PID.TID 0000.0001)  cg2d: iter=    56 ; resid.=  1.55065671664222E-05
(PID.TID 0000.0001)  cg2d: iter=    57 ; resid.=  1.24721146905325E-05
(PID.TID 0000.0001)  cg2d: iter=    58 ; resid.=  9.91213722193526E-06
(PID.TID 0000.0001)  cg2d: iter=    59 ; resid.=  7.34487665437682E-06
(PID.TID 0000.0001)  cg2d: iter=    60 ; resid.=  5.60763976312244E-06
(PID.TID 0000.0001)  cg2d: iter=    61 ; resid.=  4.59952789316265E-06
(PID.TID 0000.0001)  cg2d: iter=    62 ; resid.=  3.87698614126790E-06
(PID.TID 0000.0001)  cg2d: iter=    63 ; resid.=  3.12958080131666E-06
(PID.TID 0000.0001)  cg2d: iter=    64 ; resid.=  2.53398526898911E-06
(PID.TID 0000.0001)  cg2d: iter=    65 ; resid.=  1.99692392810680E-06
(PID.TID 0000.0001)  cg2d: iter=    66 ; resid.=  1.64950431028127E-06
(PID.TID 0000.0001)  cg2d: iter=    67 ; resid.=  1.49207704678876E-06
(PID.TID 0000.0001)  cg2d: iter=    68 ; resid.=  1.37890472373074E-06
(PID.TID 0000.0001)  cg2d: iter=    69 ; resid.=  1.12263313728544E-06
(PID.TID 0000.0001)  cg2d: iter=    70 ; resid.=  9.72485516920786E-07
(PID.TID 0000.0001)  cg2d: iter=    71 ; resid.=  8.08727312326591E-07
(PID.TID 0000.0001)  cg2d: iter=    72 ; resid.=  6.58966258566584E-07
(PID.TID 0000.0001)  cg2d: iter=    73 ; resid.=  5.66666701290729E-07
(PID.TID 0000.0001)  cg2d: iter=    74 ; resid.=  4.76574542356874E-07
(PID.TID 0000.0001)  cg2d: iter=    75 ; resid.=  3.64248796483374E-07
(PID.TID 0000.0001)  cg2d: iter=    76 ; resid.=  2.97615027799433E-07
(PID.TID 0000.0001)  cg2d: iter=    77 ; resid.=  2.50857718575326E-07
(PID.TID 0000.0001)  cg2d: iter=    78 ; resid.=  1.94610628034467E-07
(PID.TID 0000.0001)  cg2d: iter=    79 ; resid.=  1.60364554431410E-07
(PID.TID 0000.0001)  cg2d: iter=    80 ; resid.=  1.22285385251962E-07
(PID.TID 0000.0001)  cg2d: iter=    81 ; resid.=  9.81208682190687E-08
(PID.TID 0000.0001)  cg2d: iter=    82 ; resid.=  7.86143366758967E-08
(PID.TID 0000.0001)  cg2d: iter=    83 ; resid.=  5.73865808920723E-08
(PID.TID 0000.0001)  cg2d: iter=    84 ; resid.=  4.18905169553265E-08
(PID.TID 0000.0001)  cg2d: iter=    85 ; resid.=  3.16885787390299E-08
(PID.TID 0000.0001)  cg2d: iter=    86 ; resid.=  2.40350660414030E-08
(PID.TID 0000.0001)  cg2d: iter=    87 ; resid.=  1.78716612902797E-08
(PID.TID 0000.0001)  cg2d: iter=    88 ; resid.=  1.49624369427544E-08
(PID.TID 0000.0001)  cg2d: iter=    89 ; resid.=  1.37380820410281E-08
(PID.TID 0000.0001)  cg2d: iter=    90 ; resid.=  1.03271857592257E-08
(PID.TID 0000.0001)  cg2d: iter=    91 ; resid.=  8.30686542707470E-09
(PID.TID 0000.0001)  cg2d: iter=    92 ; resid.=  6.53452545853075E-09
(PID.TID 0000.0001)  cg2d: iter=    93 ; resid.=  4.97801884408940E-09
(PID.TID 0000.0001)  cg2d: iter=    94 ; resid.=  3.78396041700476E-09
(PID.TID 0000.0001)  cg2d: iter=    95 ; resid.=  3.24391181773910E-09
(PID.TID 0000.0001)  cg2d: iter=    96 ; resid.=  2.38061443734123E-09
(PID.TID 0000.0001)  cg2d: iter=    97 ; resid.=  1.90708670150675E-09
(PID.TID 0000.0001)  cg2d: iter=    98 ; resid.=  1.60942892037523E-09
(PID.TID 0000.0001)  cg2d: iter=    99 ; resid.=  1.40996465625595E-09
(PID.TID 0000.0001)  cg2d: iter=   100 ; resid.=  1.27247950669652E-09
(PID.TID 0000.0001)  cg2d: iter=   101 ; resid.=  9.78094981180463E-10
(PID.TID 0000.0001)  cg2d: iter=   102 ; resid.=  8.12365677464111E-10
(PID.TID 0000.0001)  cg2d: iter=   103 ; resid.=  6.46583506577177E-10
(PID.TID 0000.0001)  cg2d: iter=   104 ; resid.=  5.29477244750182E-10
(PID.TID 0000.0001)  cg2d: iter=   105 ; resid.=  4.21621273161627E-10
(PID.TID 0000.0001)  cg2d: iter=   106 ; resid.=  3.65121502816235E-10
(PID.TID 0000.0001)  cg2d: iter=   107 ; resid.=  2.86797671767303E-10
(PID.TID 0000.0001)  cg2d: iter=   108 ; resid.=  2.12469252456049E-10
(PID.TID 0000.0001)  cg2d: iter=   109 ; resid.=  1.60122181457611E-10
(PID.TID 0000.0001)  cg2d: iter=   110 ; resid.=  1.17630549292937E-10
(PID.TID 0000.0001)  cg2d: iter=   111 ; resid.=  8.81252163933853E-11
(PID.TID 0000.0001)  cg2d: iter=   112 ; resid.=  6.34013133582216E-11
(PID.TID 0000.0001)  cg2d: iter=   113 ; resid.=  4.40937275764542E-11
(PID.TID 0000.0001)  cg2d: iter=   114 ; resid.=  3.47328402017719E-11
(PID.TID 0000.0001)  cg2d: iter=   115 ; resid.=  2.50903720627949E-11
(PID.TID 0000.0001)  cg2d: iter=   116 ; resid.=  1.79159347338678E-11
(PID.TID 0000.0001)  cg2d: iter=   117 ; resid.=  1.42783689116680E-11
(PID.TID 0000.0001)  cg2d: iter=   118 ; resid.=  1.04930954435956E-11
(PID.TID 0000.0001)  cg2d: iter=   119 ; resid.=  8.77733242223963E-12
(PID.TID 0000.0001)  cg2d: iter=   120 ; resid.=  7.02144061666573E-12
(PID.TID 0000.0001)  cg2d: iter=   121 ; resid.=  5.33610158749487E-12
(PID.TID 0000.0001)  cg2d: iter=   122 ; resid.=  4.69843164343841E-12
(PID.TID 0000.0001)  cg2d: iter=   123 ; resid.=  3.69214850294410E-12
(PID.TID 0000.0001)  cg2d: iter=   124 ; resid.=  2.73269279459248E-12
(PID.TID 0000.0001)  cg2d: iter=   125 ; resid.=  2.04281013264590E-12
(PID.TID 0000.0001)  cg2d: iter=   126 ; resid.=  1.44048997380217E-12
(PID.TID 0000.0001)  cg2d: iter=   127 ; resid.=  9.00780938176509E-13
(PID.TID 0000.0001)  cg2d: iter=   128 ; resid.=  6.21278529600434E-13
(PID.TID 0000.0001)  cg2d: iter=   129 ; resid.=  4.44997108360515E-13
(PID.TID 0000.0001)  cg2d: iter=   130 ; resid.=  2.85184707320403E-13
(PID.TID 0000.0001)  cg2d: iter=   131 ; resid.=  1.75496337412179E-13
(PID.TID 0000.0001)  cg2d: iter=   132 ; resid.=  1.16205449845573E-13
(PID.TID 0000.0001)  cg2d: iter=   133 ; resid.=  8.79589425986258E-14
DEBUG_STATS_RL:    cg2d_x (SOLVE_FOR_PRESSURE)  min= -1.80598585431789E+01
DEBUG_STATS_RL:    cg2d_x (SOLVE_FOR_PRESSURE)  max=  1.03405594516168E+01
DEBUG_STATS_RL:    cg2d_x (SOLVE_FOR_PRESSURE) mean= -1.85612840510305E+00
DEBUG_STATS_RL:    cg2d_x (SOLVE_FOR_PRESSURE) S.D.=  7.42005350624318E+00
(PID.TID 0000.0001)      cg2d_init_res =   3.84356684137570E-01
(PID.TID 0000.0001)      cg2d_iters(min,last) =      -1     133
(PID.TID 0000.0001)      cg2d_last_res =   8.79589425986258E-14
(PID.TID 0000.0001) // =======================================================
(PID.TID 0000.0001) // Begin MONITOR dynamic field statistics
(PID.TID 0000.0001) // =======================================================
(PID.TID 0000.0001) %MON time_tsnumber                =                    48
(PID.TID 0000.0001) %MON time_secondsf                =   4.1472000000000E+06
(PID.TID 0000.0001) %MON dynstat_eta_max              =   1.0540835322750E+00
(PID.TID 0000.0001) %MON dynstat_eta_min              =  -1.8409641736166E+00
(PID.TID 0000.0001) %MON dynstat_eta_mean             =  -3.6269298215543E-03
(PID.TID 0000.0001) %MON dynstat_eta_sd               =   6.7036945291192E-01
(PID.TID 0000.0001) %MON dynstat_eta_del2             =   2.3129806911770E-03
(PID.TID 0000.0001) %MON dynstat_uvel_max             =   1.8071042869437E-01
(PID.TID 0000.0001) %MON dynstat_uvel_min             =  -1.5595214057540E-01
(PID.TID 0000.0001) %MON dynstat_uvel_mean            =   1.5368234252209E-04
(PID.TID 0000.0001) %MON dynstat_uvel_sd              =   1.7956500728915E-02
(PID.TID 0000.0001) %MON dynstat_uvel_del2            =   1.0699263005636E-04
(PID.TID 0000.0001) %MON dynstat_vvel_max             =   1.2915597235404E-01
(PID.TID 0000.0001) %MON dynstat_vvel_min             =  -1.1458219916211E-01
(PID.TID 0000.0001) %MON dynstat_vvel_mean            =   3.5390120906939E-05
(PID.TID 0000.0001) %MON dynstat_vvel_sd              =   1.0377335797668E-02
(PID.TID 0000.0001) %MON dynstat_vvel_del2            =   8.7055255714710E-05
(PID.TID 0000.0001) %MON dynstat_wvel_max             =   9.7182520412913E-05
(PID.TID 0000.0001) %MON dynstat_wvel_min             =  -1.4121126971653E-04
(PID.TID 0000.0001) %MON dynstat_wvel_mean            =  -6.2686610239988E-23
(PID.TID 0000.0001) %MON dynstat_wvel_sd              =   1.6298722842080E-05
(PID.TID 0000.0001) %MON dynstat_wvel_del2            =   1.6152129736485E-07
(PID.TID 0000.0001) %MON dynstat_theta_max            =   3.0373095135154E+01
(PID.TID 0000.0001) %MON dynstat_theta_min            =  -1.9883704053603E+00
(PID.TID 0000.0001) %MON dynstat_theta_mean           =   3.6423379518542E+00
(PID.TID 0000.0001) %MON dynstat_theta_sd             =   4.4208763619722E+00
(PID.TID 0000.0001) %MON dynstat_theta_del2           =   4.7723945202492E-03
(PID.TID 0000.0001) %MON dynstat_salt_max             =   3.7480378422630E+01
(PID.TID 0000.0001) %MON dynstat_salt_min             =   2.9857049343399E+01
(PID.TID 0000.0001) %MON dynstat_salt_mean            =   3.4738007200088E+01
(PID.TID 0000.0001) %MON dynstat_salt_sd              =   2.9640656026934E-01
(PID.TID 0000.0001) %MON dynstat_salt_del2            =   9.8700854625399E-04
(PID.TID 0000.0001) %MON dynstat_sst_max              =   3.0373095135154E+01
(PID.TID 0000.0001) %MON dynstat_sst_min              =  -1.9883704053603E+00
(PID.TID 0000.0001) %MON dynstat_sst_mean             =   1.8931771742205E+01
(PID.TID 0000.0001) %MON dynstat_sst_sd               =   9.0166644458490E+00
(PID.TID 0000.0001) %MON dynstat_sst_del2             =   2.7397070843759E-02
(PID.TID 0000.0001) %MON dynstat_sss_max              =   3.7452122967550E+01
(PID.TID 0000.0001) %MON dynstat_sss_min              =   2.9857049343399E+01
(PID.TID 0000.0001) %MON dynstat_sss_mean             =   3.4864190630331E+01
(PID.TID 0000.0001) %MON dynstat_sss_sd               =   9.7771209144669E-01
(PID.TID 0000.0001) %MON dynstat_sss_del2             =   7.8994673778539E-03
(PID.TID 0000.0001) %MON forcing_qnet_max             =   3.5285593668620E+02
(PID.TID 0000.0001) %MON forcing_qnet_min             =  -1.7223541056315E+02
(PID.TID 0000.0001) %MON forcing_qnet_mean            =  -1.3518571979690E+01
(PID.TID 0000.0001) %MON forcing_qnet_sd              =   7.6758869987334E+01
(PID.TID 0000.0001) %MON forcing_qnet_del2            =   9.3812538915250E-01
(PID.TID 0000.0001) %MON forcing_qsw_max              =   0.0000000000000E+00
(PID.TID 0000.0001) %MON forcing_qsw_min              =   0.0000000000000E+00
(PID.TID 0000.0001) %MON forcing_qsw_mean             =   0.0000000000000E+00
(PID.TID 0000.0001) %MON forcing_qsw_sd               =   0.0000000000000E+00
(PID.TID 0000.0001) %MON forcing_qsw_del2             =   0.0000000000000E+00
(PID.TID 0000.0001) %MON forcing_empmr_max            =   7.1084162319342E-05
(PID.TID 0000.0001) %MON forcing_empmr_min            =  -7.6342130010213E-05
(PID.TID 0000.0001) %MON forcing_empmr_mean           =   9.1722911816067E-07
(PID.TID 0000.0001) %MON forcing_empmr_sd             =   2.7805085834175E-05
(PID.TID 0000.0001) %MON forcing_empmr_del2           =   3.5498793147611E-07
(PID.TID 0000.0001) %MON forcing_fu_max               =   3.0728422999382E-01
(PID.TID 0000.0001) %MON forcing_fu_min               =  -2.2650160988172E-01
(PID.TID 0000.0001) %MON forcing_fu_mean              =   1.7819140795553E-02
(PID.TID 0000.0001) %MON forcing_fu_sd                =   9.3044945573839E-02
(PID.TID 0000.0001) %MON forcing_fu_del2              =   7.3292093358534E-04
(PID.TID 0000.0001) %MON forcing_fv_max               =   1.9021158044537E-01
(PID.TID 0000.0001) %MON forcing_fv_min               =  -1.9670718312263E-01
(PID.TID 0000.0001) %MON forcing_fv_mean              =  -7.2375816408993E-03
(PID.TID 0000.0001) %MON forcing_fv_sd                =   4.4424183443592E-02
(PID.TID 0000.0001) %MON forcing_fv_del2              =   5.2624207752019E-04
(PID.TID 0000.0001) %MON trAdv_CFL_u_max              =   4.6582245824537E-02
(PID.TID 0000.0001) %MON trAdv_CFL_v_max              =   3.0379711255629E-02
(PID.TID 0000.0001) %MON trAdv_CFL_w_max              =   5.2993054142166E-02
(PID.TID 0000.0001) %MON advcfl_uvel_max              =   4.7244005266308E-02
(PID.TID 0000.0001) %MON advcfl_vvel_max              =   2.5092934015631E-02
(PID.TID 0000.0001) %MON advcfl_wvel_max              =   4.5288846579139E-02
(PID.TID 0000.0001) %MON advcfl_W_hf_max              =   5.3376140611128E-02
(PID.TID 0000.0001) %MON pe_b_mean                    =   5.7507216254479E-04
(PID.TID 0000.0001) %MON ke_max                       =   1.6783139781253E-02
(PID.TID 0000.0001) %MON ke_mean                      =   1.9484516652922E-04
(PID.TID 0000.0001) %MON ke_vol                       =   1.3226782436723E+18
(PID.TID 0000.0001) %MON vort_r_min                   =  -5.1734113742837E-07
(PID.TID 0000.0001) %MON vort_r_max                   =   4.5362556932091E-07
(PID.TID 0000.0001) %MON vort_a_mean                  =  -2.5274806569448E-05
(PID.TID 0000.0001) %MON vort_a_sd                    =   7.3604297248021E-05
(PID.TID 0000.0001) %MON vort_p_mean                  =  -3.1845654756209E-05
(PID.TID 0000.0001) %MON vort_p_sd                    =   1.3162357766960E-04
(PID.TID 0000.0001) %MON surfExpan_theta_mean         =  -9.2490030185988E-08
(PID.TID 0000.0001) %MON surfExpan_salt_mean          =   2.2835467565278E-07
(PID.TID 0000.0001) // =======================================================
(PID.TID 0000.0001) // End MONITOR dynamic field statistics
(PID.TID 0000.0001) // =======================================================
 EXTERNAL_FIELDS_LOAD,        48 : iP,iLd,i0,i1=    2    3    2    3 ; Wght=  0.9000000000  0.1000000000
 EXTERNAL_FIELDS_LOAD: (fu0,1),fu,fv= -1.4435E-02 -2.7199E-02 -1.5711E-02 -1.5930E-02
 EXTERNAL_FIELDS_LOAD: SST,SSS,Q,E-P= -4.9706E-01  3.4437E+01  2.3797E+02  8.4476E-06
DEBUG_STATS_RL:          Uvel (THERMODYNAMICS)  min= -1.55952140575403E-01
DEBUG_STATS_RL:          Uvel (THERMODYNAMICS)  max=  1.80710428694367E-01
DEBUG_STATS_RL:          Uvel (THERMODYNAMICS) mean=  2.97031394470346E-03
DEBUG_STATS_RL:          Uvel (THERMODYNAMICS) S.D.=  2.55363648988379E-02
DEBUG_STATS_RL:          Vvel (THERMODYNAMICS)  min= -1.14582199162111E-01
DEBUG_STATS_RL:          Vvel (THERMODYNAMICS)  max=  1.29155972354039E-01
DEBUG_STATS_RL:          Vvel (THERMODYNAMICS) mean=  1.46788739254558E-03
DEBUG_STATS_RL:          Vvel (THERMODYNAMICS) S.D.=  1.56198391501287E-02
DEBUG_STATS_RL:          Wvel (THERMODYNAMICS)  min= -1.41211269716533E-04
DEBUG_STATS_RL:          Wvel (THERMODYNAMICS)  max=  9.71825204129131E-05
DEBUG_STATS_RL:          Wvel (THERMODYNAMICS) mean= -2.24138441394219E-08
DEBUG_STATS_RL:          Wvel (THERMODYNAMICS) S.D.=  1.42540792468906E-05
DEBUG_STATS_RL:         Theta (THERMODYNAMICS)  min= -1.98644863038353E+00
DEBUG_STATS_RL:         Theta (THERMODYNAMICS)  max=  3.03856871650259E+01
DEBUG_STATS_RL:         Theta (THERMODYNAMICS) mean=  3.23751936078604E+00
DEBUG_STATS_RL:         Theta (THERMODYNAMICS) S.D.=  5.87050393030946E+00
DEBUG_STATS_RL:          Salt (THERMODYNAMICS)  min=  2.00000000000000E-02
DEBUG_STATS_RL:          Salt (THERMODYNAMICS)  max=  3.74809380413092E+01
DEBUG_STATS_RL:          Salt (THERMODYNAMICS) mean=  1.88649382824482E+01
DEBUG_STATS_RL:          Salt (THERMODYNAMICS) S.D.=  1.73004553508488E+01
DEBUG_STATS_RL:         GtNm1 (THERMODYNAMICS)  min= -4.98574053272499E-06
DEBUG_STATS_RL:         GtNm1 (THERMODYNAMICS)  max=  2.75813006477386E-06
DEBUG_STATS_RL:         GtNm1 (THERMODYNAMICS) mean=  6.69014514771192E-09
DEBUG_STATS_RL:         GtNm1 (THERMODYNAMICS) S.D.=  2.00374666960385E-07
DEBUG_STATS_RL:         GsNm1 (THERMODYNAMICS)  min= -4.67914775006621E-07
DEBUG_STATS_RL:         GsNm1 (THERMODYNAMICS)  max=  3.15074773648808E-07
DEBUG_STATS_RL:         GsNm1 (THERMODYNAMICS) mean=  4.65414692843401E-11
DEBUG_STATS_RL:         GsNm1 (THERMODYNAMICS) S.D.=  1.92963594391760E-08
DEBUG_STATS_RL:                EtaN (DYNAMICS)  min= -1.84096417361661E+00
DEBUG_STATS_RL:                EtaN (DYNAMICS)  max=  1.05408353227496E+00
DEBUG_STATS_RL:                EtaN (DYNAMICS) mean= -1.89207788491646E-01
DEBUG_STATS_RL:                EtaN (DYNAMICS) S.D.=  7.56376504204199E-01
DEBUG_STATS_RL:                Uvel (DYNAMICS)  min= -1.55952140575403E-01
DEBUG_STATS_RL:                Uvel (DYNAMICS)  max=  1.80710428694367E-01
DEBUG_STATS_RL:                Uvel (DYNAMICS) mean=  2.97031394470346E-03
DEBUG_STATS_RL:                Uvel (DYNAMICS) S.D.=  2.55363648988379E-02
DEBUG_STATS_RL:                Vvel (DYNAMICS)  min= -1.14582199162111E-01
DEBUG_STATS_RL:                Vvel (DYNAMICS)  max=  1.29155972354039E-01
DEBUG_STATS_RL:                Vvel (DYNAMICS) mean=  1.46788739254558E-03
DEBUG_STATS_RL:                Vvel (DYNAMICS) S.D.=  1.56198391501287E-02
DEBUG_STATS_RL:                Wvel (DYNAMICS)  min= -1.41211269716533E-04
DEBUG_STATS_RL:                Wvel (DYNAMICS)  max=  9.71825204129131E-05
DEBUG_STATS_RL:                Wvel (DYNAMICS) mean= -2.24138441394219E-08
DEBUG_STATS_RL:                Wvel (DYNAMICS) S.D.=  1.42540792468906E-05
DEBUG_STATS_RL:               Theta (DYNAMICS)  min= -1.98644863038353E+00
DEBUG_STATS_RL:               Theta (DYNAMICS)  max=  3.03856871650259E+01
DEBUG_STATS_RL:               Theta (DYNAMICS) mean=  3.23751936078604E+00
DEBUG_STATS_RL:               Theta (DYNAMICS) S.D.=  5.87050393030946E+00
DEBUG_STATS_RL:                Salt (DYNAMICS)  min=  2.00000000000000E-02
DEBUG_STATS_RL:                Salt (DYNAMICS)  max=  3.74809380413092E+01
DEBUG_STATS_RL:                Salt (DYNAMICS) mean=  1.88649382824482E+01
DEBUG_STATS_RL:                Salt (DYNAMICS) S.D.=  1.73004553508488E+01
DEBUG_STATS_RL:                  Gu (DYNAMICS)  min= -1.53947704398179E-01
DEBUG_STATS_RL:                  Gu (DYNAMICS)  max=  1.88426374311384E-01
DEBUG_STATS_RL:                  Gu (DYNAMICS) mean=  3.00021305870716E-03
DEBUG_STATS_RL:                  Gu (DYNAMICS) S.D.=  2.55526775500395E-02
DEBUG_STATS_RL:                  Gv (DYNAMICS)  min= -1.13470624961469E-01
DEBUG_STATS_RL:                  Gv (DYNAMICS)  max=  1.33252948113716E-01
DEBUG_STATS_RL:                  Gv (DYNAMICS) mean=  3.63105653417162E-03
DEBUG_STATS_RL:                  Gv (DYNAMICS) S.D.=  1.68178658851353E-02
DEBUG_STATS_RL:               GuNm1 (DYNAMICS)  min= -9.54289069794619E-06
DEBUG_STATS_RL:               GuNm1 (DYNAMICS)  max=  8.85956369138944E-06
DEBUG_STATS_RL:               GuNm1 (DYNAMICS) mean= -1.90604745703034E-09
DEBUG_STATS_RL:               GuNm1 (DYNAMICS) S.D.=  1.18383772168714E-06
DEBUG_STATS_RL:               GvNm1 (DYNAMICS)  min= -9.42133489571379E-06
DEBUG_STATS_RL:               GvNm1 (DYNAMICS)  max=  1.64753737260428E-05
DEBUG_STATS_RL:               GvNm1 (DYNAMICS) mean=  7.43444858559206E-07
DEBUG_STATS_RL:               GvNm1 (DYNAMICS) S.D.=  2.60308194692573E-06
DEBUG_STATS_RL:               GtNm1 (DYNAMICS)  min= -4.98574053272499E-06
DEBUG_STATS_RL:               GtNm1 (DYNAMICS)  max=  2.75813006477386E-06
DEBUG_STATS_RL:               GtNm1 (DYNAMICS) mean=  6.69014514771192E-09
DEBUG_STATS_RL:               GtNm1 (DYNAMICS) S.D.=  2.00374666960385E-07
DEBUG_STATS_RL:               GsNm1 (DYNAMICS)  min= -4.67914775006621E-07
DEBUG_STATS_RL:               GsNm1 (DYNAMICS)  max=  3.15074773648808E-07
DEBUG_STATS_RL:               GsNm1 (DYNAMICS) mean=  4.65414692843401E-11
DEBUG_STATS_RL:               GsNm1 (DYNAMICS) S.D.=  1.92963594391760E-08
DEBUG_STATS_RL:    cg2d_b (SOLVE_FOR_PRESSURE)  min= -2.41469423392826E+04
DEBUG_STATS_RL:    cg2d_b (SOLVE_FOR_PRESSURE)  max=  2.07683539035594E+04
DEBUG_STATS_RL:    cg2d_b (SOLVE_FOR_PRESSURE) mean=  3.54848661840721E+00
DEBUG_STATS_RL:    cg2d_b (SOLVE_FOR_PRESSURE) S.D.=  3.76650646112863E+03
 cg2d: Sum(rhs),rhsMax =   3.40198208377312E-01  1.58603582448836E+00
(PID.TID 0000.0001)  cg2d: iter=     1 ; resid.=  2.22645676653216E-01
(PID.TID 0000.0001)  cg2d: iter=     2 ; resid.=  2.22105539925970E-01
(PID.TID 0000.0001)  cg2d: iter=     3 ; resid.=  2.10489656781820E-01
(PID.TID 0000.0001)  cg2d: iter=     4 ; resid.=  1.78468719655878E-01
(PID.TID 0000.0001)  cg2d: iter=     5 ; resid.=  1.75499604738294E-01
(PID.TID 0000.0001)  cg2d: iter=     6 ; resid.=  1.57562627848570E-01
(PID.TID 0000.0001)  cg2d: iter=     7 ; resid.=  1.26043813021849E-01
(PID.TID 0000.0001)  cg2d: iter=     8 ; resid.=  9.39445786832885E-02
(PID.TID 0000.0001)  cg2d: iter=     9 ; resid.=  7.23304037581529E-02
(PID.TID 0000.0001)  cg2d: iter=    10 ; resid.=  6.04609614195913E-02
(PID.TID 0000.0001)  cg2d: iter=    11 ; resid.=  5.21715903082315E-02
(PID.TID 0000.0001)  cg2d: iter=    12 ; resid.=  4.44651574224151E-02
(PID.TID 0000.0001)  cg2d: iter=    13 ; resid.=  3.58895373472382E-02
(PID.TID 0000.0001)  cg2d: iter=    14 ; resid.=  2.92216028479185E-02
(PID.TID 0000.0001)  cg2d: iter=    15 ; resid.=  2.29563158150155E-02
(PID.TID 0000.0001)  cg2d: iter=    16 ; resid.=  2.08436733364873E-02
(PID.TID 0000.0001)  cg2d: iter=    17 ; resid.=  1.83001273843434E-02
(PID.TID 0000.0001)  cg2d: iter=    18 ; resid.=  1.53196726642568E-02
(PID.TID 0000.0001)  cg2d: iter=    19 ; resid.=  1.24814976980067E-02
(PID.TID 0000.0001)  cg2d: iter=    20 ; resid.=  1.02111352290367E-02
(PID.TID 0000.0001)  cg2d: iter=    21 ; resid.=  8.76084680572415E-03
(PID.TID 0000.0001)  cg2d: iter=    22 ; resid.=  7.55582625474110E-03
(PID.TID 0000.0001)  cg2d: iter=    23 ; resid.=  6.19586572323216E-03
(PID.TID 0000.0001)  cg2d: iter=    24 ; resid.=  5.08378472036288E-03
(PID.TID 0000.0001)  cg2d: iter=    25 ; resid.=  4.02346527597231E-03
(PID.TID 0000.0001)  cg2d: iter=    26 ; resid.=  3.17172964738024E-03
(PID.TID 0000.0001)  cg2d: iter=    27 ; resid.=  2.75138015096092E-03
(PID.TID 0000.0001)  cg2d: iter=    28 ; resid.=  2.16580777848294E-03
(PID.TID 0000.0001)  cg2d: iter=    29 ; resid.=  1.68467939894210E-03
(PID.TID 0000.0001)  cg2d: iter=    30 ; resid.=  1.45139744118623E-03
(PID.TID 0000.0001)  cg2d: iter=    31 ; resid.=  1.20277422030976E-03
(PID.TID 0000.0001)  cg2d: iter=    32 ; resid.=  8.96907981622058E-04
(PID.TID 0000.0001)  cg2d: iter=    33 ; resid.=  7.14156583353338E-04
(PID.TID 0000.0001)  cg2d: iter=    34 ; resid.=  6.14370022301542E-04
(PID.TID 0000.0001)  cg2d: iter=    35 ; resid.=  5.15132280768544E-04
(PID.TID 0000.0001)  cg2d: iter=    36 ; resid.=  4.53826871162315E-04
(PID.TID 0000.0001)  cg2d: iter=    37 ; resid.=  3.78661286598078E-04
(PID.TID 0000.0001)  cg2d: iter=    38 ; resid.=  3.22424420973298E-04
(PID.TID 0000.0001)  cg2d: iter=    39 ; resid.=  2.66458317015571E-04
(PID.TID 0000.0001)  cg2d: iter=    40 ; resid.=  2.20461302182507E-04
(PID.TID 0000.0001)  cg2d: iter=    41 ; resid.=  1.91026035393351E-04
(PID.TID 0000.0001)  cg2d: iter=    42 ; resid.=  1.67197757170629E-04
(PID.TID 0000.0001)  cg2d: iter=    43 ; resid.=  1.42922716493632E-04
(PID.TID 0000.0001)  cg2d: iter=    44 ; resid.=  1.19406655796584E-04
(PID.TID 0000.0001)  cg2d: iter=    45 ; resid.=  1.00768613603076E-04
(PID.TID 0000.0001)  cg2d: iter=    46 ; resid.=  7.93095609113952E-05
(PID.TID 0000.0001)  cg2d: iter=    47 ; resid.=  6.79854612036918E-05
(PID.TID 0000.0001)  cg2d: iter=    48 ; resid.=  5.35339117003048E-05
(PID.TID 0000.0001)  cg2d: iter=    49 ; resid.=  4.55662660952639E-05
(PID.TID 0000.0001)  cg2d: iter=    50 ; resid.=  3.80972163331858E-05
(PID.TID 0000.0001)  cg2d: iter=    51 ; resid.=  3.33221766714082E-05
(PID.TID 0000.0001)  cg2d: iter=    52 ; resid.=  3.05363195733675E-05
(PID.TID 0000.0001)  cg2d: iter=    53 ; resid.=  2.53674176730346E-05
(PID.TID 0000.0001)  cg2d: iter=    54 ; resid.=  2.19772398652493E-05
(PID.TID 0000.0001)  cg2d: iter=    55 ; resid.=  1.99809730868693E-05
(PID.TID 0000.0001)  cg2d: iter=    56 ; resid.=  1.69897574038706E-05
(PID.TID 0000.0001)  cg2d: iter=    57 ; resid.=  1.32739142770493E-05
(PID.TID 0000.0001)  cg2d: iter=    58 ; resid.=  1.04562086305903E-05
(PID.TID 0000.0001)  cg2d: iter=    59 ; resid.=  7.77911382935642E-06
(PID.TID 0000.0001)  cg2d: iter=    60 ; resid.=  5.91178718356816E-06
(PID.TID 0000.0001)  cg2d: iter=    61 ; resid.=  4.96757437176396E-06
(PID.TID 0000.0001)  cg2d: iter=    62 ; resid.=  4.28723128735819E-06
(PID.TID 0000.0001)  cg2d: iter=    63 ; resid.=  3.57398468341882E-06
(PID.TID 0000.0001)  cg2d: iter=    64 ; resid.=  2.94200430735597E-06
(PID.TID 0000.0001)  cg2d: iter=    65 ; resid.=  2.30854302161475E-06
(PID.TID 0000.0001)  cg2d: iter=    66 ; resid.=  1.92105263132118E-06
(PID.TID 0000.0001)  cg2d: iter=    67 ; resid.=  1.71609066533672E-06
(PID.TID 0000.0001)  cg2d: iter=    68 ; resid.=  1.54352379307973E-06
(PID.TID 0000.0001)  cg2d: iter=    69 ; resid.=  1.25811761491801E-06
(PID.TID 0000.0001)  cg2d: iter=    70 ; resid.=  1.08838368635337E-06
(PID.TID 0000.0001)  cg2d: iter=    71 ; resid.=  8.81834471159540E-07
(PID.TID 0000.0001)  cg2d: iter=    72 ; resid.=  7.17488396076090E-07
(PID.TID 0000.0001)  cg2d: iter=    73 ; resid.=  6.24504814942690E-07
(PID.TID 0000.0001)  cg2d: iter=    74 ; resid.=  5.35536823403593E-07
(PID.TID 0000.0001)  cg2d: iter=    75 ; resid.=  4.18163379309603E-07
(PID.TID 0000.0001)  cg2d: iter=    76 ; resid.=  3.48607918007113E-07
(PID.TID 0000.0001)  cg2d: iter=    77 ; resid.=  2.97176201801368E-07
(PID.TID 0000.0001)  cg2d: iter=    78 ; resid.=  2.23749585387719E-07
(PID.TID 0000.0001)  cg2d: iter=    79 ; resid.=  1.79510475414126E-07
(PID.TID 0000.0001)  cg2d: iter=    80 ; resid.=  1.34697172859707E-07
(PID.TID 0000.0001)  cg2d: iter=    81 ; resid.=  1.05736537179618E-07
(PID.TID 0000.0001)  cg2d: iter=    82 ; resid.=  8.36313450402412E-08
(PID.TID 0000.0001)  cg2d: iter=    83 ; resid.=  6.06599276158556E-08
(PID.TID 0000.0001)  cg2d: iter=    84 ; resid.=  4.42015779796205E-08
(PID.TID 0000.0001)  cg2d: iter=    85 ; resid.=  3.39261907309595E-08
(PID.TID 0000.0001)  cg2d: iter=    86 ; resid.=  2.57082735905883E-08
(PID.TID 0000.0001)  cg2d: iter=    87 ; resid.=  1.96926801900813E-08
(PID.TID 0000.0001)  cg2d: iter=    88 ; resid.=  1.66150666853788E-08
(PID.TID 0000.0001)  cg2d: iter=    89 ; resid.=  1.49927391292489E-08
(PID.TID 0000.0001)  cg2d: iter=    90 ; resid.=  1.11498474260596E-08
(PID.TID 0000.0001)  cg2d: iter=    91 ; resid.=  8.85683120770957E-09
(PID.TID 0000.0001)  cg2d: iter=    92 ; resid.=  6.77296003979399E-09
(PID.TID 0000.0001)  cg2d: iter=    93 ; resid.=  5.13952182259300E-09
(PID.TID 0000.0001)  cg2d: iter=    94 ; resid.=  3.88275168894917E-09
(PID.TID 0000.0001)  cg2d: iter=    95 ; resid.=  3.20595589038023E-09
(PID.TID 0000.0001)  cg2d: iter=    96 ; resid.=  2.31198829865234E-09
(PID.TID 0000.0001)  cg2d: iter=    97 ; resid.=  1.84979136677329E-09
(PID.TID 0000.0001)  cg2d: iter=    98 ; resid.=  1.56422991840077E-09
(PID.TID 0000.0001)  cg2d: iter=    99 ; resid.=  1.36075845129565E-09
(PID.TID 0000.0001)  cg2d: iter=   100 ; resid.=  1.24982027383582E-09
(PID.TID 0000.0001)  cg2d: iter=   101 ; resid.=  9.75926628669117E-10
(PID.TID 0000.0001)  cg2d: iter=   102 ; resid.=  8.34983228177793E-10
(PID.TID 0000.0001)  cg2d: iter=   103 ; resid.=  6.73281644942152E-10
(PID.TID 0000.0001)  cg2d: iter=   104 ; resid.=  5.52989649301578E-10
(PID.TID 0000.0001)  cg2d: iter=   105 ; resid.=  4.41223285552655E-10
(PID.TID 0000.0001)  cg2d: iter=   106 ; resid.=  3.74826430025686E-10
(PID.TID 0000.0001)  cg2d: iter=   107 ; resid.=  2.85824841717705E-10
(PID.TID 0000.0001)  cg2d: iter=   108 ; resid.=  2.07562890453834E-10
(PID.TID 0000.0001)  cg2d: iter=   109 ; resid.=  1.55488099053571E-10
(PID.TID 0000.0001)  cg2d: iter=   110 ; resid.=  1.16674572050330E-10
(PID.TID 0000.0001)  cg2d: iter=   111 ; resid.=  8.87960543324751E-11
(PID.TID 0000.0001)  cg2d: iter=   112 ; resid.=  6.57026243613798E-11
(PID.TID 0000.0001)  cg2d: iter=   113 ; resid.=  4.70764749818642E-11
(PID.TID 0000.0001)  cg2d: iter=   114 ; resid.=  3.79803414640086E-11
(PID.TID 0000.0001)  cg2d: iter=   115 ; resid.=  2.82122688123820E-11
(PID.TID 0000.0001)  cg2d: iter=   116 ; resid.=  2.07313801006209E-11
(PID.TID 0000.0001)  cg2d: iter=   117 ; resid.=  1.67458874518607E-11
(PID.TID 0000.0001)  cg2d: iter=   118 ; resid.=  1.27507693955417E-11
(PID.TID 0000.0001)  cg2d: iter=   119 ; resid.=  1.04451842630938E-11
(PID.TID 0000.0001)  cg2d: iter=   120 ; resid.=  8.19536935683158E-12
(PID.TID 0000.0001)  cg2d: iter=   121 ; resid.=  6.23527296580774E-12
(PID.TID 0000.0001)  cg2d: iter=   122 ; resid.=  5.38982981095322E-12
(PID.TID 0000.0001)  cg2d: iter=   123 ; resid.=  4.04213905349510E-12
(PID.TID 0000.0001)  cg2d: iter=   124 ; resid.=  2.93102679538727E-12
(PID.TID 0000.0001)  cg2d: iter=   125 ; resid.=  2.13701094067047E-12
(PID.TID 0000.0001)  cg2d: iter=   126 ; resid.=  1.46573238592277E-12
(PID.TID 0000.0001)  cg2d: iter=   127 ; resid.=  9.22763755006797E-13
(PID.TID 0000.0001)  cg2d: iter=   128 ; resid.=  6.51242807334683E-13
(PID.TID 0000.0001)  cg2d: iter=   129 ; resid.=  4.63407445567088E-13
(PID.TID 0000.0001)  cg2d: iter=   130 ; resid.=  3.03031433712387E-13
(PID.TID 0000.0001)  cg2d: iter=   131 ; resid.=  1.98269378527491E-13
(PID.TID 0000.0001)  cg2d: iter=   132 ; resid.=  1.42901969809076E-13
(PID.TID 0000.0001)  cg2d: iter=   133 ; resid.=  1.21919400856440E-13
(PID.TID 0000.0001)  cg2d: iter=   134 ; resid.=  1.05665713710574E-13
(PID.TID 0000.0001)  cg2d: iter=   135 ; resid.=  8.42537444010762E-14
DEBUG_STATS_RL:    cg2d_x (SOLVE_FOR_PRESSURE)  min= -1.78854356768683E+01
DEBUG_STATS_RL:    cg2d_x (SOLVE_FOR_PRESSURE)  max=  9.81942401246681E+00
DEBUG_STATS_RL:    cg2d_x (SOLVE_FOR_PRESSURE) mean= -1.83901956037160E+00
DEBUG_STATS_RL:    cg2d_x (SOLVE_FOR_PRESSURE) S.D.=  7.20574588387196E+00
(PID.TID 0000.0001)      cg2d_init_res =   3.94923020902703E-01
(PID.TID 0000.0001)      cg2d_iters(min,last) =      -1     135
(PID.TID 0000.0001)      cg2d_last_res =   8.42537444010762E-14
(PID.TID 0000.0001) // =======================================================
(PID.TID 0000.0001) // Begin MONITOR dynamic field statistics
(PID.TID 0000.0001) // =======================================================
(PID.TID 0000.0001) %MON time_tsnumber                =                    49
(PID.TID 0000.0001) %MON time_secondsf                =   4.2336000000000E+06
(PID.TID 0000.0001) %MON dynstat_eta_max              =   1.0009606536663E+00
(PID.TID 0000.0001) %MON dynstat_eta_min              =  -1.8231840649203E+00
(PID.TID 0000.0001) %MON dynstat_eta_mean             =  -3.7024057884930E-03
(PID.TID 0000.0001) %MON dynstat_eta_sd               =   6.4631446269827E-01
(PID.TID 0000.0001) %MON dynstat_eta_del2             =   2.3217089234813E-03
(PID.TID 0000.0001) %MON dynstat_uvel_max             =   1.8289992338765E-01
(PID.TID 0000.0001) %MON dynstat_uvel_min             =  -1.5417926967552E-01
(PID.TID 0000.0001) %MON dynstat_uvel_mean            =   2.1312765536101E-04
(PID.TID 0000.0001) %MON dynstat_uvel_sd              =   1.7785115351801E-02
(PID.TID 0000.0001) %MON dynstat_uvel_del2            =   1.0690576230914E-04
(PID.TID 0000.0001) %MON dynstat_vvel_max             =   1.3209828124891E-01
(PID.TID 0000.0001) %MON dynstat_vvel_min             =  -1.1271642285428E-01
(PID.TID 0000.0001) %MON dynstat_vvel_mean            =   4.1203299365127E-05
(PID.TID 0000.0001) %MON dynstat_vvel_sd              =   1.0330126665087E-02
(PID.TID 0000.0001) %MON dynstat_vvel_del2            =   8.6565745869242E-05
(PID.TID 0000.0001) %MON dynstat_wvel_max             =   1.1556651011262E-04
(PID.TID 0000.0001) %MON dynstat_wvel_min             =  -1.3956988935031E-04
(PID.TID 0000.0001) %MON dynstat_wvel_mean            =   1.2890837371936E-22
(PID.TID 0000.0001) %MON dynstat_wvel_sd              =   1.6105416268065E-05
(PID.TID 0000.0001) %MON dynstat_wvel_del2            =   1.5997875580466E-07
(PID.TID 0000.0001) %MON dynstat_theta_max            =   3.0385687165026E+01
(PID.TID 0000.0001) %MON dynstat_theta_min            =  -1.9864486303835E+00
(PID.TID 0000.0001) %MON dynstat_theta_mean           =   3.6424156210630E+00
(PID.TID 0000.0001) %MON dynstat_theta_sd             =   4.4211319443880E+00
(PID.TID 0000.0001) %MON dynstat_theta_del2           =   4.7825264797596E-03
(PID.TID 0000.0001) %MON dynstat_salt_max             =   3.7480938041309E+01
(PID.TID 0000.0001) %MON dynstat_salt_min             =   2.9859399682136E+01
(PID.TID 0000.0001) %MON dynstat_salt_mean            =   3.4738002607510E+01
(PID.TID 0000.0001) %MON dynstat_salt_sd              =   2.9640485708521E-01
(PID.TID 0000.0001) %MON dynstat_salt_del2            =   9.8711052018765E-04
(PID.TID 0000.0001) %MON dynstat_sst_max              =   3.0385687165026E+01
(PID.TID 0000.0001) %MON dynstat_sst_min              =  -1.9864486303835E+00
(PID.TID 0000.0001) %MON dynstat_sst_mean             =   1.8939648150696E+01
(PID.TID 0000.0001) %MON dynstat_sst_sd               =   9.0194967407473E+00
(PID.TID 0000.0001) %MON dynstat_sst_del2             =   2.7419687220599E-02
(PID.TID 0000.0001) %MON dynstat_sss_max              =   3.7453212890403E+01
(PID.TID 0000.0001) %MON dynstat_sss_min              =   2.9859399682136E+01
(PID.TID 0000.0001) %MON dynstat_sss_mean             =   3.4864018650089E+01
(PID.TID 0000.0001) %MON dynstat_sss_sd               =   9.7785770148593E-01
(PID.TID 0000.0001) %MON dynstat_sss_del2             =   7.9015219923936E-03
(PID.TID 0000.0001) %MON forcing_qnet_max             =   3.5005778503418E+02
(PID.TID 0000.0001) %MON forcing_qnet_min             =  -1.7193613128662E+02
(PID.TID 0000.0001) %MON forcing_qnet_mean            =  -1.3295232480064E+01
(PID.TID 0000.0001) %MON forcing_qnet_sd              =   7.5356710185275E+01
(PID.TID 0000.0001) %MON forcing_qnet_del2            =   9.3278656798389E-01
(PID.TID 0000.0001) %MON forcing_qsw_max              =   0.0000000000000E+00
(PID.TID 0000.0001) %MON forcing_qsw_min              =   0.0000000000000E+00
(PID.TID 0000.0001) %MON forcing_qsw_mean             =   0.0000000000000E+00
(PID.TID 0000.0001) %MON forcing_qsw_sd               =   0.0000000000000E+00
(PID.TID 0000.0001) %MON forcing_qsw_del2             =   0.0000000000000E+00
(PID.TID 0000.0001) %MON forcing_empmr_max            =   7.0250469974553E-05
(PID.TID 0000.0001) %MON forcing_empmr_min            =  -7.5240552988021E-05
(PID.TID 0000.0001) %MON forcing_empmr_mean           =   9.0413918728631E-07
(PID.TID 0000.0001) %MON forcing_empmr_sd             =   2.7719997009048E-05
(PID.TID 0000.0001) %MON forcing_empmr_del2           =   3.5454115748184E-07
(PID.TID 0000.0001) %MON forcing_fu_max               =   3.0860858261585E-01
(PID.TID 0000.0001) %MON forcing_fu_min               =  -2.3188623934984E-01
(PID.TID 0000.0001) %MON forcing_fu_mean              =   1.7913340385011E-02
(PID.TID 0000.0001) %MON forcing_fu_sd                =   9.3092736930720E-02
(PID.TID 0000.0001) %MON forcing_fu_del2              =   7.2682591920009E-04
(PID.TID 0000.0001) %MON forcing_fv_max               =   1.8452488817275E-01
(PID.TID 0000.0001) %MON forcing_fv_min               =  -1.9522114694119E-01
(PID.TID 0000.0001) %MON forcing_fv_mean              =  -7.2480099908687E-03
(PID.TID 0000.0001) %MON forcing_fv_sd                =   4.4132733305549E-02
(PID.TID 0000.0001) %MON forcing_fv_del2              =   5.1914537239774E-04
(PID.TID 0000.0001) %MON trAdv_CFL_u_max              =   4.7253600861672E-02
(PID.TID 0000.0001) %MON trAdv_CFL_v_max              =   3.0601787138108E-02
(PID.TID 0000.0001) %MON trAdv_CFL_w_max              =   5.3376140611128E-02
(PID.TID 0000.0001) %MON advcfl_uvel_max              =   4.7816415500557E-02
(PID.TID 0000.0001) %MON advcfl_vvel_max              =   2.5664577444942E-02
(PID.TID 0000.0001) %MON advcfl_wvel_max              =   4.4372856739124E-02
(PID.TID 0000.0001) %MON advcfl_W_hf_max              =   5.2296581156824E-02
(PID.TID 0000.0001) %MON pe_b_mean                    =   5.3454368126952E-04
(PID.TID 0000.0001) %MON ke_max                       =   1.6865446475500E-02
(PID.TID 0000.0001) %MON ke_mean                      =   1.9163344531781E-04
(PID.TID 0000.0001) %MON ke_vol                       =   1.3226782436723E+18
(PID.TID 0000.0001) %MON vort_r_min                   =  -5.1729560030017E-07
(PID.TID 0000.0001) %MON vort_r_max                   =   4.6795874129028E-07
(PID.TID 0000.0001) %MON vort_a_mean                  =  -2.5274806687754E-05
(PID.TID 0000.0001) %MON vort_a_sd                    =   7.3604296068336E-05
(PID.TID 0000.0001) %MON vort_p_mean                  =  -3.1845654905271E-05
(PID.TID 0000.0001) %MON vort_p_sd                    =   1.3162361738510E-04
(PID.TID 0000.0001) %MON surfExpan_theta_mean         =  -1.6011775354610E-07
(PID.TID 0000.0001) %MON surfExpan_salt_mean          =   2.5156389754340E-07
(PID.TID 0000.0001) // =======================================================
(PID.TID 0000.0001) // End MONITOR dynamic field statistics
(PID.TID 0000.0001) // =======================================================
 EXTERNAL_FIELDS_LOAD,        49 : iP,iLd,i0,i1=    2    3    2    3 ; Wght=  0.8666666667  0.1333333333
 EXTERNAL_FIELDS_LOAD: (fu0,1),fu,fv= -1.4435E-02 -2.7199E-02 -1.6137E-02 -1.5361E-02
 EXTERNAL_FIELDS_LOAD: SST,SSS,Q,E-P= -4.8546E-01  3.4442E+01  2.3714E+02  8.4710E-06
DEBUG_STATS_RL:          Uvel (THERMODYNAMICS)  min= -1.54179269675522E-01
DEBUG_STATS_RL:          Uvel (THERMODYNAMICS)  max=  1.82899923387653E-01
DEBUG_STATS_RL:          Uvel (THERMODYNAMICS) mean=  3.16337314093710E-03
DEBUG_STATS_RL:          Uvel (THERMODYNAMICS) S.D.=  2.52230317820519E-02
DEBUG_STATS_RL:          Vvel (THERMODYNAMICS)  min= -1.12716422854276E-01
DEBUG_STATS_RL:          Vvel (THERMODYNAMICS)  max=  1.32098281248909E-01
DEBUG_STATS_RL:          Vvel (THERMODYNAMICS) mean=  1.54464487259969E-03
DEBUG_STATS_RL:          Vvel (THERMODYNAMICS) S.D.=  1.55892440894752E-02
DEBUG_STATS_RL:          Wvel (THERMODYNAMICS)  min= -1.39569889350315E-04
DEBUG_STATS_RL:          Wvel (THERMODYNAMICS)  max=  1.15566510112620E-04
DEBUG_STATS_RL:          Wvel (THERMODYNAMICS) mean=  1.73164374291247E-09
DEBUG_STATS_RL:          Wvel (THERMODYNAMICS) S.D.=  1.41056394401581E-05
DEBUG_STATS_RL:         Theta (THERMODYNAMICS)  min= -1.98453566264365E+00
DEBUG_STATS_RL:         Theta (THERMODYNAMICS)  max=  3.03963357549920E+01
DEBUG_STATS_RL:         Theta (THERMODYNAMICS) mean=  3.23776803840946E+00
DEBUG_STATS_RL:         Theta (THERMODYNAMICS) S.D.=  5.87124775671091E+00
DEBUG_STATS_RL:          Salt (THERMODYNAMICS)  min=  2.00000000000000E-02
DEBUG_STATS_RL:          Salt (THERMODYNAMICS)  max=  3.74815156276263E+01
DEBUG_STATS_RL:          Salt (THERMODYNAMICS) mean=  1.88649390514664E+01
DEBUG_STATS_RL:          Salt (THERMODYNAMICS) S.D.=  1.73004562270996E+01
DEBUG_STATS_RL:         GtNm1 (THERMODYNAMICS)  min= -5.03328584469643E-06
DEBUG_STATS_RL:         GtNm1 (THERMODYNAMICS)  max=  2.77237234703582E-06
DEBUG_STATS_RL:         GtNm1 (THERMODYNAMICS) mean=  5.86003328998914E-09
DEBUG_STATS_RL:         GtNm1 (THERMODYNAMICS) S.D.=  1.99588311232398E-07
DEBUG_STATS_RL:         GsNm1 (THERMODYNAMICS)  min= -4.71832612739536E-07
DEBUG_STATS_RL:         GsNm1 (THERMODYNAMICS)  max=  3.17461046547322E-07
DEBUG_STATS_RL:         GsNm1 (THERMODYNAMICS) mean= -1.51710672041856E-11
DEBUG_STATS_RL:         GsNm1 (THERMODYNAMICS) S.D.=  1.94845743561292E-08
DEBUG_STATS_RL:                EtaN (DYNAMICS)  min= -1.82318406492034E+00
DEBUG_STATS_RL:                EtaN (DYNAMICS)  max=  1.00096065366634E+00
DEBUG_STATS_RL:                EtaN (DYNAMICS) mean= -1.87463767621981E-01
DEBUG_STATS_RL:                EtaN (DYNAMICS) S.D.=  7.34530671138833E-01
DEBUG_STATS_RL:                Uvel (DYNAMICS)  min= -1.54179269675522E-01
DEBUG_STATS_RL:                Uvel (DYNAMICS)  max=  1.82899923387653E-01
DEBUG_STATS_RL:                Uvel (DYNAMICS) mean=  3.16337314093710E-03
DEBUG_STATS_RL:                Uvel (DYNAMICS) S.D.=  2.52230317820519E-02
DEBUG_STATS_RL:                Vvel (DYNAMICS)  min= -1.12716422854276E-01
DEBUG_STATS_RL:                Vvel (DYNAMICS)  max=  1.32098281248909E-01
DEBUG_STATS_RL:                Vvel (DYNAMICS) mean=  1.54464487259969E-03
DEBUG_STATS_RL:                Vvel (DYNAMICS) S.D.=  1.55892440894752E-02
DEBUG_STATS_RL:                Wvel (DYNAMICS)  min= -1.39569889350315E-04
DEBUG_STATS_RL:                Wvel (DYNAMICS)  max=  1.15566510112620E-04
DEBUG_STATS_RL:                Wvel (DYNAMICS) mean=  1.73164374291247E-09
DEBUG_STATS_RL:                Wvel (DYNAMICS) S.D.=  1.41056394401581E-05
DEBUG_STATS_RL:               Theta (DYNAMICS)  min= -1.98453566264365E+00
DEBUG_STATS_RL:               Theta (DYNAMICS)  max=  3.03963357549920E+01
DEBUG_STATS_RL:               Theta (DYNAMICS) mean=  3.23776803840946E+00
DEBUG_STATS_RL:               Theta (DYNAMICS) S.D.=  5.87124775671091E+00
DEBUG_STATS_RL:                Salt (DYNAMICS)  min=  2.00000000000000E-02
DEBUG_STATS_RL:                Salt (DYNAMICS)  max=  3.74815156276263E+01
DEBUG_STATS_RL:                Salt (DYNAMICS) mean=  1.88649390514664E+01
DEBUG_STATS_RL:                Salt (DYNAMICS) S.D.=  1.73004562270996E+01
DEBUG_STATS_RL:                  Gu (DYNAMICS)  min= -1.52087982511995E-01
DEBUG_STATS_RL:                  Gu (DYNAMICS)  max=  1.88708391169602E-01
DEBUG_STATS_RL:                  Gu (DYNAMICS) mean=  3.23972161502561E-03
DEBUG_STATS_RL:                  Gu (DYNAMICS) S.D.=  2.52230015820350E-02
DEBUG_STATS_RL:                  Gv (DYNAMICS)  min= -1.11588276828304E-01
DEBUG_STATS_RL:                  Gv (DYNAMICS)  max=  1.35939680737007E-01
DEBUG_STATS_RL:                  Gv (DYNAMICS) mean=  3.69343975787065E-03
DEBUG_STATS_RL:                  Gv (DYNAMICS) S.D.=  1.68843481379326E-02
DEBUG_STATS_RL:               GuNm1 (DYNAMICS)  min= -9.56719162900528E-06
DEBUG_STATS_RL:               GuNm1 (DYNAMICS)  max=  8.92105522505100E-06
DEBUG_STATS_RL:               GuNm1 (DYNAMICS) mean= -1.50634827371146E-10
DEBUG_STATS_RL:               GuNm1 (DYNAMICS) S.D.=  1.18622050877375E-06
DEBUG_STATS_RL:               GvNm1 (DYNAMICS)  min= -9.36630539093710E-06
DEBUG_STATS_RL:               GvNm1 (DYNAMICS)  max=  1.64713107031959E-05
DEBUG_STATS_RL:               GvNm1 (DYNAMICS) mean=  7.43659482045054E-07
DEBUG_STATS_RL:               GvNm1 (DYNAMICS) S.D.=  2.60717677142730E-06
DEBUG_STATS_RL:               GtNm1 (DYNAMICS)  min= -5.03328584469643E-06
DEBUG_STATS_RL:               GtNm1 (DYNAMICS)  max=  2.77237234703582E-06
DEBUG_STATS_RL:               GtNm1 (DYNAMICS) mean=  5.86003328998914E-09
DEBUG_STATS_RL:               GtNm1 (DYNAMICS) S.D.=  1.99588311232398E-07
DEBUG_STATS_RL:               GsNm1 (DYNAMICS)  min= -4.71832612739536E-07
DEBUG_STATS_RL:               GsNm1 (DYNAMICS)  max=  3.17461046547322E-07
DEBUG_STATS_RL:               GsNm1 (DYNAMICS) mean= -1.51710672041856E-11
DEBUG_STATS_RL:               GsNm1 (DYNAMICS) S.D.=  1.94845743561292E-08
DEBUG_STATS_RL:    cg2d_b (SOLVE_FOR_PRESSURE)  min= -2.33440059331782E+04
DEBUG_STATS_RL:    cg2d_b (SOLVE_FOR_PRESSURE)  max=  2.15972406087715E+04
DEBUG_STATS_RL:    cg2d_b (SOLVE_FOR_PRESSURE) mean=  3.61977754515154E+00
DEBUG_STATS_RL:    cg2d_b (SOLVE_FOR_PRESSURE) S.D.=  3.77793486054924E+03
 cg2d: Sum(rhs),rhsMax =   3.58969451987533E-01  1.53329681153284E+00
(PID.TID 0000.0001)  cg2d: iter=     1 ; resid.=  2.37324701584379E-01
(PID.TID 0000.0001)  cg2d: iter=     2 ; resid.=  2.44385715591167E-01
(PID.TID 0000.0001)  cg2d: iter=     3 ; resid.=  2.30509421422783E-01
(PID.TID 0000.0001)  cg2d: iter=     4 ; resid.=  1.98360703460362E-01
(PID.TID 0000.0001)  cg2d: iter=     5 ; resid.=  2.01419968375506E-01
(PID.TID 0000.0001)  cg2d: iter=     6 ; resid.=  1.76906497906008E-01
(PID.TID 0000.0001)  cg2d: iter=     7 ; resid.=  1.37377189631939E-01
(PID.TID 0000.0001)  cg2d: iter=     8 ; resid.=  9.91698201678881E-02
(PID.TID 0000.0001)  cg2d: iter=     9 ; resid.=  7.54560210883055E-02
(PID.TID 0000.0001)  cg2d: iter=    10 ; resid.=  6.29931641545264E-02
(PID.TID 0000.0001)  cg2d: iter=    11 ; resid.=  5.49866694078425E-02
(PID.TID 0000.0001)  cg2d: iter=    12 ; resid.=  4.74917469774403E-02
(PID.TID 0000.0001)  cg2d: iter=    13 ; resid.=  3.97538980140543E-02
(PID.TID 0000.0001)  cg2d: iter=    14 ; resid.=  3.26442514207345E-02
(PID.TID 0000.0001)  cg2d: iter=    15 ; resid.=  2.53105399841243E-02
(PID.TID 0000.0001)  cg2d: iter=    16 ; resid.=  2.29145323734787E-02
(PID.TID 0000.0001)  cg2d: iter=    17 ; resid.=  1.98388352488962E-02
(PID.TID 0000.0001)  cg2d: iter=    18 ; resid.=  1.66413986700062E-02
(PID.TID 0000.0001)  cg2d: iter=    19 ; resid.=  1.34363637493226E-02
(PID.TID 0000.0001)  cg2d: iter=    20 ; resid.=  1.08938976399413E-02
(PID.TID 0000.0001)  cg2d: iter=    21 ; resid.=  9.32374800079726E-03
(PID.TID 0000.0001)  cg2d: iter=    22 ; resid.=  8.11071798116253E-03
(PID.TID 0000.0001)  cg2d: iter=    23 ; resid.=  6.65792443931423E-03
(PID.TID 0000.0001)  cg2d: iter=    24 ; resid.=  5.58488317073621E-03
(PID.TID 0000.0001)  cg2d: iter=    25 ; resid.=  4.46857573964195E-03
(PID.TID 0000.0001)  cg2d: iter=    26 ; resid.=  3.47537204356842E-03
(PID.TID 0000.0001)  cg2d: iter=    27 ; resid.=  2.97630060255556E-03
(PID.TID 0000.0001)  cg2d: iter=    28 ; resid.=  2.30123942768454E-03
(PID.TID 0000.0001)  cg2d: iter=    29 ; resid.=  1.76954205373831E-03
(PID.TID 0000.0001)  cg2d: iter=    30 ; resid.=  1.52876650580783E-03
(PID.TID 0000.0001)  cg2d: iter=    31 ; resid.=  1.27328442519872E-03
(PID.TID 0000.0001)  cg2d: iter=    32 ; resid.=  9.65958532853950E-04
(PID.TID 0000.0001)  cg2d: iter=    33 ; resid.=  7.78870464916737E-04
(PID.TID 0000.0001)  cg2d: iter=    34 ; resid.=  6.68909896102103E-04
(PID.TID 0000.0001)  cg2d: iter=    35 ; resid.=  5.59643758365982E-04
(PID.TID 0000.0001)  cg2d: iter=    36 ; resid.=  4.93395795148084E-04
(PID.TID 0000.0001)  cg2d: iter=    37 ; resid.=  4.11505893348488E-04
(PID.TID 0000.0001)  cg2d: iter=    38 ; resid.=  3.56790754102266E-04
(PID.TID 0000.0001)  cg2d: iter=    39 ; resid.=  2.95746170677741E-04
(PID.TID 0000.0001)  cg2d: iter=    40 ; resid.=  2.41737383561439E-04
(PID.TID 0000.0001)  cg2d: iter=    41 ; resid.=  2.11005472534279E-04
(PID.TID 0000.0001)  cg2d: iter=    42 ; resid.=  1.84409693942216E-04
(PID.TID 0000.0001)  cg2d: iter=    43 ; resid.=  1.54246397091443E-04
(PID.TID 0000.0001)  cg2d: iter=    44 ; resid.=  1.30131424435286E-04
(PID.TID 0000.0001)  cg2d: iter=    45 ; resid.=  1.09705951634696E-04
(PID.TID 0000.0001)  cg2d: iter=    46 ; resid.=  8.64427110393531E-05
(PID.TID 0000.0001)  cg2d: iter=    47 ; resid.=  7.41576379738254E-05
(PID.TID 0000.0001)  cg2d: iter=    48 ; resid.=  5.75064535919374E-05
(PID.TID 0000.0001)  cg2d: iter=    49 ; resid.=  4.92194325644062E-05
(PID.TID 0000.0001)  cg2d: iter=    50 ; resid.=  4.20819837631120E-05
(PID.TID 0000.0001)  cg2d: iter=    51 ; resid.=  3.75088904250592E-05
(PID.TID 0000.0001)  cg2d: iter=    52 ; resid.=  3.49286297125931E-05
(PID.TID 0000.0001)  cg2d: iter=    53 ; resid.=  2.85691836790639E-05
(PID.TID 0000.0001)  cg2d: iter=    54 ; resid.=  2.41567627206551E-05
(PID.TID 0000.0001)  cg2d: iter=    55 ; resid.=  2.15764825100349E-05
(PID.TID 0000.0001)  cg2d: iter=    56 ; resid.=  1.80697594855774E-05
(PID.TID 0000.0001)  cg2d: iter=    57 ; resid.=  1.38291612541860E-05
(PID.TID 0000.0001)  cg2d: iter=    58 ; resid.=  1.09493408826395E-05
(PID.TID 0000.0001)  cg2d: iter=    59 ; resid.=  8.20191153070019E-06
(PID.TID 0000.0001)  cg2d: iter=    60 ; resid.=  6.17029586271747E-06
(PID.TID 0000.0001)  cg2d: iter=    61 ; resid.=  5.30292859274513E-06
(PID.TID 0000.0001)  cg2d: iter=    62 ; resid.=  4.66835573386269E-06
(PID.TID 0000.0001)  cg2d: iter=    63 ; resid.=  3.98695049830569E-06
(PID.TID 0000.0001)  cg2d: iter=    64 ; resid.=  3.32534527603569E-06
(PID.TID 0000.0001)  cg2d: iter=    65 ; resid.=  2.58017452600693E-06
(PID.TID 0000.0001)  cg2d: iter=    66 ; resid.=  2.14664502904698E-06
(PID.TID 0000.0001)  cg2d: iter=    67 ; resid.=  1.87443217280127E-06
(PID.TID 0000.0001)  cg2d: iter=    68 ; resid.=  1.63698629184793E-06
(PID.TID 0000.0001)  cg2d: iter=    69 ; resid.=  1.35592317509778E-06
(PID.TID 0000.0001)  cg2d: iter=    70 ; resid.=  1.17856415718769E-06
(PID.TID 0000.0001)  cg2d: iter=    71 ; resid.=  9.45229316806823E-07
(PID.TID 0000.0001)  cg2d: iter=    72 ; resid.=  7.78051717890301E-07
(PID.TID 0000.0001)  cg2d: iter=    73 ; resid.=  6.82737492051633E-07
(PID.TID 0000.0001)  cg2d: iter=    74 ; resid.=  5.88348326913261E-07
(PID.TID 0000.0001)  cg2d: iter=    75 ; resid.=  4.63985527285669E-07
(PID.TID 0000.0001)  cg2d: iter=    76 ; resid.=  3.88444151595626E-07
(PID.TID 0000.0001)  cg2d: iter=    77 ; resid.=  3.29809015946347E-07
(PID.TID 0000.0001)  cg2d: iter=    78 ; resid.=  2.40518654179077E-07
(PID.TID 0000.0001)  cg2d: iter=    79 ; resid.=  1.86542756914653E-07
(PID.TID 0000.0001)  cg2d: iter=    80 ; resid.=  1.38838633451911E-07
(PID.TID 0000.0001)  cg2d: iter=    81 ; resid.=  1.07627440677784E-07
(PID.TID 0000.0001)  cg2d: iter=    82 ; resid.=  8.43285776057756E-08
(PID.TID 0000.0001)  cg2d: iter=    83 ; resid.=  6.20706134036808E-08
(PID.TID 0000.0001)  cg2d: iter=    84 ; resid.=  4.54571552476568E-08
(PID.TID 0000.0001)  cg2d: iter=    85 ; resid.=  3.53066987966513E-08
(PID.TID 0000.0001)  cg2d: iter=    86 ; resid.=  2.67404018178580E-08
(PID.TID 0000.0001)  cg2d: iter=    87 ; resid.=  2.09796095915991E-08
(PID.TID 0000.0001)  cg2d: iter=    88 ; resid.=  1.76895559552917E-08
(PID.TID 0000.0001)  cg2d: iter=    89 ; resid.=  1.55897485114524E-08
(PID.TID 0000.0001)  cg2d: iter=    90 ; resid.=  1.15866244544375E-08
(PID.TID 0000.0001)  cg2d: iter=    91 ; resid.=  9.10045280217618E-09
(PID.TID 0000.0001)  cg2d: iter=    92 ; resid.=  6.73563112829759E-09
(PID.TID 0000.0001)  cg2d: iter=    93 ; resid.=  5.13090074027734E-09
(PID.TID 0000.0001)  cg2d: iter=    94 ; resid.=  3.91444644358748E-09
(PID.TID 0000.0001)  cg2d: iter=    95 ; resid.=  3.13627238006916E-09
(PID.TID 0000.0001)  cg2d: iter=    96 ; resid.=  2.24208717671015E-09
(PID.TID 0000.0001)  cg2d: iter=    97 ; resid.=  1.78460092711060E-09
(PID.TID 0000.0001)  cg2d: iter=    98 ; resid.=  1.50560278574289E-09
(PID.TID 0000.0001)  cg2d: iter=    99 ; resid.=  1.30186287507559E-09
(PID.TID 0000.0001)  cg2d: iter=   100 ; resid.=  1.21351995265509E-09
(PID.TID 0000.0001)  cg2d: iter=   101 ; resid.=  9.62351089604294E-10
(PID.TID 0000.0001)  cg2d: iter=   102 ; resid.=  8.37822709602832E-10
(PID.TID 0000.0001)  cg2d: iter=   103 ; resid.=  6.70448892653699E-10
(PID.TID 0000.0001)  cg2d: iter=   104 ; resid.=  5.50123582319717E-10
(PID.TID 0000.0001)  cg2d: iter=   105 ; resid.=  4.41312572166640E-10
(PID.TID 0000.0001)  cg2d: iter=   106 ; resid.=  3.66088825354241E-10
(PID.TID 0000.0001)  cg2d: iter=   107 ; resid.=  2.70988094296584E-10
(PID.TID 0000.0001)  cg2d: iter=   108 ; resid.=  1.94707137544093E-10
(PID.TID 0000.0001)  cg2d: iter=   109 ; resid.=  1.44915831601440E-10
(PID.TID 0000.0001)  cg2d: iter=   110 ; resid.=  1.10715287548991E-10
(PID.TID 0000.0001)  cg2d: iter=   111 ; resid.=  8.72794932445417E-11
(PID.TID 0000.0001)  cg2d: iter=   112 ; resid.=  6.81773039734607E-11
(PID.TID 0000.0001)  cg2d: iter=   113 ; resid.=  5.13063580690698E-11
(PID.TID 0000.0001)  cg2d: iter=   114 ; resid.=  4.22671107782861E-11
(PID.TID 0000.0001)  cg2d: iter=   115 ; resid.=  3.20349193652543E-11
(PID.TID 0000.0001)  cg2d: iter=   116 ; resid.=  2.38959900010176E-11
(PID.TID 0000.0001)  cg2d: iter=   117 ; resid.=  1.89812570339772E-11
(PID.TID 0000.0001)  cg2d: iter=   118 ; resid.=  1.44849293985019E-11
(PID.TID 0000.0001)  cg2d: iter=   119 ; resid.=  1.13060091494722E-11
(PID.TID 0000.0001)  cg2d: iter=   120 ; resid.=  8.53965340470168E-12
(PID.TID 0000.0001)  cg2d: iter=   121 ; resid.=  6.40999563191309E-12
(PID.TID 0000.0001)  cg2d: iter=   122 ; resid.=  5.40631411099872E-12
(PID.TID 0000.0001)  cg2d: iter=   123 ; resid.=  3.99857280080272E-12
(PID.TID 0000.0001)  cg2d: iter=   124 ; resid.=  2.93664719836883E-12
(PID.TID 0000.0001)  cg2d: iter=   125 ; resid.=  2.11694357709062E-12
(PID.TID 0000.0001)  cg2d: iter=   126 ; resid.=  1.43747198047128E-12
(PID.TID 0000.0001)  cg2d: iter=   127 ; resid.=  9.35644230732719E-13
(PID.TID 0000.0001)  cg2d: iter=   128 ; resid.=  6.79812482843197E-13
(PID.TID 0000.0001)  cg2d: iter=   129 ; resid.=  4.95104597546698E-13
(PID.TID 0000.0001)  cg2d: iter=   130 ; resid.=  3.47630170577205E-13
(PID.TID 0000.0001)  cg2d: iter=   131 ; resid.=  2.51784853127657E-13
(PID.TID 0000.0001)  cg2d: iter=   132 ; resid.=  2.00090311065106E-13
(PID.TID 0000.0001)  cg2d: iter=   133 ; resid.=  1.82283689246237E-13
(PID.TID 0000.0001)  cg2d: iter=   134 ; resid.=  1.55489528165598E-13
(PID.TID 0000.0001)  cg2d: iter=   135 ; resid.=  1.15926963643049E-13
(PID.TID 0000.0001)  cg2d: iter=   136 ; resid.=  7.81501483494104E-14
DEBUG_STATS_RL:    cg2d_x (SOLVE_FOR_PRESSURE)  min= -1.76185191759309E+01
DEBUG_STATS_RL:    cg2d_x (SOLVE_FOR_PRESSURE)  max=  9.21587103693845E+00
DEBUG_STATS_RL:    cg2d_x (SOLVE_FOR_PRESSURE) mean= -1.81826935999389E+00
DEBUG_STATS_RL:    cg2d_x (SOLVE_FOR_PRESSURE) S.D.=  6.99337359249645E+00
(PID.TID 0000.0001)      cg2d_init_res =   4.08214224572593E-01
(PID.TID 0000.0001)      cg2d_iters(min,last) =      -1     136
(PID.TID 0000.0001)      cg2d_last_res =   7.81501483494104E-14
(PID.TID 0000.0001) // =======================================================
(PID.TID 0000.0001) // Begin MONITOR dynamic field statistics
(PID.TID 0000.0001) // =======================================================
(PID.TID 0000.0001) %MON time_tsnumber                =                    50
(PID.TID 0000.0001) %MON time_secondsf                =   4.3200000000000E+06
(PID.TID 0000.0001) %MON dynstat_eta_max              =   9.3943639520282E-01
(PID.TID 0000.0001) %MON dynstat_eta_min              =  -1.7959754511652E+00
(PID.TID 0000.0001) %MON dynstat_eta_mean             =  -3.7767890307671E-03
(PID.TID 0000.0001) %MON dynstat_eta_sd               =   6.2243692306102E-01
(PID.TID 0000.0001) %MON dynstat_eta_del2             =   2.3300146862317E-03
(PID.TID 0000.0001) %MON dynstat_uvel_max             =   1.8321141503589E-01
(PID.TID 0000.0001) %MON dynstat_uvel_min             =  -1.5320725453223E-01
(PID.TID 0000.0001) %MON dynstat_uvel_mean            =   3.1290979481869E-04
(PID.TID 0000.0001) %MON dynstat_uvel_sd              =   1.7609794706197E-02
(PID.TID 0000.0001) %MON dynstat_uvel_del2            =   1.0662147160563E-04
(PID.TID 0000.0001) %MON dynstat_vvel_max             =   1.3471789620110E-01
(PID.TID 0000.0001) %MON dynstat_vvel_min             =  -1.1036610564233E-01
(PID.TID 0000.0001) %MON dynstat_vvel_mean            =   4.9453088409498E-05
(PID.TID 0000.0001) %MON dynstat_vvel_sd              =   1.0288144566958E-02
(PID.TID 0000.0001) %MON dynstat_vvel_del2            =   8.5988084429102E-05
(PID.TID 0000.0001) %MON dynstat_wvel_max             =   1.3803843921359E-04
(PID.TID 0000.0001) %MON dynstat_wvel_min             =  -1.3637150034416E-04
(PID.TID 0000.0001) %MON dynstat_wvel_mean            =  -1.6031475537728E-22
(PID.TID 0000.0001) %MON dynstat_wvel_sd              =   1.5897979362480E-05
(PID.TID 0000.0001) %MON dynstat_wvel_del2            =   1.5822383070502E-07
(PID.TID 0000.0001) %MON dynstat_theta_max            =   3.0396335754992E+01
(PID.TID 0000.0001) %MON dynstat_theta_min            =  -1.9845356626437E+00
(PID.TID 0000.0001) %MON dynstat_theta_mean           =   3.6424934330955E+00
(PID.TID 0000.0001) %MON dynstat_theta_sd             =   4.4213890996556E+00
(PID.TID 0000.0001) %MON dynstat_theta_del2           =   4.7935428703663E-03
(PID.TID 0000.0001) %MON dynstat_salt_max             =   3.7481515627626E+01
(PID.TID 0000.0001) %MON dynstat_salt_min             =   2.9861762933477E+01
(PID.TID 0000.0001) %MON dynstat_salt_mean            =   3.4737997568395E+01
(PID.TID 0000.0001) %MON dynstat_salt_sd              =   2.9640214487487E-01
(PID.TID 0000.0001) %MON dynstat_salt_del2            =   9.8717125803922E-04
(PID.TID 0000.0001) %MON dynstat_sst_max              =   3.0396335754992E+01
(PID.TID 0000.0001) %MON dynstat_sst_min              =  -1.9845356626437E+00
(PID.TID 0000.0001) %MON dynstat_sst_mean             =   1.8947148526699E+01
(PID.TID 0000.0001) %MON dynstat_sst_sd               =   9.0226243541931E+00
(PID.TID 0000.0001) %MON dynstat_sst_del2             =   2.7431906028435E-02
(PID.TID 0000.0001) %MON dynstat_sss_max              =   3.7454262159541E+01
(PID.TID 0000.0001) %MON dynstat_sss_min              =   2.9861762933477E+01
(PID.TID 0000.0001) %MON dynstat_sss_mean             =   3.4863822222246E+01
(PID.TID 0000.0001) %MON dynstat_sss_sd               =   9.7801178669337E-01
(PID.TID 0000.0001) %MON dynstat_sss_del2             =   7.9022334656371E-03
(PID.TID 0000.0001) %MON forcing_qnet_max             =   3.4725963338216E+02
(PID.TID 0000.0001) %MON forcing_qnet_min             =  -1.7163685201009E+02
(PID.TID 0000.0001) %MON forcing_qnet_mean            =  -1.3071892980437E+01
(PID.TID 0000.0001) %MON forcing_qnet_sd              =   7.3968055720569E+01
(PID.TID 0000.0001) %MON forcing_qnet_del2            =   9.2759693781153E-01
(PID.TID 0000.0001) %MON forcing_qsw_max              =   0.0000000000000E+00
(PID.TID 0000.0001) %MON forcing_qsw_min              =   0.0000000000000E+00
(PID.TID 0000.0001) %MON forcing_qsw_mean             =   0.0000000000000E+00
(PID.TID 0000.0001) %MON forcing_qsw_sd               =   0.0000000000000E+00
(PID.TID 0000.0001) %MON forcing_qsw_del2             =   0.0000000000000E+00
(PID.TID 0000.0001) %MON forcing_empmr_max            =   6.9416777629764E-05
(PID.TID 0000.0001) %MON forcing_empmr_min            =  -7.4816678363732E-05
(PID.TID 0000.0001) %MON forcing_empmr_mean           =   8.9104925641196E-07
(PID.TID 0000.0001) %MON forcing_empmr_sd             =   2.7637051706411E-05
(PID.TID 0000.0001) %MON forcing_empmr_del2           =   3.5415798098348E-07
(PID.TID 0000.0001) %MON forcing_fu_max               =   3.0993293523788E-01
(PID.TID 0000.0001) %MON forcing_fu_min               =  -2.3727086881797E-01
(PID.TID 0000.0001) %MON forcing_fu_mean              =   1.8007539974469E-02
(PID.TID 0000.0001) %MON forcing_fu_sd                =   9.3162159555480E-02
(PID.TID 0000.0001) %MON forcing_fu_del2              =   7.2147166739709E-04
(PID.TID 0000.0001) %MON forcing_fv_max               =   1.7883819590012E-01
(PID.TID 0000.0001) %MON forcing_fv_min               =  -1.9373511075974E-01
(PID.TID 0000.0001) %MON forcing_fv_mean              =  -7.2584383408382E-03
(PID.TID 0000.0001) %MON forcing_fv_sd                =   4.3856575417137E-02
(PID.TID 0000.0001) %MON forcing_fv_del2              =   5.1243707888960E-04
(PID.TID 0000.0001) %MON trAdv_CFL_u_max              =   4.7826127356534E-02
(PID.TID 0000.0001) %MON trAdv_CFL_v_max              =   3.0659487504625E-02
(PID.TID 0000.0001) %MON trAdv_CFL_w_max              =   5.2296581156824E-02
(PID.TID 0000.0001) %MON advcfl_uvel_max              =   4.7897850275384E-02
(PID.TID 0000.0001) %MON advcfl_vvel_max              =   2.6173526616580E-02
(PID.TID 0000.0001) %MON advcfl_wvel_max              =   4.2282571328883E-02
(PID.TID 0000.0001) %MON advcfl_W_hf_max              =   4.9833030494755E-02
(PID.TID 0000.0001) %MON pe_b_mean                    =   4.9577872226191E-04
(PID.TID 0000.0001) %MON ke_max                       =   1.6688070726665E-02
(PID.TID 0000.0001) %MON ke_mean                      =   1.8844978898770E-04
(PID.TID 0000.0001) %MON ke_vol                       =   1.3226782436723E+18
(PID.TID 0000.0001) %MON vort_r_min                   =  -5.1545514691104E-07
(PID.TID 0000.0001) %MON vort_r_max                   =   4.7930713158667E-07
(PID.TID 0000.0001) %MON vort_a_mean                  =  -2.5274806821683E-05
(PID.TID 0000.0001) %MON vort_a_sd                    =   7.3604301131619E-05
(PID.TID 0000.0001) %MON vort_p_mean                  =  -3.1845655074019E-05
(PID.TID 0000.0001) %MON vort_p_sd                    =   1.3162366979719E-04
(PID.TID 0000.0001) %MON surfExpan_theta_mean         =  -2.1648081643639E-07
(PID.TID 0000.0001) %MON surfExpan_salt_mean          =   2.6754220953536E-07
(PID.TID 0000.0001) // =======================================================
(PID.TID 0000.0001) // End MONITOR dynamic field statistics
(PID.TID 0000.0001) // =======================================================
(PID.TID 0000.0001) // =======================================================
(PID.TID 0000.0001) // Field Current uVel   at iteration         50
(PID.TID 0000.0001) // CMIN =         -1.532072545322325E-01
(PID.TID 0000.0001) // CMAX =          1.832114150358893E-01
(PID.TID 0000.0001) // CINT =          1.245995072474525E-02
(PID.TID 0000.0001) // SYMBOLS (CMIN->CMAX): -abcdefghijklmnopqrstuvwxyz+
(PID.TID 0000.0001) //                  0.0: .
(PID.TID 0000.0001) // RANGE I (Lo:Hi:Step):(     1:    90:     1)
(PID.TID 0000.0001) // RANGE J (Lo:Hi:Step):(    40:     1:    -1)
(PID.TID 0000.0001) // RANGE K (Lo:Hi:Step):(   1:   1:   1)
(PID.TID 0000.0001) // =======================================================
(PID.TID 0000.0001) K =   1
(PID.TID 0000.0001)                I=10      I=20      I=30      I=40      I=50      I=60      I=70      I=80      I=90
(PID.TID 0000.0001) |--J--|123456789|123456789|123456789|123456789|123456789|123456789|123456789|123456789|123456789|
(PID.TID 0000.0001)     40 lllll..llmmmmmmmmmm...................................................................lkkk
(PID.TID 0000.0001)     39 mnoonnnmmmmmmm....l......................................................lll.........kkkkl
(PID.TID 0000.0001)     38 nnonmmllllmmm............................................................llll.......kklmmn
(PID.TID 0000.0001)     37 oon...................................................................l....kl....jkkk..moo
(PID.TID 0000.0001)     36 pn..........................................lll.....................mmmmmmljkk..jllmonnppp
(PID.TID 0000.0001)     35 om..................................lll...lllmmk....kkll............ll.....mlklllmnooooqqo
(PID.TID 0000.0001)     34 ....................................llk..lllllll..mmmnnnm...................mnnoppqqqqqo..
(PID.TID 0000.0001)     33 .....................................lllkklmmmnonnnopqqpoml..................nnprrssrqpnl.
(PID.TID 0000.0001)     32 .....................................mllklmnoopppppqrrrqpon.................qppssssrponnm.
(PID.TID 0000.0001)     31 .....................................nnnnopppqqqqqqrssrrqpo...............nrsrttsrqponmn..
(PID.TID 0000.0001)     30 ....................................qqrrrsssrrrrrrrrrrqppon.............psssrrrrqppnnnmn..
(PID.TID 0000.0001)     29 ..................................mpqrstssssrrqqppppppoonnnm............qqqpnnnnnnnmmmmn..
(PID.TID 0000.0001)     28 ................................lnoonnopooooooonnnnnnnnnnnmmm..........mnmllllllmmmmllmn..
(PID.TID 0000.0001)     27 ...............l...............nponmlmmmmmmmmmmmmmnnnnnnnnmmml....lll..nnnmmmmmmnnnnml....
(PID.TID 0000.0001)     26 ...............mn............lnqrpomlmmmmmmmmmmmnnnnoonnnmmllmll..llnnnpoonnnnooooonml....
(PID.TID 0000.0001)     25 ...............mnl....ml....mlmmpnlkjjjkkkkjkkkkllmllllkkkjjkklll....lmnlnllklllllkkjj....
(PID.TID 0000.0001)     24 .............lkjjkl..llk....kk..jheddddefffeffgghhihgggfeeeghhiijjkl..jhigghggghhggfgi....
(PID.TID 0000.0001)     23 .............eeefgi..hhh....il...ebba--abbbbcceffghggghgfgfgggggffghj.....fdeeeffeffgk....
(PID.TID 0000.0001)     22 k............cbbbcefddeg....l..jbeffdccdddddeeghhiiijkmmlkjjiijiihihij.......iheeegijlnnnl
(PID.TID 0000.0001)     21 llk.........gfeedcfggijmm......mjmmliiiiiiijjjkkjjjjlkmmllkkklmmlkkjik.........igfilmlmmml
(PID.TID 0000.0001)     20 lmk........jjmmlkjjllmnom.........onmmkklmnonmmmklkjlkkkkkjjklmlkkkjhj..........jfhklllllk
(PID.TID 0000.0001)     19 lnl........jilnmmlllkllkkll....jo......mloqqpoonmomklkjjiihhhghggiihgh............ihijkjij
(PID.TID 0000.0001)     18 ill........gdgfdefhihhhhhklmnmmil....oonkoqoooonmnnmmkjiihgfeddcdfgfefj...........jhhiihgg
(PID.TID 0000.0001)     17 ehj..........hfccfgijhhiijklnnm......onlmnnllmmlklmmlkjiihgfeedddefffef..........nkhgfedde
(PID.TID 0000.0001)     16 efh.......n..kihhhhkmlijkkllmm........mkmnmkkmnllllllmlkjjiihggfghhhgggi.........nkihfeeee
(PID.TID 0000.0001)     15 hhii.....ll..mkkjijlmmkllmmlm..........klllklmnnllmmmmlkkkkkjijjjjjjiiijl.......kmljjiihhh
(PID.TID 0000.0001)     14 jjji.....mllkmlllkkmnmklmmmll..........mklllmnnnmmnnnmlllmllkkmlkkkkkkkkl......mnmlkkkjjjj
(PID.TID 0000.0001)     13 llkj.....mlllmlllllnnljlmnmkj..........nmmmnnooonooonnnnnonnnoomlmmnmmmml.....noonmmllllml
(PID.TID 0000.0001)     12 oonlklkoooonmmlmmnmnmmnooomlklmmlk.....ooonmnoooooonnnnnooopqqonnopponml......oppppppppppp
(PID.TID 0000.0001)     11 rrqoonortuuuttssrsrrqqrrrppponnonlk...ooool..nnnnnnnnnmmnoopqppoppqqpoml.....opqsttstssrrr
(PID.TID 0000.0001)     10 ttsssuvwwxzyy++yxxxwvuuuttsrqqqppoml..nonnl..klmmmmmmnnmmmnoppppqqqqppnm...onpqrsuuuvvuuuu
(PID.TID 0000.0001)      9 utttuvwwwwxxwxxwvttuvuuttttssssrrrponnoonm..ljlnnnnnnnnoonnooooppppooonk..kkmprrrstuuuuvwv
(PID.TID 0000.0001)      8 sstttttssssssrrqpkjnrsssrrrrrsssttttttsrpnhhklnoppqpppppppppoppppooooonl..lklnpqppqrrrrrss
(PID.TID 0000.0001)      7 ppqqppopppopppponkhhlopppoooppqrrsstuutssrqpooopppqrrsrqqqppoppqqppppooonmonoooponnooooooo
(PID.TID 0000.0001)      6 nnnmmmnnnnnnnnnnnmlkklmmmnnnnooppppppqqrssrrqpppppppqrrrrqppppqqqqqqqqqrssssrqqponnnnnmmmm
(PID.TID 0000.0001)      5 llllmmmmmmmmmmmmmnnmllmmllmmmmmmmmnnnnoopqrrqpppooooooopppppppppqqqqqqqqrrpoqqonnnnmmmmmll
(PID.TID 0000.0001)      4 llkllllmlllllllmmmmmmmmmnnnmmmmmmmmmmmmmmnooooonnnnnnnnnnopppppppooooooonm...mmmmmmmmmmmll
(PID.TID 0000.0001)      3 kkkkllllll.............................llmmmnnnnmmmmmmmmmnnnnnnnnmmmmmmll...llmnmmmlllllll
(PID.TID 0000.0001)      2 ...........................................lmmmmllllkkkkklllkkll...lll......lllllllllll...
(PID.TID 0000.0001)      1 ..........................................................................................
(PID.TID 0000.0001) // =======================================================
(PID.TID 0000.0001) // END OF FIELD                                          =
(PID.TID 0000.0001) // =======================================================
(PID.TID 0000.0001) 
(PID.TID 0000.0001) // =======================================================
(PID.TID 0000.0001) // Field Current vVel   at iteration         50
(PID.TID 0000.0001) // CMIN =         -1.103661056423333E-01
(PID.TID 0000.0001) // CMAX =          1.347178962010974E-01
(PID.TID 0000.0001) // CINT =          9.077185253460397E-03
(PID.TID 0000.0001) // SYMBOLS (CMIN->CMAX): -abcdefghijklmnopqrstuvwxyz+
(PID.TID 0000.0001) //                  0.0: .
(PID.TID 0000.0001) // RANGE I (Lo:Hi:Step):(     1:    90:     1)
(PID.TID 0000.0001) // RANGE J (Lo:Hi:Step):(    40:     1:    -1)
(PID.TID 0000.0001) // RANGE K (Lo:Hi:Step):(   1:   1:   1)
(PID.TID 0000.0001) // =======================================================
(PID.TID 0000.0001) K =   1
(PID.TID 0000.0001)                I=10      I=20      I=30      I=40      I=50      I=60      I=70      I=80      I=90
(PID.TID 0000.0001) |--J--|123456789|123456789|123456789|123456789|123456789|123456789|123456789|123456789|123456789|
(PID.TID 0000.0001)     40 lmopo.mmlllllm...ll..................................................................jjkkk
(PID.TID 0000.0001)     39 llmnmlkjjjjkm...........................................................mlkl........ikklll
(PID.TID 0000.0001)     38 lmm.......................................................................kjl......ki.nnll
(PID.TID 0000.0001)     37 mn...................................................................ll...kjl...hkoom.nnll
(PID.TID 0000.0001)     36 nn.........................................nonm....................mkl....hhjl.ggknmmllnnl
(PID.TID 0000.0001)     35 ...................................lllm..mnopqqo...iilno...................hhghhijklkkmq..
(PID.TID 0000.0001)     34 ....................................kii.mmnoooon.lllklmmn...................jefffgiiihlm..
(PID.TID 0000.0001)     33 ....................................mgfhjkklmmmlllkkkllllmm.................tjjhfefggghjm.
(PID.TID 0000.0001)     32 ....................................ojggijjkklkjkkklmmmlkkl................tqkiihghhhghk..
(PID.TID 0000.0001)     31 ....................................nljijjjjjkkkkllmnoonlkl..............pomjiiiiiijiijm..
(PID.TID 0000.0001)     30 ...................................oomkkllkjkllllllnopoomll............qrponllkjkkkkkllm..
(PID.TID 0000.0001)     29 .................................oppnkkklmlkklkkjjklnnnmmllk...........npnmlkjjjkjjjklnn..
(PID.TID 0000.0001)     28 ...............................lnonnljjjklkkjkjjjkkklllkkllkk.........knnlllkjjkkjjjkl....
(PID.TID 0000.0001)     27 ..............lm..............pooonmlkkkkkjkkkjjkkkklllllmmlkk...mmnn.mllllmmmlllmlllm....
(PID.TID 0000.0001)     26 ..............nno...........nprsstsrpppponmnonnnnonnoppqqqppnlkk....opooooppqqppqqqqpp....
(PID.TID 0000.0001)     25 ..............pqrn...nll...opq.vwxyxxxxxvuttttsttttsuvwwxxvtspnlm....rtvsuuutuvwuussss....
(PID.TID 0000.0001)     24 ............nsttsoi.mmkk...nnl..rtyyzz++zyxwwwwwxxwwwxxxyywvtsqppppp.....swxwxyywutuvt....
(PID.TID 0000.0001)     23 ............kmqsspl.gjno...ko...aioqrstvvusrrrrrrrststsstutrqpnnnoopo.......oqsuuttrrr....
(PID.TID 0000.0001)     22 m...........gjnooomkhjno......jf-befgikmmmmlklllnoprrstuuutromklllmnnm........ppprsrpomlnn
(PID.TID 0000.0001)     21 ljj........jlmmkkkkjiloqp......i.ddfggjkkkkkllnopqqrrsuwwvutrpoooonmml.........kmrttsqponm
(PID.TID 0000.0001)     20 hgh.......mosuspljklmmnpm......h......tqpnmnopqrsqqqrqsttssstttsrponnl...........vssrqqpol
(PID.TID 0000.0001)     19 gfj.......movvupjgijklkjiij...hgj.....qponmmmmmnnmlmoooomkkmnmmmlkklml...........spnnnmlli
(PID.TID 0000.0001)     18 hij.......j.vtnheccddghggikmmlh.....lnopmkjjjihijkkkmmkjhhhiihihggikmln..........mljjkjhii
(PID.TID 0000.0001)     17 hjk.......l.mqlhfgggfehhhhjlmn.......npolkjihgghjlmmmlihhgggfghhffgijjj.........kmljjjhefg
(PID.TID 0000.0001)     16 hjl......kk.joljlkjmkijlkjjjl.........lljjjhhhhilnnnmmlkkjjkjjiihhhijkkl........inmkjjhggh
(PID.TID 0000.0001)     15 llnm....knl.gjjjkhimmjkmmmljk.........jkkjjjijjjlmmllmmlklmmmmlkkjkkllmnm......gimmkkllllk
(PID.TID 0000.0001)     14 nopn....lkkifhjjjhhkkjkmnnnml.........jjjjjiiijkkkkjijjiijjjkmlklkllllnol.....jijlmjikkmnm
(PID.TID 0000.0001)     13 mnoo....ffihghjjkihijjjkmmmml.........khhhiiiiijjjjihiihhhhgijjjllkllmop.....ojiijkiiiikll
(PID.TID 0000.0001)     12 mnmmmjeecehhfgjjjjjjjjklmnmmlkkkln....khhhh.kjjjkjiiijjjjiiiiihknnlllmoo.....ljjijjiiiijkl
(PID.TID 0000.0001)     11 oonmlkjiggiljjmnnnmmmmmmnooommmlkln..mkklki.mkllmlkjkkklmllmlkjmpqpnnnnn....jlmmllmlllllno
(PID.TID 0000.0001)     10 srrrqqomkklnnnprsspoopqqrrrrqponmlpr.llnnn..tnmlmmmlmllmopqponnqstsqppon..srmorrqpqpopqqqr
(PID.TID 0000.0001)      9 ttuvvvtqqpprrssqrvspqstuttttsrrrqprtrpppoo.oqoooopoopppqrstsrqqsuutsrqoq.kssqrtvvutsrstttt
(PID.TID 0000.0001)      8 ssttttsssrrsssronstqrstttssrrrsrrrtutqponmprrqqrrrqqqqrtttttrqrrtttssrps.koqrstvutsrrsssrs
(PID.TID 0000.0001)      7 qqpooopqqpppqqponqtrpopqqqppppqrqqrrqonmmnqssrqrssrrqppqrqqqpppqqrrrqqpprsssttrrrqqopqrqqq
(PID.TID 0000.0001)      6 onmlmmnooonnnnnnnopqonnnnmmmnoooonoonmlklmopqqqrqpppomllmnoppooopqqqppqqrssrpnooonnnnoppoo
(PID.TID 0000.0001)      5 mllllllmmlkkllllmmmmmllkjjjklllllllllllkkmnnnnoponnnmlllllmnonmmnooooopooo..ljlmmmmmmmmmmm
(PID.TID 0000.0001)      4 kjijjjjjjj............................kjijklllmnnmmmllllmmmmmmlllmmmmmlkk...mkkllmmmmllkkk
(PID.TID 0000.0001)      3 ..........................................jkkllllllllkllmmlkkjij..llkl.....lmmlmlllkkjj...
(PID.TID 0000.0001)      2 ..........................................................................................
(PID.TID 0000.0001)      1 ..........................................................................................
(PID.TID 0000.0001) // =======================================================
(PID.TID 0000.0001) // END OF FIELD                                          =
(PID.TID 0000.0001) // =======================================================
(PID.TID 0000.0001) 
(PID.TID 0000.0001) // =======================================================
(PID.TID 0000.0001) // Field Current theta  at iteration         50
(PID.TID 0000.0001) // CMIN =         -1.984535662643651E+00
(PID.TID 0000.0001) // CMAX =          3.039633575499199E+01
(PID.TID 0000.0001) // CINT =          1.199291533986505E+00
(PID.TID 0000.0001) // SYMBOLS (CMIN->CMAX): -abcdefghijklmnopqrstuvwxyz+
(PID.TID 0000.0001) //                  0.0: .
(PID.TID 0000.0001) // RANGE I (Lo:Hi:Step):(     1:    90:     1)
(PID.TID 0000.0001) // RANGE J (Lo:Hi:Step):(    40:     1:    -1)
(PID.TID 0000.0001) // RANGE K (Lo:Hi:Step):(   1:   1:   1)
(PID.TID 0000.0001) // =======================================================
(PID.TID 0000.0001) K =   1
(PID.TID 0000.0001)                I=10      I=20      I=30      I=40      I=50      I=60      I=70      I=80      I=90
(PID.TID 0000.0001) |--J--|123456789|123456789|123456789|123456789|123456789|123456789|123456789|123456789|123456789|
(PID.TID 0000.0001)     40 -bbccbaa------abdddbbbbbbbbbbbbbbbbbbbbbbbbbbbbbbbbbbbbbbbbbbbbbbbbbbbbbbbbbbbbbbbbbbaaa--
(PID.TID 0000.0001)     39 bbcdcccbba----bbbddbbbbbbbbbbbbbbbbbbbbbbbbbbbbbbbbbbbbbbbbbbbbbbbbbbbbb----bbbbbbbbbaaaab
(PID.TID 0000.0001)     38 eeefeeccccbaabbbbbbbbbbbbbbbbbbbbbbbbbbbbbbbbbbbbbbbbbbbbbbbbbbbbbbbbbbb-----bbbbbbb---bcd
(PID.TID 0000.0001)     37 fggbbbbbbbbbbbbbbbbbbbbbbbbbbbbbbbbbbbbbbbbbbbbbbbbbbbbbbbbbbbbbbbbbbbbbbbaabbbbcbcdebcdde
(PID.TID 0000.0001)     36 ggbbbbbbbbbbbbbbbbbbbbbbbbbbbbbbbbbbbbbbbbbca--bbbbbbbbbbbbbbbbbbbbccccbababbdbcefgghhhhgg
(PID.TID 0000.0001)     35 fgbbbbbbbbbbbbbbbbbbbbbbbbbbbbbbbbb----bbbbcccbabbbddeefbbbbbbbbbbbbbbbbbbbcdedeefghiiiihg
(PID.TID 0000.0001)     34 bbbbbbbbbbbbbbbbbbbbbbbbbbbbbbbbbbb----bbccccdddbcddeefffbbbbbbbbbbbbbbbbbbbacdefghiijjibb
(PID.TID 0000.0001)     33 bbbbbbbbbbbbbbbbbbbbbbbbbbbbbbbbbbbb--abccddddddeeeefffgggibbbbbbbbbbbbbbbbbaacgiijkkkkkjb
(PID.TID 0000.0001)     32 bbbbbbbbbbbbbbbbbbbbbbbbbbbbbbbbbbbb-abbcddeeeeffgggghhhhiibbbbbbbbbbbbbbbbcbacjklllllkkkb
(PID.TID 0000.0001)     31 bbbbbbbbbbbbbbbbbbbbbbbbbbbbbbbbbbbbdefggghhiiiiiiiijjkkkjkbbbbbbbbbbbbbbgjkjikmnnnmmmlmbb
(PID.TID 0000.0001)     30 bbbbbbbbbbbbbbbbbbbbbbbbbbbbbbbbbbblkkkkkklllllllllllmmmmllbbbbbbbbbbbbmnoppppppppooonnnbb
(PID.TID 0000.0001)     29 bbbbbbbbbbbbbbbbbbbbbbbbbbbbbbbbbnonoonnnnnnnnnnnnnnooooonmmbbbbbbbbbbbpqqqqqqqqpqpppooobb
(PID.TID 0000.0001)     28 bbbbbbbbbbbbbbbbbbbbbbbbbbbbbbbnpppqpppppqqppqqpqqqqqqqqpponnbbbbbbbbbrrrrrrrrqqrrqqppppbb
(PID.TID 0000.0001)     27 bbbbbbbbbbbbbbuubbbbbbbbbbbbbbqrrrrssssrssssssssssssssrrrqppppbbbsrstbtttttttttsssrrrqbbbb
(PID.TID 0000.0001)     26 bbbbbbbbbbbbbbutubbbbbbbbbbbttttttuuuuuuuuuuuuuuuuuuttsssrrqrrsubttuvvvvvvvuuuuuttssrqbbbb
(PID.TID 0000.0001)     25 bbbbbbbbbbbbbbuuvwbbbwvwbbbuuvvwvvwwwwwwwwvvvvvvvvvuuutttsssttuvwbbbwwvvvvvuuvuuttsrqpbbbb
(PID.TID 0000.0001)     24 bbbbbbbbbbbbvvvvwxybwwwxbbbwwvbxwwxxxwwwwwwwwwwwwvvvvvvvuuuvvvwwwvvvbwvvvvvvvvvuuuttsrbbbb
(PID.TID 0000.0001)     23 bbbbbbbbbbbbwwwxxyybwwxxbbbxwwbbxxxxxxxxxxxxxxwwwwwwwxwwwwwwwwwwwwwwvbbbbwwwwwwvvvvvvvbbbb
(PID.TID 0000.0001)     22 wbbbbbbbbbbbwwxxxyyyxxyybbbxxbyyyyyyyyyyyyyyxxxxxxxxxxxwwwwwxwwwwwwwvwbbbbbbxxwwwwxxxyyxww
(PID.TID 0000.0001)     21 wwwbbbbbbbbxxxxxyyyyyzz++bbbbbyyzzzzzzzzzzzzyyyyyyyyyyxxwwxxxwwwwwvvvwbbbbbbbbyxxyyyyzyxxw
(PID.TID 0000.0001)     20 xwvbbbbbbbyyyyyyyzzzzzzz+bbbbbbzbzzzzz+++++zzzzzzzyzyyyyxxxxxxxxwwwwvvbbbbbbbbbyyyyyyyyxyx
(PID.TID 0000.0001)     19 wwvbbbbbbbzzzzzzzzyzzzzzzzybbbzzzbbbbb++z+++zzzzzzzzyyyyxxxxxxwwwwwwvvbbbbbbbbbbbyyxxxwwwx
(PID.TID 0000.0001)     18 vutbbbbbbbzzzyxyyxyyyyyyzzzyzz+zzbbb++zz+++zzzzzzzzzzyyyyyxxxwwwvvvvvvubbbbbbbbbbyyxxwwwww
(PID.TID 0000.0001)     17 uusbbbbbbbzbyyxxxxxyyyyxyyyyyzzbbbbbzzzzzz+zzzzzzzzzzyyyyyxxxwwvuuvuutvbbbbbbbbbyyyyxwuvvu
(PID.TID 0000.0001)     16 utsbbbbbbyzbyyxxxxxxxxxwwxxxyzbbbbbbbyyyyzyzzzzzyyyyyyyyxxyxxxwwvvvuutttbbbbbbbbyyyyxwvvvu
(PID.TID 0000.0001)     15 tsrrbbbbxxybxxxxxwwwwwwwvvvwxbbbbbbbbbwxxxxxxxxxxxxxyyxyyyyyxwwwwvvuttssrbbbbbbxxyxxyxxwvu
(PID.TID 0000.0001)     14 utrqbbbbxyxwwxwvwxwvvuuuuuuuubbbbbbbbbwwwwwwwwwwwxxxxxxwxxxxxwwwvvvvtssssbbbbbwwxxxxxxwwvu
(PID.TID 0000.0001)     13 uutrbbbbwxwwwwuuuvvvvuuttttttbbbbbbbbbvvvvvvvvvvvvuuvvvvvwwxxwwvvuuuusssqbbbbvwwwwwwwwwvvu
(PID.TID 0000.0001)     12 tstsssstuvuttutssssstutrrsssrqqrrqbbbbuuuutttttssssstsssstuvuutttsttssrrbbbbbuvvvutuuuuttt
(PID.TID 0000.0001)     11 qpqqrrssssrrrsrqqqppqrrpqqqppqqqqqqbbtttsssbrrrqrrrrrrrrrrssqqrrrrrssrqpbbbbprttssrrsrrqqq
(PID.TID 0000.0001)     10 mmmmnooppppppponnnnnnnnmmnmmmnooopppbqrrqqqbpqqqqqqpppppppppoopppooppppobboopppppoooopponn
(PID.TID 0000.0001)      9 jjiijjjkkkkkkkkjjijjkjjiijjjjjkllnnmmnooopbnnoooooooooooonnmmmnnmmlmmnnmbmnnnnmmmllkkllkjj
(PID.TID 0000.0001)      8 ggggggghgghhiihhggghhihgghhhhijjjjkkkklmmmmllllllllmmmllllkkkkkllkkkkklkbkllkkkjiiihhhggff
(PID.TID 0000.0001)      7 eeeeeeffggfffggfffffffeeffggggghhhhhiiijkkkjjjkkkjjiiiiiiijiiiiiiiiijjjjijjjiihhgfffffeeee
(PID.TID 0000.0001)      6 cdddeeeeeeeeeefeeeeeeeeffeeedeffffffggghhiiihhiiihgfffgfgggggffghhhhhhhhhhhhggffeedddddddd
(PID.TID 0000.0001)      5 dddeeeddddeeeeeeeeeeeeeedddeeeeeeeeeeeffffggfffffeddddeeeeeeeeeffffffffffffeeeddddddcccccd
(PID.TID 0000.0001)      4 ddddddccccccccccccdcccccbbbcccccccccccddddddddccddddddddddddddddddddddddddbbbbbccccdcccccd
(PID.TID 0000.0001)      3 ccccbbbaaabbbbbbbbbbbbbbbbbbbbbbbbbbbbbbbbbcccccccccccccbbbbbbbbbbbbbbbbbbbbbaaabbcccccbbb
(PID.TID 0000.0001)      2 bbbbbbbbbbbbbbbbbbbbbbbbbbbbbbbbbbbbbbbbbbbcccccbbbbbaaaaaaaaababbaaaabbbbbaaaaabbbbbbbbbb
(PID.TID 0000.0001)      1 bbbbbbbbbbbbbbbbbbbbbbbbbbbbbbbbbbbbbbbbbbbbbbbbbbbbbbbbbbbbbbbbbbbbbbbbbbbbbbbbbbbbbbbbbb
(PID.TID 0000.0001) // =======================================================
(PID.TID 0000.0001) // END OF FIELD                                          =
(PID.TID 0000.0001) // =======================================================
(PID.TID 0000.0001) 
(PID.TID 0000.0001) // =======================================================
(PID.TID 0000.0001) // Field Current etaN   at iteration         50
(PID.TID 0000.0001) // CMIN =         -1.795975451165198E+00
(PID.TID 0000.0001) // CMAX =          9.394363952028154E-01
(PID.TID 0000.0001) // CINT =          1.013115498654820E-01
(PID.TID 0000.0001) // SYMBOLS (CMIN->CMAX): -abcdefghijklmnopqrstuvwxyz+
(PID.TID 0000.0001) //                  0.0: .
(PID.TID 0000.0001) // RANGE I (Lo:Hi:Step):(    -1:    92:     1)
(PID.TID 0000.0001) // RANGE J (Lo:Hi:Step):(    42:    -1:    -1)
(PID.TID 0000.0001) // RANGE K (Lo:Hi:Step):(   1:   1:   1)
(PID.TID 0000.0001) // =======================================================
(PID.TID 0000.0001) K =   1
(PID.TID 0000.0001)                I=8       I=18      I=28      I=38      I=48      I=58      I=68      I=78      I=88
(PID.TID 0000.0001) |--J--|101234567|901234567|901234567|901234567|901234567|901234567|901234567|901234567|901234567|9012
(PID.TID 0000.0001)     42 ............................................dddccccddddddddccccccc..eeee.....bbaaaaaaaa--.....
(PID.TID 0000.0001)     41 ..............................................................................................
(PID.TID 0000.0001)     40 fffffgh.jiiihhhgggggg..................................................................fffffff
(PID.TID 0000.0001)     39 fffffghhihhhgggg...hh.....................................................aaaa........efffffff
(PID.TID 0000.0001)     38 ffgghhhhhihhhhh...........................................................bbbba......gfeffffgg
(PID.TID 0000.0001)     37 ggghi..................................................................hg...dcb...dddee.fggggh
(PID.TID 0000.0001)     36 ghhi.........................................nnnn....................jiihgfedccb.eccdefgggghhi
(PID.TID 0000.0001)     35 iiii.................................qqqq..nnnnnnm...pooop...........lkk....ecbbccccdefghhiiii
(PID.TID 0000.0001)     34 .....................................rqqq.oonnnnno.ponnooqr..................ffedddeeghhil....
(PID.TID 0000.0001)     33 j.....................................rqpooooonooooooooppqrst.................ihgggghijjjjj...
(PID.TID 0000.0001)     32 l.....................................srqpppppppqppqppqqrrrss................fjjijjkkkllkkl...
(PID.TID 0000.0001)     31 ......................................srrqqqqqqrrrrrrrrsssttt..............mmnnmllllllllll....
(PID.TID 0000.0001)     30 .....................................ttttsssssssssssssttttutt............looopppoonnmmmmmm....
(PID.TID 0000.0001)     29 ...................................uwwxwwvvvvuuuuuuuuuuuuuuutt...........oqrrqqqppoonnmmmm....
(PID.TID 0000.0001)     28 .................................uwxyyyyyxxxxwwwwvvvvvvvvvuuutt.........qqrrqqqqppoonnnmmm....
(PID.TID 0000.0001)     27 ................pq..............xxxyzzzzzyyyyxxxxwwwwwvvvvvuuutt...popp.qrrrrqqppooonnnm......
(PID.TID 0000.0001)     26 ................qqq...........yxyyyzzzzzzzzzyyyxxxxxxwwwvvvuuuuttu.pppqrrsrrrrqqppooonnm......
(PID.TID 0000.0001)     25 ................qqrs...tts...yyxyzzzzyyyyzyyyyyxxxxwwwwwvvvuuuuuuuv...rssssrrqqqppooonnn......
(PID.TID 0000.0001)     24 ..............rrrrsst.uttt...zyy.+zyyyxxxyyyxxxxwwwwwvvvvvuuuuvvvvvvvu.sssrrqqqqpppoooon......
(PID.TID 0000.0001)     23 ..............srrrstt.uttt...zzy..zyyxxxxxxxxxxxwwxwwwwvvvvvuuuvvvuuuvu....qqqrqqppppppp......
(PID.TID 0000.0001)     22 pqq...........srrrsssttttu...zz.yyzzyyyyyyyyxxxxxxxxxxwwwwvvvvvvuvuuuvvv......rrqqqppqqqqppqq.
(PID.TID 0000.0001)     21 qpppp........sssssssstuuuvu.....yyzzyyyyyzzyyyyyyxxxxxxxxwwvvvvvvvuuuuvv........rqqqqqqqqpqppp
(PID.TID 0000.0001)     20 qqppp.......tttttttttuuuuuv......x.xxxyyzyyyyyyyxxxxxxxwwwwwwvvvvvuuuuuu.........rrrrqqqppqqpp
(PID.TID 0000.0001)     19 ppppp.......uuuttuuuuuuuuuuuu...vxx.....zyyyyyyyxyyxxxxwwwwwwvvvvvuuuuuu...........srrqqqppppp
(PID.TID 0000.0001)     18 ppppo.......uuuuttttttuuutuuuuuvvww...zzyxxyxxyxxxyxxxxxwwwwwwvvvuuuuuuut..........trrqqpppppp
(PID.TID 0000.0001)     17 ppooo.......u.wuutttuuuuuuuuuuuuu.....zyxxxxxxxxxxxxxxxxwwwwwwwvvvuuuuuuu.........utsrqqppppoo
(PID.TID 0000.0001)     16 pppoo......wv.xwvuuvvvvuuuutttuu.......yxxxxxxxxxxxxyyyxxxxxxxwwwvvvvvuttt........ttsrrrqqpppo
(PID.TID 0000.0001)     15 qqppon....vvt.wwvvvvvvuuuuttsst.........wvvwwwxxxxxxyyyxxxyyyxxxwwvvvvuutss......sstssssrrqqpp
(PID.TID 0000.0001)     14 srqqpo....uuttuvuuuuvutttttsrrq.........vuuvvvwwwwwwwxxxxxyyyyyyxwwwwvvuuss.....qrssssttsssrqq
(PID.TID 0000.0001)     13 ssrqqp....tuuuuuutttuttttutsrqp.........sttuuuuuvvvvvvvwwwxxxxyyxxwwwvvutss....qrrssssttttssrq
(PID.TID 0000.0001)     12 ssrqqpompqsutttuuttststtttsrrqqqqqpp....rssssttttttttuuuuvvvwwwwwxwwvvuuts.....rrrssrsssssssrq
(PID.TID 0000.0001)     11 rrqqppopqqrttttuutsssssssssrrqqqqqqqr..qrrrrr.rstttsttuuuuuuvvvvwwwvuuutss....prrrrrqqqrrrrrqq
(PID.TID 0000.0001)     10 poonnnnnnnopqppqrqqpppqqqqqqppppppqqrr.qrrqqq.qrsssstttuuuuuuuuuvwvutttsss..qoqrqpoooooopppoon
(PID.TID 0000.0001)      9 llllllkjjjkkklkklllkklmnnnnnnnnnoopqrrqqqqqq.trrssttttttuuvuutttuuutsssrrq.usqpppnmllkklllllll
(PID.TID 0000.0001)      8 gghhhhgfffffghhhhhjhghijjjjjkkkllmmnopoppqrsusrrrrrrrssssssssrsssttsrrrrsv.urponmkiihhhhhggghh
(PID.TID 0000.0001)      7 dddddcdddddeeeeffghigeeffgggghhiiijjjiijkmoppppooonnnnooppppppppqqqqqqqqqssrqpnljigfeeeeeddddd
(PID.TID 0000.0001)      6 bbaaabbcccccddddefgggfeeeeeffggggffffffghiklmmllkkkjjiiijkllmmmmmnnnnnnnnnnmljihfeeddddcccbbaa
(PID.TID 0000.0001)      5 aaaaabbccccccccddeeeeeddddddeeeeedddeeeeeffghhhhhgffffeffghijjjijjjjjiiiiihgedccccbbbbbbbaaaaa
(PID.TID 0000.0001)      4 aaaabbbbccccddddeeeeeeeeeefeeeeeeeeddddddddeeeeeeeddddddeefffffffggggffffeef..-aaaaaaaaaaaaaaa
(PID.TID 0000.0001)      3 bbbbcccccccc............................dddddddddddddcddddddddddddeeeeeeefe..cbbaaaaaaaaaabbbb
(PID.TID 0000.0001)      2 ............................................dddccccddddddddccccccc..eeee.....bbaaaaaaaa--.....
(PID.TID 0000.0001)      1 ..............................................................................................
(PID.TID 0000.0001)      0 fffffgh.jiiihhhgggggg..................................................................fffffff
(PID.TID 0000.0001)     -1 fffffghhihhhgggg...hh.....................................................aaaa........efffffff
(PID.TID 0000.0001) // =======================================================
(PID.TID 0000.0001) // END OF FIELD                                          =
(PID.TID 0000.0001) // =======================================================
(PID.TID 0000.0001) 
(PID.TID 0000.0001)  MDS_WRITE_FIELD: it,rec,kS,kL,kH=      50     1  15   1  15 file=U.0000000050
(PID.TID 0000.0001)  MDS_WRITE_FIELD: it,rec,kS,kL,kH=      50     1  15   1  15 file=V.0000000050
(PID.TID 0000.0001)  MDS_WRITE_FIELD: it,rec,kS,kL,kH=      50     1  15   1  15 file=T.0000000050
(PID.TID 0000.0001)  MDS_WRITE_FIELD: it,rec,kS,kL,kH=      50     1  15   1  15 file=S.0000000050
(PID.TID 0000.0001)  MDS_WRITE_FIELD: it,rec,kS,kL,kH=      50     1   1   1   1 file=Eta.0000000050
(PID.TID 0000.0001)  MDS_WRITE_FIELD: it,rec,kS,kL,kH=      50     1  15   1  15 file=W.0000000050
(PID.TID 0000.0001)  MDS_WRITE_FIELD: it,rec,kS,kL,kH=      50     1  15   1  15 file=PH.0000000050
(PID.TID 0000.0001)  MDS_WRITE_FIELD: it,rec,kS,kL,kH=      50     1   1   1   1 file=PHL.0000000050
(PID.TID 0000.0001)  MDS_WRITE_FIELD: it,rec,kS,kL,kH=      50     1   1   1   1 file=ETAtave.0000000050
(PID.TID 0000.0001)  MDS_WRITE_FIELD: it,rec,kS,kL,kH=      50     1  15   1  15 file=Ttave.0000000050
(PID.TID 0000.0001)  MDS_WRITE_FIELD: it,rec,kS,kL,kH=      50     1  15   1  15 file=Stave.0000000050
(PID.TID 0000.0001)  MDS_WRITE_FIELD: it,rec,kS,kL,kH=      50     1  15   1  15 file=uVeltave.0000000050
(PID.TID 0000.0001)  MDS_WRITE_FIELD: it,rec,kS,kL,kH=      50     1  15   1  15 file=vVeltave.0000000050
(PID.TID 0000.0001)  MDS_WRITE_FIELD: it,rec,kS,kL,kH=      50     1  15   1  15 file=wVeltave.0000000050
(PID.TID 0000.0001)  MDS_WRITE_FIELD: it,rec,kS,kL,kH=      50     1   1   1   1 file=Eta2tave.0000000050
(PID.TID 0000.0001)  MDS_WRITE_FIELD: it,rec,kS,kL,kH=      50     1  15   1  15 file=UTtave.0000000050
(PID.TID 0000.0001)  MDS_WRITE_FIELD: it,rec,kS,kL,kH=      50     1  15   1  15 file=VTtave.0000000050
(PID.TID 0000.0001)  MDS_WRITE_FIELD: it,rec,kS,kL,kH=      50     1  15   1  15 file=WTtave.0000000050
(PID.TID 0000.0001)  MDS_WRITE_FIELD: it,rec,kS,kL,kH=      50     1  15   1  15 file=UStave.0000000050
(PID.TID 0000.0001)  MDS_WRITE_FIELD: it,rec,kS,kL,kH=      50     1  15   1  15 file=VStave.0000000050
(PID.TID 0000.0001)  MDS_WRITE_FIELD: it,rec,kS,kL,kH=      50     1  15   1  15 file=WStave.0000000050
(PID.TID 0000.0001)  MDS_WRITE_FIELD: it,rec,kS,kL,kH=      50     1  15   1  15 file=TTtave.0000000050
(PID.TID 0000.0001)  MDS_WRITE_FIELD: it,rec,kS,kL,kH=      50     1  15   1  15 file=UUtave.0000000050
(PID.TID 0000.0001)  MDS_WRITE_FIELD: it,rec,kS,kL,kH=      50     1  15   1  15 file=VVtave.0000000050
(PID.TID 0000.0001)  MDS_WRITE_FIELD: it,rec,kS,kL,kH=      50     1  15   1  15 file=UVtave.0000000050
(PID.TID 0000.0001)  MDS_WRITE_FIELD: it,rec,kS,kL,kH=      50     1  15   1  15 file=Tdiftave.0000000050
(PID.TID 0000.0001)  MDS_WRITE_FIELD: it,rec,kS,kL,kH=      50     1  15   1  15 file=PhHytave.0000000050
(PID.TID 0000.0001)  MDS_WRITE_FIELD: it,rec,kS,kL,kH=      50     1   1   1   1 file=PHLtave.0000000050
(PID.TID 0000.0001)  MDS_WRITE_FIELD: it,rec,kS,kL,kH=      50     1   1   1   1 file=uFluxtave.0000000050
(PID.TID 0000.0001)  MDS_WRITE_FIELD: it,rec,kS,kL,kH=      50     1   1   1   1 file=vFluxtave.0000000050
(PID.TID 0000.0001)  MDS_WRITE_FIELD: it,rec,kS,kL,kH=      50     1   1   1   1 file=tFluxtave.0000000050
(PID.TID 0000.0001)  MDS_WRITE_FIELD: it,rec,kS,kL,kH=      50     1   1   1   1 file=sFluxtave.0000000050
(PID.TID 0000.0001)  MDS_WRITE_FIELD: it,rec,kS,kL,kH=      50     1   1   1   1 file=PHL2tave.0000000050
(PID.TID 0000.0001)  MDS_WRITE_FIELD: it,rec,kS,kL,kH=      50     1  15   1  15 file=Convtave.0000000050
(PID.TID 0000.0001) // Time-average data written, t-step        50
(PID.TID 0000.0001) 
(PID.TID 0000.0001)  MDS_WRITE_FIELD: it,rec,kS,kL,kH=      50     1  15   1  15 file=GM_Kwx-T.0000000050
(PID.TID 0000.0001)  MDS_WRITE_FIELD: it,rec,kS,kL,kH=      50     1  15   1  15 file=GM_Kwy-T.0000000050
(PID.TID 0000.0001)  MDS_WRITE_FIELD: it,rec,kS,kL,kH=      50     1  15   1  15 file=GM_Kwz-T.0000000050
(PID.TID 0000.0001)  MDS_WRITE_FIELD: it,rec,kS,kL,kH=      50     1  15   1  15 file=pickup_cd.0000000050
(PID.TID 0000.0001)  MDS_WRITE_FIELD: it,rec,kS,kL,kH=      50     2  15   1  15 file=pickup_cd.0000000050
(PID.TID 0000.0001)  MDS_WRITE_FIELD: it,rec,kS,kL,kH=      50     3  15   1  15 file=pickup_cd.0000000050
(PID.TID 0000.0001)  MDS_WRITE_FIELD: it,rec,kS,kL,kH=      50     4  15   1  15 file=pickup_cd.0000000050
(PID.TID 0000.0001)  MDS_WRITE_FIELD: it,rec,kS,kL,kH=      50    61   1   1   1 file=pickup_cd.0000000050
(PID.TID 0000.0001)  MDS_WRITE_FIELD: it,rec,kS,kL,kH=      50    -1  15   1  15 file=pickup.0000000050
(PID.TID 0000.0001)  MDS_WRITE_FIELD: it,rec,kS,kL,kH=      50    -2  15   1  15 file=pickup.0000000050
(PID.TID 0000.0001)  MDS_WRITE_FIELD: it,rec,kS,kL,kH=      50    -3  15   1  15 file=pickup.0000000050
(PID.TID 0000.0001)  MDS_WRITE_FIELD: it,rec,kS,kL,kH=      50    -4  15   1  15 file=pickup.0000000050
(PID.TID 0000.0001)  MDS_WRITE_FIELD: it,rec,kS,kL,kH=      50    -5  15   1  15 file=pickup.0000000050
(PID.TID 0000.0001)  MDS_WRITE_FIELD: it,rec,kS,kL,kH=      50    -6  15   1  15 file=pickup.0000000050
(PID.TID 0000.0001)  MDS_WRITE_FIELD: it,rec,kS,kL,kH=      50    -7  15   1  15 file=pickup.0000000050
(PID.TID 0000.0001)  MDS_WRITE_FIELD: it,rec,kS,kL,kH=      50    -8  15   1  15 file=pickup.0000000050
(PID.TID 0000.0001)  MDS_WRITE_FIELD: it,rec,kS,kL,kH=      50  -121   1   1   1 file=pickup.0000000050
(PID.TID 0000.0001)  MDS_WRITE_FIELD: it,rec,kS,kL,kH=      50  -122   1   1   1 file=pickup.0000000050
(PID.TID 0000.0001)  MDS_WRITE_FIELD: it,rec,kS,kL,kH=      50  -123   1   1   1 file=pickup.0000000050
(PID.TID 0000.0001) %CHECKPOINT        50 0000000050
 EXTERNAL_FIELDS_LOAD,        50 : iP,iLd,i0,i1=    2    3    2    3 ; Wght=  0.8333333333  0.1666666667
 EXTERNAL_FIELDS_LOAD: (fu0,1),fu,fv= -1.4435E-02 -2.7199E-02 -1.6562E-02 -1.4793E-02
 EXTERNAL_FIELDS_LOAD: SST,SSS,Q,E-P= -4.7386E-01  3.4447E+01  2.3630E+02  8.4945E-06
DEBUG_STATS_RL:          Uvel (THERMODYNAMICS)  min= -1.53207254532232E-01
DEBUG_STATS_RL:          Uvel (THERMODYNAMICS)  max=  1.83211415035889E-01
DEBUG_STATS_RL:          Uvel (THERMODYNAMICS) mean=  3.38796304070979E-03
DEBUG_STATS_RL:          Uvel (THERMODYNAMICS) S.D.=  2.49070525965005E-02
DEBUG_STATS_RL:          Vvel (THERMODYNAMICS)  min= -1.10366105642333E-01
DEBUG_STATS_RL:          Vvel (THERMODYNAMICS)  max=  1.34717896201097E-01
DEBUG_STATS_RL:          Vvel (THERMODYNAMICS) mean=  1.59221369786425E-03
DEBUG_STATS_RL:          Vvel (THERMODYNAMICS) S.D.=  1.55573680449160E-02
DEBUG_STATS_RL:          Wvel (THERMODYNAMICS)  min= -1.36371500344162E-04
DEBUG_STATS_RL:          Wvel (THERMODYNAMICS)  max=  1.38038439213594E-04
DEBUG_STATS_RL:          Wvel (THERMODYNAMICS) mean=  1.86485917958149E-08
DEBUG_STATS_RL:          Wvel (THERMODYNAMICS) S.D.=  1.39368563651812E-05
DEBUG_STATS_RL:         Theta (THERMODYNAMICS)  min= -1.98263552858228E+00
DEBUG_STATS_RL:         Theta (THERMODYNAMICS)  max=  3.04051122757074E+01
DEBUG_STATS_RL:         Theta (THERMODYNAMICS) mean=  3.23798736493840E+00
DEBUG_STATS_RL:         Theta (THERMODYNAMICS) S.D.=  5.87196661117696E+00
DEBUG_STATS_RL:          Salt (THERMODYNAMICS)  min=  2.00000000000000E-02
DEBUG_STATS_RL:          Salt (THERMODYNAMICS)  max=  3.74821011519077E+01
DEBUG_STATS_RL:          Salt (THERMODYNAMICS) mean=  1.88649370859149E+01
DEBUG_STATS_RL:          Salt (THERMODYNAMICS) S.D.=  1.73004545805020E+01
DEBUG_STATS_RL:         GtNm1 (THERMODYNAMICS)  min= -4.97555389978392E-06
DEBUG_STATS_RL:         GtNm1 (THERMODYNAMICS)  max=  2.77398693954449E-06
DEBUG_STATS_RL:         GtNm1 (THERMODYNAMICS) mean=  5.15647712452495E-09
DEBUG_STATS_RL:         GtNm1 (THERMODYNAMICS) S.D.=  1.99121266441473E-07
DEBUG_STATS_RL:         GsNm1 (THERMODYNAMICS)  min= -4.63408711674654E-07
DEBUG_STATS_RL:         GsNm1 (THERMODYNAMICS)  max=  3.18571767446660E-07
DEBUG_STATS_RL:         GsNm1 (THERMODYNAMICS) mean= -7.78067013526250E-11
DEBUG_STATS_RL:         GsNm1 (THERMODYNAMICS) S.D.=  1.96409526589636E-08
DEBUG_STATS_RL:                EtaN (DYNAMICS)  min= -1.79597545116520E+00
DEBUG_STATS_RL:                EtaN (DYNAMICS)  max=  9.39436395202816E-01
DEBUG_STATS_RL:                EtaN (DYNAMICS) mean= -1.85348558613038E-01
DEBUG_STATS_RL:                EtaN (DYNAMICS) S.D.=  7.12882119520537E-01
DEBUG_STATS_RL:                Uvel (DYNAMICS)  min= -1.53207254532232E-01
DEBUG_STATS_RL:                Uvel (DYNAMICS)  max=  1.83211415035889E-01
DEBUG_STATS_RL:                Uvel (DYNAMICS) mean=  3.38796304070979E-03
DEBUG_STATS_RL:                Uvel (DYNAMICS) S.D.=  2.49070525965005E-02
DEBUG_STATS_RL:                Vvel (DYNAMICS)  min= -1.10366105642333E-01
DEBUG_STATS_RL:                Vvel (DYNAMICS)  max=  1.34717896201097E-01
DEBUG_STATS_RL:                Vvel (DYNAMICS) mean=  1.59221369786425E-03
DEBUG_STATS_RL:                Vvel (DYNAMICS) S.D.=  1.55573680449160E-02
DEBUG_STATS_RL:                Wvel (DYNAMICS)  min= -1.36371500344162E-04
DEBUG_STATS_RL:                Wvel (DYNAMICS)  max=  1.38038439213594E-04
DEBUG_STATS_RL:                Wvel (DYNAMICS) mean=  1.86485917958149E-08
DEBUG_STATS_RL:                Wvel (DYNAMICS) S.D.=  1.39368563651812E-05
DEBUG_STATS_RL:               Theta (DYNAMICS)  min= -1.98263552858228E+00
DEBUG_STATS_RL:               Theta (DYNAMICS)  max=  3.04051122757074E+01
DEBUG_STATS_RL:               Theta (DYNAMICS) mean=  3.23798736493840E+00
DEBUG_STATS_RL:               Theta (DYNAMICS) S.D.=  5.87196661117696E+00
DEBUG_STATS_RL:                Salt (DYNAMICS)  min=  2.00000000000000E-02
DEBUG_STATS_RL:                Salt (DYNAMICS)  max=  3.74821011519077E+01
DEBUG_STATS_RL:                Salt (DYNAMICS) mean=  1.88649370859149E+01
DEBUG_STATS_RL:                Salt (DYNAMICS) S.D.=  1.73004545805020E+01
DEBUG_STATS_RL:                  Gu (DYNAMICS)  min= -1.50856637154015E-01
DEBUG_STATS_RL:                  Gu (DYNAMICS)  max=  1.86920514249939E-01
DEBUG_STATS_RL:                  Gu (DYNAMICS) mean=  3.50217069382298E-03
DEBUG_STATS_RL:                  Gu (DYNAMICS) S.D.=  2.49029307691765E-02
DEBUG_STATS_RL:                  Gv (DYNAMICS)  min= -1.09229598076865E-01
DEBUG_STATS_RL:                  Gv (DYNAMICS)  max=  1.38303994733101E-01
DEBUG_STATS_RL:                  Gv (DYNAMICS) mean=  3.73362754272072E-03
DEBUG_STATS_RL:                  Gv (DYNAMICS) S.D.=  1.69280584027898E-02
DEBUG_STATS_RL:               GuNm1 (DYNAMICS)  min= -9.58896298696671E-06
DEBUG_STATS_RL:               GuNm1 (DYNAMICS)  max=  8.98462259659105E-06
DEBUG_STATS_RL:               GuNm1 (DYNAMICS) mean=  1.45945498007116E-09
DEBUG_STATS_RL:               GuNm1 (DYNAMICS) S.D.=  1.18866817343250E-06
DEBUG_STATS_RL:               GvNm1 (DYNAMICS)  min= -9.32930893890749E-06
DEBUG_STATS_RL:               GvNm1 (DYNAMICS)  max=  1.64548336416623E-05
DEBUG_STATS_RL:               GvNm1 (DYNAMICS) mean=  7.43887066065065E-07
DEBUG_STATS_RL:               GvNm1 (DYNAMICS) S.D.=  2.61181259272980E-06
DEBUG_STATS_RL:               GtNm1 (DYNAMICS)  min= -4.97555389978392E-06
DEBUG_STATS_RL:               GtNm1 (DYNAMICS)  max=  2.77398693954449E-06
DEBUG_STATS_RL:               GtNm1 (DYNAMICS) mean=  5.15647712452495E-09
DEBUG_STATS_RL:               GtNm1 (DYNAMICS) S.D.=  1.99121266441473E-07
DEBUG_STATS_RL:               GsNm1 (DYNAMICS)  min= -4.63408711674654E-07
DEBUG_STATS_RL:               GsNm1 (DYNAMICS)  max=  3.18571767446660E-07
DEBUG_STATS_RL:               GsNm1 (DYNAMICS) mean= -7.78067013526250E-11
DEBUG_STATS_RL:               GsNm1 (DYNAMICS) S.D.=  1.96409526589636E-08
DEBUG_STATS_RL:    cg2d_b (SOLVE_FOR_PRESSURE)  min= -2.26931783154174E+04
DEBUG_STATS_RL:    cg2d_b (SOLVE_FOR_PRESSURE)  max=  2.23727117749133E+04
DEBUG_STATS_RL:    cg2d_b (SOLVE_FOR_PRESSURE) mean=  3.69002117479488E+00
DEBUG_STATS_RL:    cg2d_b (SOLVE_FOR_PRESSURE) S.D.=  3.79129309159661E+03
 cg2d: Sum(rhs),rhsMax =   3.76430260271035E-01  1.49054871105571E+00
(PID.TID 0000.0001)  cg2d: iter=     1 ; resid.=  2.48530478785369E-01
(PID.TID 0000.0001)  cg2d: iter=     2 ; resid.=  2.60589515562372E-01
(PID.TID 0000.0001)  cg2d: iter=     3 ; resid.=  2.44254299942186E-01
(PID.TID 0000.0001)  cg2d: iter=     4 ; resid.=  2.12954801913632E-01
(PID.TID 0000.0001)  cg2d: iter=     5 ; resid.=  2.20303842947525E-01
(PID.TID 0000.0001)  cg2d: iter=     6 ; resid.=  1.89357792602781E-01
(PID.TID 0000.0001)  cg2d: iter=     7 ; resid.=  1.44376060247591E-01
(PID.TID 0000.0001)  cg2d: iter=     8 ; resid.=  1.02089548788466E-01
(PID.TID 0000.0001)  cg2d: iter=     9 ; resid.=  7.72445556319288E-02
(PID.TID 0000.0001)  cg2d: iter=    10 ; resid.=  6.44486732020659E-02
(PID.TID 0000.0001)  cg2d: iter=    11 ; resid.=  5.71066977940816E-02
(PID.TID 0000.0001)  cg2d: iter=    12 ; resid.=  4.99819144815772E-02
(PID.TID 0000.0001)  cg2d: iter=    13 ; resid.=  4.29654943111314E-02
(PID.TID 0000.0001)  cg2d: iter=    14 ; resid.=  3.52756600028693E-02
(PID.TID 0000.0001)  cg2d: iter=    15 ; resid.=  2.69454857037835E-02
(PID.TID 0000.0001)  cg2d: iter=    16 ; resid.=  2.41994795113473E-02
(PID.TID 0000.0001)  cg2d: iter=    17 ; resid.=  2.05470391221863E-02
(PID.TID 0000.0001)  cg2d: iter=    18 ; resid.=  1.74143506746090E-02
(PID.TID 0000.0001)  cg2d: iter=    19 ; resid.=  1.40573728121118E-02
(PID.TID 0000.0001)  cg2d: iter=    20 ; resid.=  1.13422820206019E-02
(PID.TID 0000.0001)  cg2d: iter=    21 ; resid.=  9.70174919977652E-03
(PID.TID 0000.0001)  cg2d: iter=    22 ; resid.=  8.52872800891713E-03
(PID.TID 0000.0001)  cg2d: iter=    23 ; resid.=  6.98607884036617E-03
(PID.TID 0000.0001)  cg2d: iter=    24 ; resid.=  5.97113111354562E-03
(PID.TID 0000.0001)  cg2d: iter=    25 ; resid.=  4.82176769630199E-03
(PID.TID 0000.0001)  cg2d: iter=    26 ; resid.=  3.69576162192591E-03
(PID.TID 0000.0001)  cg2d: iter=    27 ; resid.=  3.11820616895558E-03
(PID.TID 0000.0001)  cg2d: iter=    28 ; resid.=  2.36733652617615E-03
(PID.TID 0000.0001)  cg2d: iter=    29 ; resid.=  1.80472614406029E-03
(PID.TID 0000.0001)  cg2d: iter=    30 ; resid.=  1.56053283795674E-03
(PID.TID 0000.0001)  cg2d: iter=    31 ; resid.=  1.31155608970649E-03
(PID.TID 0000.0001)  cg2d: iter=    32 ; resid.=  1.02282070618299E-03
(PID.TID 0000.0001)  cg2d: iter=    33 ; resid.=  8.39151716198013E-04
(PID.TID 0000.0001)  cg2d: iter=    34 ; resid.=  7.16937731016504E-04
(PID.TID 0000.0001)  cg2d: iter=    35 ; resid.=  5.95763938122412E-04
(PID.TID 0000.0001)  cg2d: iter=    36 ; resid.=  5.22307729973100E-04
(PID.TID 0000.0001)  cg2d: iter=    37 ; resid.=  4.32513988924535E-04
(PID.TID 0000.0001)  cg2d: iter=    38 ; resid.=  3.82137920750580E-04
(PID.TID 0000.0001)  cg2d: iter=    39 ; resid.=  3.19876789206181E-04
(PID.TID 0000.0001)  cg2d: iter=    40 ; resid.=  2.61252798338722E-04
(PID.TID 0000.0001)  cg2d: iter=    41 ; resid.=  2.30724244105842E-04
(PID.TID 0000.0001)  cg2d: iter=    42 ; resid.=  2.00950345373781E-04
(PID.TID 0000.0001)  cg2d: iter=    43 ; resid.=  1.64456414924055E-04
(PID.TID 0000.0001)  cg2d: iter=    44 ; resid.=  1.39453040908059E-04
(PID.TID 0000.0001)  cg2d: iter=    45 ; resid.=  1.16209615530712E-04
(PID.TID 0000.0001)  cg2d: iter=    46 ; resid.=  9.14688092961016E-05
(PID.TID 0000.0001)  cg2d: iter=    47 ; resid.=  7.90077926422054E-05
(PID.TID 0000.0001)  cg2d: iter=    48 ; resid.=  6.05849720748243E-05
(PID.TID 0000.0001)  cg2d: iter=    49 ; resid.=  5.21692759523425E-05
(PID.TID 0000.0001)  cg2d: iter=    50 ; resid.=  4.56957121773651E-05
(PID.TID 0000.0001)  cg2d: iter=    51 ; resid.=  4.14103187562132E-05
(PID.TID 0000.0001)  cg2d: iter=    52 ; resid.=  3.90082530241076E-05
(PID.TID 0000.0001)  cg2d: iter=    53 ; resid.=  3.13568249347521E-05
(PID.TID 0000.0001)  cg2d: iter=    54 ; resid.=  2.56091063251480E-05
(PID.TID 0000.0001)  cg2d: iter=    55 ; resid.=  2.22770409578173E-05
(PID.TID 0000.0001)  cg2d: iter=    56 ; resid.=  1.83968245047648E-05
(PID.TID 0000.0001)  cg2d: iter=    57 ; resid.=  1.39544332816653E-05
(PID.TID 0000.0001)  cg2d: iter=    58 ; resid.=  1.12816763303344E-05
(PID.TID 0000.0001)  cg2d: iter=    59 ; resid.=  8.56265383267338E-06
(PID.TID 0000.0001)  cg2d: iter=    60 ; resid.=  6.38060448842937E-06
(PID.TID 0000.0001)  cg2d: iter=    61 ; resid.=  5.58652506488717E-06
(PID.TID 0000.0001)  cg2d: iter=    62 ; resid.=  4.96011523723844E-06
(PID.TID 0000.0001)  cg2d: iter=    63 ; resid.=  4.27488834346370E-06
(PID.TID 0000.0001)  cg2d: iter=    64 ; resid.=  3.60398239041268E-06
(PID.TID 0000.0001)  cg2d: iter=    65 ; resid.=  2.76372020162626E-06
(PID.TID 0000.0001)  cg2d: iter=    66 ; resid.=  2.29381789483950E-06
(PID.TID 0000.0001)  cg2d: iter=    67 ; resid.=  1.96370797844670E-06
(PID.TID 0000.0001)  cg2d: iter=    68 ; resid.=  1.66806858863728E-06
(PID.TID 0000.0001)  cg2d: iter=    69 ; resid.=  1.41420994082456E-06
(PID.TID 0000.0001)  cg2d: iter=    70 ; resid.=  1.23683893087688E-06
(PID.TID 0000.0001)  cg2d: iter=    71 ; resid.=  9.92398051270598E-07
(PID.TID 0000.0001)  cg2d: iter=    72 ; resid.=  8.32136905423056E-07
(PID.TID 0000.0001)  cg2d: iter=    73 ; resid.=  7.29429359488794E-07
(PID.TID 0000.0001)  cg2d: iter=    74 ; resid.=  6.20852162019909E-07
(PID.TID 0000.0001)  cg2d: iter=    75 ; resid.=  4.90798097026465E-07
(PID.TID 0000.0001)  cg2d: iter=    76 ; resid.=  4.08084580241807E-07
(PID.TID 0000.0001)  cg2d: iter=    77 ; resid.=  3.43277415291502E-07
(PID.TID 0000.0001)  cg2d: iter=    78 ; resid.=  2.46192265248837E-07
(PID.TID 0000.0001)  cg2d: iter=    79 ; resid.=  1.85687481853268E-07
(PID.TID 0000.0001)  cg2d: iter=    80 ; resid.=  1.38020801784702E-07
(PID.TID 0000.0001)  cg2d: iter=    81 ; resid.=  1.06855167024912E-07
(PID.TID 0000.0001)  cg2d: iter=    82 ; resid.=  8.29149915106068E-08
(PID.TID 0000.0001)  cg2d: iter=    83 ; resid.=  6.23976661849432E-08
(PID.TID 0000.0001)  cg2d: iter=    84 ; resid.=  4.59094944384338E-08
(PID.TID 0000.0001)  cg2d: iter=    85 ; resid.=  3.56043883290552E-08
(PID.TID 0000.0001)  cg2d: iter=    86 ; resid.=  2.68983732470325E-08
(PID.TID 0000.0001)  cg2d: iter=    87 ; resid.=  2.14045554121685E-08
(PID.TID 0000.0001)  cg2d: iter=    88 ; resid.=  1.78539586252213E-08
(PID.TID 0000.0001)  cg2d: iter=    89 ; resid.=  1.54406581224469E-08
(PID.TID 0000.0001)  cg2d: iter=    90 ; resid.=  1.16080978057422E-08
(PID.TID 0000.0001)  cg2d: iter=    91 ; resid.=  9.04691389012446E-09
(PID.TID 0000.0001)  cg2d: iter=    92 ; resid.=  6.53191115754473E-09
(PID.TID 0000.0001)  cg2d: iter=    93 ; resid.=  5.02351225534440E-09
(PID.TID 0000.0001)  cg2d: iter=    94 ; resid.=  3.90680796791415E-09
(PID.TID 0000.0001)  cg2d: iter=    95 ; resid.=  3.06177433133970E-09
(PID.TID 0000.0001)  cg2d: iter=    96 ; resid.=  2.17577509901338E-09
(PID.TID 0000.0001)  cg2d: iter=    97 ; resid.=  1.72429903124050E-09
(PID.TID 0000.0001)  cg2d: iter=    98 ; resid.=  1.44408971141566E-09
(PID.TID 0000.0001)  cg2d: iter=    99 ; resid.=  1.23919372001600E-09
(PID.TID 0000.0001)  cg2d: iter=   100 ; resid.=  1.17142930327247E-09
(PID.TID 0000.0001)  cg2d: iter=   101 ; resid.=  9.43164283652630E-10
(PID.TID 0000.0001)  cg2d: iter=   102 ; resid.=  8.25478188881226E-10
(PID.TID 0000.0001)  cg2d: iter=   103 ; resid.=  6.50439244188860E-10
(PID.TID 0000.0001)  cg2d: iter=   104 ; resid.=  5.32243804154791E-10
(PID.TID 0000.0001)  cg2d: iter=   105 ; resid.=  4.29910202350207E-10
(PID.TID 0000.0001)  cg2d: iter=   106 ; resid.=  3.50579411483496E-10
(PID.TID 0000.0001)  cg2d: iter=   107 ; resid.=  2.54612432466987E-10
(PID.TID 0000.0001)  cg2d: iter=   108 ; resid.=  1.82146054588686E-10
(PID.TID 0000.0001)  cg2d: iter=   109 ; resid.=  1.33967785292983E-10
(PID.TID 0000.0001)  cg2d: iter=   110 ; resid.=  1.03769201180469E-10
(PID.TID 0000.0001)  cg2d: iter=   111 ; resid.=  8.52475572199819E-11
(PID.TID 0000.0001)  cg2d: iter=   112 ; resid.=  7.01174252257002E-11
(PID.TID 0000.0001)  cg2d: iter=   113 ; resid.=  5.54364056344407E-11
(PID.TID 0000.0001)  cg2d: iter=   114 ; resid.=  4.61767621438846E-11
(PID.TID 0000.0001)  cg2d: iter=   115 ; resid.=  3.50313240530553E-11
(PID.TID 0000.0001)  cg2d: iter=   116 ; resid.=  2.58760920392651E-11
(PID.TID 0000.0001)  cg2d: iter=   117 ; resid.=  1.96687500281490E-11
(PID.TID 0000.0001)  cg2d: iter=   118 ; resid.=  1.47237085440878E-11
(PID.TID 0000.0001)  cg2d: iter=   119 ; resid.=  1.07537468040705E-11
(PID.TID 0000.0001)  cg2d: iter=   120 ; resid.=  7.67009268459226E-12
(PID.TID 0000.0001)  cg2d: iter=   121 ; resid.=  5.58533299107407E-12
(PID.TID 0000.0001)  cg2d: iter=   122 ; resid.=  4.59528890061574E-12
(PID.TID 0000.0001)  cg2d: iter=   123 ; resid.=  3.45675622086411E-12
(PID.TID 0000.0001)  cg2d: iter=   124 ; resid.=  2.65315939147995E-12
(PID.TID 0000.0001)  cg2d: iter=   125 ; resid.=  1.96293786241757E-12
(PID.TID 0000.0001)  cg2d: iter=   126 ; resid.=  1.36054312774350E-12
(PID.TID 0000.0001)  cg2d: iter=   127 ; resid.=  9.33256557292539E-13
(PID.TID 0000.0001)  cg2d: iter=   128 ; resid.=  6.98692384249625E-13
(PID.TID 0000.0001)  cg2d: iter=   129 ; resid.=  5.28360251596262E-13
(PID.TID 0000.0001)  cg2d: iter=   130 ; resid.=  3.95659221080059E-13
(PID.TID 0000.0001)  cg2d: iter=   131 ; resid.=  2.96915341265324E-13
(PID.TID 0000.0001)  cg2d: iter=   132 ; resid.=  2.37495724603853E-13
(PID.TID 0000.0001)  cg2d: iter=   133 ; resid.=  2.12599663151019E-13
(PID.TID 0000.0001)  cg2d: iter=   134 ; resid.=  1.72683474118508E-13
(PID.TID 0000.0001)  cg2d: iter=   135 ; resid.=  1.23044621877528E-13
(PID.TID 0000.0001)  cg2d: iter=   136 ; resid.=  8.07311473677260E-14
DEBUG_STATS_RL:    cg2d_x (SOLVE_FOR_PRESSURE)  min= -1.72723300839360E+01
DEBUG_STATS_RL:    cg2d_x (SOLVE_FOR_PRESSURE)  max=  8.56008205732393E+00
DEBUG_STATS_RL:    cg2d_x (SOLVE_FOR_PRESSURE) mean= -1.79504867538226E+00
DEBUG_STATS_RL:    cg2d_x (SOLVE_FOR_PRESSURE) S.D.=  6.80023741485248E+00
(PID.TID 0000.0001)      cg2d_init_res =   4.18400306742820E-01
(PID.TID 0000.0001)      cg2d_iters(min,last) =      -1     136
(PID.TID 0000.0001)      cg2d_last_res =   8.07311473677260E-14
(PID.TID 0000.0001) // =======================================================
(PID.TID 0000.0001) // Begin MONITOR dynamic field statistics
(PID.TID 0000.0001) // =======================================================
(PID.TID 0000.0001) %MON time_tsnumber                =                    51
(PID.TID 0000.0001) %MON time_secondsf                =   4.4064000000000E+06
(PID.TID 0000.0001) %MON dynstat_eta_max              =   8.7258736568027E-01
(PID.TID 0000.0001) %MON dynstat_eta_min              =  -1.7606860432146E+00
(PID.TID 0000.0001) %MON dynstat_eta_mean             =  -3.8500795483771E-03
(PID.TID 0000.0001) %MON dynstat_eta_sd               =   6.0064132028550E-01
(PID.TID 0000.0001) %MON dynstat_eta_del2             =   2.3380839833681E-03
(PID.TID 0000.0001) %MON dynstat_uvel_max             =   1.8143471043132E-01
(PID.TID 0000.0001) %MON dynstat_uvel_min             =  -1.5204785218271E-01
(PID.TID 0000.0001) %MON dynstat_uvel_mean            =   4.4603732794636E-04
(PID.TID 0000.0001) %MON dynstat_uvel_sd              =   1.7435459424196E-02
(PID.TID 0000.0001) %MON dynstat_uvel_del2            =   1.0614565408850E-04
(PID.TID 0000.0001) %MON dynstat_vvel_max             =   1.3699975043184E-01
(PID.TID 0000.0001) %MON dynstat_vvel_min             =  -1.0758125584263E-01
(PID.TID 0000.0001) %MON dynstat_vvel_mean            =   6.1008359856127E-05
(PID.TID 0000.0001) %MON dynstat_vvel_sd              =   1.0250706739384E-02
(PID.TID 0000.0001) %MON dynstat_vvel_del2            =   8.5321206206643E-05
(PID.TID 0000.0001) %MON dynstat_wvel_max             =   1.5603123340313E-04
(PID.TID 0000.0001) %MON dynstat_wvel_min             =  -1.3169507029571E-04
(PID.TID 0000.0001) %MON dynstat_wvel_mean            =   3.3487907409580E-23
(PID.TID 0000.0001) %MON dynstat_wvel_sd              =   1.5681073352378E-05
(PID.TID 0000.0001) %MON dynstat_wvel_del2            =   1.5624825805231E-07
(PID.TID 0000.0001) %MON dynstat_theta_max            =   3.0405112275707E+01
(PID.TID 0000.0001) %MON dynstat_theta_min            =  -1.9826355285823E+00
(PID.TID 0000.0001) %MON dynstat_theta_mean           =   3.6425710903766E+00
(PID.TID 0000.0001) %MON dynstat_theta_sd             =   4.4216473491835E+00
(PID.TID 0000.0001) %MON dynstat_theta_del2           =   4.8055934691240E-03
(PID.TID 0000.0001) %MON dynstat_salt_max             =   3.7482101151908E+01
(PID.TID 0000.0001) %MON dynstat_salt_min             =   2.9864207618871E+01
(PID.TID 0000.0001) %MON dynstat_salt_mean            =   3.4737992256980E+01
(PID.TID 0000.0001) %MON dynstat_salt_sd              =   2.9639882398077E-01
(PID.TID 0000.0001) %MON dynstat_salt_del2            =   9.8722749963304E-04
(PID.TID 0000.0001) %MON dynstat_sst_max              =   3.0405112275707E+01
(PID.TID 0000.0001) %MON dynstat_sst_min              =  -1.9826355285823E+00
(PID.TID 0000.0001) %MON dynstat_sst_mean             =   1.8954378016972E+01
(PID.TID 0000.0001) %MON dynstat_sst_sd               =   9.0260222320541E+00
(PID.TID 0000.0001) %MON dynstat_sst_del2             =   2.7445985722503E-02
(PID.TID 0000.0001) %MON dynstat_sss_max              =   3.7455273979752E+01
(PID.TID 0000.0001) %MON dynstat_sss_min              =   2.9864207618871E+01
(PID.TID 0000.0001) %MON dynstat_sss_mean             =   3.4863602619115E+01
(PID.TID 0000.0001) %MON dynstat_sss_sd               =   9.7817570552031E-01
(PID.TID 0000.0001) %MON dynstat_sss_del2             =   7.9027222023794E-03
(PID.TID 0000.0001) %MON forcing_qnet_max             =   3.4446148173014E+02
(PID.TID 0000.0001) %MON forcing_qnet_min             =  -1.7133757273356E+02
(PID.TID 0000.0001) %MON forcing_qnet_mean            =  -1.2848553480810E+01
(PID.TID 0000.0001) %MON forcing_qnet_sd              =   7.2593681633689E+01
(PID.TID 0000.0001) %MON forcing_qnet_del2            =   9.2255901635128E-01
(PID.TID 0000.0001) %MON forcing_qsw_max              =   0.0000000000000E+00
(PID.TID 0000.0001) %MON forcing_qsw_min              =   0.0000000000000E+00
(PID.TID 0000.0001) %MON forcing_qsw_mean             =   0.0000000000000E+00
(PID.TID 0000.0001) %MON forcing_qsw_sd               =   0.0000000000000E+00
(PID.TID 0000.0001) %MON forcing_qsw_del2             =   0.0000000000000E+00
(PID.TID 0000.0001) %MON forcing_empmr_max            =   6.9252730365103E-05
(PID.TID 0000.0001) %MON forcing_empmr_min            =  -7.4454014509229E-05
(PID.TID 0000.0001) %MON forcing_empmr_mean           =   8.7795932553760E-07
(PID.TID 0000.0001) %MON forcing_empmr_sd             =   2.7556269282498E-05
(PID.TID 0000.0001) %MON forcing_empmr_del2           =   3.5383860859280E-07
(PID.TID 0000.0001) %MON forcing_fu_max               =   3.1125728785992E-01
(PID.TID 0000.0001) %MON forcing_fu_min               =  -2.4265549828609E-01
(PID.TID 0000.0001) %MON forcing_fu_mean              =   1.8101739563928E-02
(PID.TID 0000.0001) %MON forcing_fu_sd                =   9.3253165137727E-02
(PID.TID 0000.0001) %MON forcing_fu_del2              =   7.1687477636935E-04
(PID.TID 0000.0001) %MON forcing_fv_max               =   1.7315150362750E-01
(PID.TID 0000.0001) %MON forcing_fv_min               =  -1.9224907457829E-01
(PID.TID 0000.0001) %MON forcing_fv_mean              =  -7.2688666908077E-03
(PID.TID 0000.0001) %MON forcing_fv_sd                =   4.3596000384561E-02
(PID.TID 0000.0001) %MON forcing_fv_del2              =   5.0613264128046E-04
(PID.TID 0000.0001) %MON trAdv_CFL_u_max              =   4.7907578671346E-02
(PID.TID 0000.0001) %MON trAdv_CFL_v_max              =   3.0557475744930E-02
(PID.TID 0000.0001) %MON trAdv_CFL_w_max              =   4.9833030494755E-02
(PID.TID 0000.0001) %MON advcfl_uvel_max              =   4.7433357759367E-02
(PID.TID 0000.0001) %MON advcfl_vvel_max              =   2.6616854297070E-02
(PID.TID 0000.0001) %MON advcfl_wvel_max              =   3.9111570652669E-02
(PID.TID 0000.0001) %MON advcfl_W_hf_max              =   4.6095779697788E-02
(PID.TID 0000.0001) %MON pe_b_mean                    =   4.6166766200209E-04
(PID.TID 0000.0001) %MON ke_max                       =   1.6333243956144E-02
(PID.TID 0000.0001) %MON ke_mean                      =   1.8537536342829E-04
(PID.TID 0000.0001) %MON ke_vol                       =   1.3226782436723E+18
(PID.TID 0000.0001) %MON vort_r_min                   =  -5.1185592623023E-07
(PID.TID 0000.0001) %MON vort_r_max                   =   4.8201446251523E-07
(PID.TID 0000.0001) %MON vort_a_mean                  =  -2.5274806965205E-05
(PID.TID 0000.0001) %MON vort_a_sd                    =   7.3604311804040E-05
(PID.TID 0000.0001) %MON vort_p_mean                  =  -3.1845655254852E-05
(PID.TID 0000.0001) %MON vort_p_sd                    =   1.3162372782972E-04
(PID.TID 0000.0001) %MON surfExpan_theta_mean         =  -2.5933315338908E-07
(PID.TID 0000.0001) %MON surfExpan_salt_mean          =   2.7566266794400E-07
(PID.TID 0000.0001) // =======================================================
(PID.TID 0000.0001) // End MONITOR dynamic field statistics
(PID.TID 0000.0001) // =======================================================
 EXTERNAL_FIELDS_LOAD,        51 : iP,iLd,i0,i1=    2    3    2    3 ; Wght=  0.8000000000  0.2000000000
 EXTERNAL_FIELDS_LOAD: (fu0,1),fu,fv= -1.4435E-02 -2.7199E-02 -1.6988E-02 -1.4224E-02
 EXTERNAL_FIELDS_LOAD: SST,SSS,Q,E-P= -4.6227E-01  3.4453E+01  2.3546E+02  8.5179E-06
DEBUG_STATS_RL:          Uvel (THERMODYNAMICS)  min= -1.52047852182712E-01
DEBUG_STATS_RL:          Uvel (THERMODYNAMICS)  max=  1.81434710431324E-01
DEBUG_STATS_RL:          Uvel (THERMODYNAMICS) mean=  3.63533466247959E-03
DEBUG_STATS_RL:          Uvel (THERMODYNAMICS) S.D.=  2.45967610868540E-02
DEBUG_STATS_RL:          Vvel (THERMODYNAMICS)  min= -1.07581255842629E-01
DEBUG_STATS_RL:          Vvel (THERMODYNAMICS)  max=  1.36999750431835E-01
DEBUG_STATS_RL:          Vvel (THERMODYNAMICS) mean=  1.61134247417462E-03
DEBUG_STATS_RL:          Vvel (THERMODYNAMICS) S.D.=  1.55233635595723E-02
DEBUG_STATS_RL:          Wvel (THERMODYNAMICS)  min= -1.31695070295706E-04
DEBUG_STATS_RL:          Wvel (THERMODYNAMICS)  max=  1.56031233403126E-04
DEBUG_STATS_RL:          Wvel (THERMODYNAMICS) mean=  2.81219854602337E-08
DEBUG_STATS_RL:          Wvel (THERMODYNAMICS) S.D.=  1.37506834202564E-05
DEBUG_STATS_RL:         Theta (THERMODYNAMICS)  min= -1.98075273659243E+00
DEBUG_STATS_RL:         Theta (THERMODYNAMICS)  max=  3.04121110424918E+01
DEBUG_STATS_RL:         Theta (THERMODYNAMICS) mean=  3.23818094053144E+00
DEBUG_STATS_RL:         Theta (THERMODYNAMICS) S.D.=  5.87265876766327E+00
DEBUG_STATS_RL:          Salt (THERMODYNAMICS)  min=  2.00000000000000E-02
DEBUG_STATS_RL:          Salt (THERMODYNAMICS)  max=  3.74826839975596E+01
DEBUG_STATS_RL:          Salt (THERMODYNAMICS) mean=  1.88649322608877E+01
DEBUG_STATS_RL:          Salt (THERMODYNAMICS) S.D.=  1.73004503345973E+01
DEBUG_STATS_RL:         GtNm1 (THERMODYNAMICS)  min= -5.56096750591878E-06
DEBUG_STATS_RL:         GtNm1 (THERMODYNAMICS)  max=  2.89997640330812E-06
DEBUG_STATS_RL:         GtNm1 (THERMODYNAMICS) mean=  4.54307060570892E-09
DEBUG_STATS_RL:         GtNm1 (THERMODYNAMICS) S.D.=  1.98053050594647E-07
DEBUG_STATS_RL:         GsNm1 (THERMODYNAMICS)  min= -5.34376377280441E-07
DEBUG_STATS_RL:         GsNm1 (THERMODYNAMICS)  max=  3.49126041886038E-07
DEBUG_STATS_RL:         GsNm1 (THERMODYNAMICS) mean= -1.42930169205580E-10
DEBUG_STATS_RL:         GsNm1 (THERMODYNAMICS) S.D.=  1.97297776511293E-08
DEBUG_STATS_RL:                EtaN (DYNAMICS)  min= -1.76068604321463E+00
DEBUG_STATS_RL:                EtaN (DYNAMICS)  max=  8.72587365680274E-01
DEBUG_STATS_RL:                EtaN (DYNAMICS) mean= -1.82981516348855E-01
DEBUG_STATS_RL:                EtaN (DYNAMICS) S.D.=  6.93194435764780E-01
DEBUG_STATS_RL:                Uvel (DYNAMICS)  min= -1.52047852182712E-01
DEBUG_STATS_RL:                Uvel (DYNAMICS)  max=  1.81434710431324E-01
DEBUG_STATS_RL:                Uvel (DYNAMICS) mean=  3.63533466247959E-03
DEBUG_STATS_RL:                Uvel (DYNAMICS) S.D.=  2.45967610868540E-02
DEBUG_STATS_RL:                Vvel (DYNAMICS)  min= -1.07581255842629E-01
DEBUG_STATS_RL:                Vvel (DYNAMICS)  max=  1.36999750431835E-01
DEBUG_STATS_RL:                Vvel (DYNAMICS) mean=  1.61134247417462E-03
DEBUG_STATS_RL:                Vvel (DYNAMICS) S.D.=  1.55233635595723E-02
DEBUG_STATS_RL:                Wvel (DYNAMICS)  min= -1.31695070295706E-04
DEBUG_STATS_RL:                Wvel (DYNAMICS)  max=  1.56031233403126E-04
DEBUG_STATS_RL:                Wvel (DYNAMICS) mean=  2.81219854602337E-08
DEBUG_STATS_RL:                Wvel (DYNAMICS) S.D.=  1.37506834202564E-05
DEBUG_STATS_RL:               Theta (DYNAMICS)  min= -1.98075273659243E+00
DEBUG_STATS_RL:               Theta (DYNAMICS)  max=  3.04121110424918E+01
DEBUG_STATS_RL:               Theta (DYNAMICS) mean=  3.23818094053144E+00
DEBUG_STATS_RL:               Theta (DYNAMICS) S.D.=  5.87265876766327E+00
DEBUG_STATS_RL:                Salt (DYNAMICS)  min=  2.00000000000000E-02
DEBUG_STATS_RL:                Salt (DYNAMICS)  max=  3.74826839975596E+01
DEBUG_STATS_RL:                Salt (DYNAMICS) mean=  1.88649322608877E+01
DEBUG_STATS_RL:                Salt (DYNAMICS) S.D.=  1.73004503345973E+01
DEBUG_STATS_RL:                  Gu (DYNAMICS)  min= -1.49447647299011E-01
DEBUG_STATS_RL:                  Gu (DYNAMICS)  max=  1.83193571176754E-01
DEBUG_STATS_RL:                  Gu (DYNAMICS) mean=  3.77764193459926E-03
DEBUG_STATS_RL:                  Gu (DYNAMICS) S.D.=  2.45992474450025E-02
DEBUG_STATS_RL:                  Gv (DYNAMICS)  min= -1.06443937282068E-01
DEBUG_STATS_RL:                  Gv (DYNAMICS)  max=  1.40332592741415E-01
DEBUG_STATS_RL:                  Gv (DYNAMICS) mean=  3.75318362895922E-03
DEBUG_STATS_RL:                  Gv (DYNAMICS) S.D.=  1.69485826185959E-02
DEBUG_STATS_RL:               GuNm1 (DYNAMICS)  min= -9.60902897034889E-06
DEBUG_STATS_RL:               GuNm1 (DYNAMICS)  max=  9.04891527254277E-06
DEBUG_STATS_RL:               GuNm1 (DYNAMICS) mean=  2.90307540594969E-09
DEBUG_STATS_RL:               GuNm1 (DYNAMICS) S.D.=  1.19107556462958E-06
DEBUG_STATS_RL:               GvNm1 (DYNAMICS)  min= -9.31052911237080E-06
DEBUG_STATS_RL:               GvNm1 (DYNAMICS)  max=  1.64266082623101E-05
DEBUG_STATS_RL:               GvNm1 (DYNAMICS) mean=  7.44104325688365E-07
DEBUG_STATS_RL:               GvNm1 (DYNAMICS) S.D.=  2.61679416354833E-06
DEBUG_STATS_RL:               GtNm1 (DYNAMICS)  min= -5.56096750591878E-06
DEBUG_STATS_RL:               GtNm1 (DYNAMICS)  max=  2.89997640330812E-06
DEBUG_STATS_RL:               GtNm1 (DYNAMICS) mean=  4.54307060570892E-09
DEBUG_STATS_RL:               GtNm1 (DYNAMICS) S.D.=  1.98053050594647E-07
DEBUG_STATS_RL:               GsNm1 (DYNAMICS)  min= -5.34376377280441E-07
DEBUG_STATS_RL:               GsNm1 (DYNAMICS)  max=  3.49126041886038E-07
DEBUG_STATS_RL:               GsNm1 (DYNAMICS) mean= -1.42930169205580E-10
DEBUG_STATS_RL:               GsNm1 (DYNAMICS) S.D.=  1.97297776511293E-08
DEBUG_STATS_RL:    cg2d_b (SOLVE_FOR_PRESSURE)  min= -2.25086302866506E+04
DEBUG_STATS_RL:    cg2d_b (SOLVE_FOR_PRESSURE)  max=  2.30807638116575E+04
DEBUG_STATS_RL:    cg2d_b (SOLVE_FOR_PRESSURE) mean=  3.75921750733653E+00
DEBUG_STATS_RL:    cg2d_b (SOLVE_FOR_PRESSURE) S.D.=  3.80634398597354E+03
 cg2d: Sum(rhs),rhsMax =   3.77049416583337E-01  1.51600636418014E+00
(PID.TID 0000.0001)  cg2d: iter=     1 ; resid.=  2.45099702561036E-01
(PID.TID 0000.0001)  cg2d: iter=     2 ; resid.=  2.57961873025864E-01
(PID.TID 0000.0001)  cg2d: iter=     3 ; resid.=  2.40332886548513E-01
(PID.TID 0000.0001)  cg2d: iter=     4 ; resid.=  2.12117114209233E-01
(PID.TID 0000.0001)  cg2d: iter=     5 ; resid.=  2.20760851980192E-01
(PID.TID 0000.0001)  cg2d: iter=     6 ; resid.=  1.86708545884256E-01
(PID.TID 0000.0001)  cg2d: iter=     7 ; resid.=  1.41734276965383E-01
(PID.TID 0000.0001)  cg2d: iter=     8 ; resid.=  9.92058944274879E-02
(PID.TID 0000.0001)  cg2d: iter=     9 ; resid.=  7.50020743552315E-02
(PID.TID 0000.0001)  cg2d: iter=    10 ; resid.=  6.26267795390368E-02
(PID.TID 0000.0001)  cg2d: iter=    11 ; resid.=  5.62873979804182E-02
(PID.TID 0000.0001)  cg2d: iter=    12 ; resid.=  4.96117522157668E-02
(PID.TID 0000.0001)  cg2d: iter=    13 ; resid.=  4.31557516807710E-02
(PID.TID 0000.0001)  cg2d: iter=    14 ; resid.=  3.52188122026133E-02
(PID.TID 0000.0001)  cg2d: iter=    15 ; resid.=  2.66608779497550E-02
(PID.TID 0000.0001)  cg2d: iter=    16 ; resid.=  2.37661588730047E-02
(PID.TID 0000.0001)  cg2d: iter=    17 ; resid.=  1.98693252264131E-02
(PID.TID 0000.0001)  cg2d: iter=    18 ; resid.=  1.71725295632449E-02
(PID.TID 0000.0001)  cg2d: iter=    19 ; resid.=  1.38901042414527E-02
(PID.TID 0000.0001)  cg2d: iter=    20 ; resid.=  1.11472669053452E-02
(PID.TID 0000.0001)  cg2d: iter=    21 ; resid.=  9.50956858616410E-03
(PID.TID 0000.0001)  cg2d: iter=    22 ; resid.=  8.41466730158091E-03
(PID.TID 0000.0001)  cg2d: iter=    23 ; resid.=  6.85686974560505E-03
(PID.TID 0000.0001)  cg2d: iter=    24 ; resid.=  5.96043836590930E-03
(PID.TID 0000.0001)  cg2d: iter=    25 ; resid.=  4.85805912295312E-03
(PID.TID 0000.0001)  cg2d: iter=    26 ; resid.=  3.69268203556011E-03
(PID.TID 0000.0001)  cg2d: iter=    27 ; resid.=  3.07527404355595E-03
(PID.TID 0000.0001)  cg2d: iter=    28 ; resid.=  2.30257018397685E-03
(PID.TID 0000.0001)  cg2d: iter=    29 ; resid.=  1.74903301110369E-03
(PID.TID 0000.0001)  cg2d: iter=    30 ; resid.=  1.50682199528455E-03
(PID.TID 0000.0001)  cg2d: iter=    31 ; resid.=  1.27799825934453E-03
(PID.TID 0000.0001)  cg2d: iter=    32 ; resid.=  1.02701934661270E-03
(PID.TID 0000.0001)  cg2d: iter=    33 ; resid.=  8.54460167623676E-04
(PID.TID 0000.0001)  cg2d: iter=    34 ; resid.=  7.26498830411348E-04
(PID.TID 0000.0001)  cg2d: iter=    35 ; resid.=  5.99079648970227E-04
(PID.TID 0000.0001)  cg2d: iter=    36 ; resid.=  5.20070952570290E-04
(PID.TID 0000.0001)  cg2d: iter=    37 ; resid.=  4.28412148335038E-04
(PID.TID 0000.0001)  cg2d: iter=    38 ; resid.=  3.86591777329681E-04
(PID.TID 0000.0001)  cg2d: iter=    39 ; resid.=  3.27706688765197E-04
(PID.TID 0000.0001)  cg2d: iter=    40 ; resid.=  2.70351748367002E-04
(PID.TID 0000.0001)  cg2d: iter=    41 ; resid.=  2.41448975603656E-04
(PID.TID 0000.0001)  cg2d: iter=    42 ; resid.=  2.08235834810121E-04
(PID.TID 0000.0001)  cg2d: iter=    43 ; resid.=  1.66808489200395E-04
(PID.TID 0000.0001)  cg2d: iter=    44 ; resid.=  1.40875805977978E-04
(PID.TID 0000.0001)  cg2d: iter=    45 ; resid.=  1.15066128490905E-04
(PID.TID 0000.0001)  cg2d: iter=    46 ; resid.=  9.06851452527583E-05
(PID.TID 0000.0001)  cg2d: iter=    47 ; resid.=  7.92584549736667E-05
(PID.TID 0000.0001)  cg2d: iter=    48 ; resid.=  6.07409505362143E-05
(PID.TID 0000.0001)  cg2d: iter=    49 ; resid.=  5.27115697051387E-05
(PID.TID 0000.0001)  cg2d: iter=    50 ; resid.=  4.70741816767714E-05
(PID.TID 0000.0001)  cg2d: iter=    51 ; resid.=  4.31570584594289E-05
(PID.TID 0000.0001)  cg2d: iter=    52 ; resid.=  4.05699034948821E-05
(PID.TID 0000.0001)  cg2d: iter=    53 ; resid.=  3.19394154204594E-05
(PID.TID 0000.0001)  cg2d: iter=    54 ; resid.=  2.51874345759512E-05
(PID.TID 0000.0001)  cg2d: iter=    55 ; resid.=  2.12375285911301E-05
(PID.TID 0000.0001)  cg2d: iter=    56 ; resid.=  1.73952878122155E-05
(PID.TID 0000.0001)  cg2d: iter=    57 ; resid.=  1.33140154001996E-05
(PID.TID 0000.0001)  cg2d: iter=    58 ; resid.=  1.10931441868351E-05
(PID.TID 0000.0001)  cg2d: iter=    59 ; resid.=  8.59485366571555E-06
(PID.TID 0000.0001)  cg2d: iter=    60 ; resid.=  6.36443231673859E-06
(PID.TID 0000.0001)  cg2d: iter=    61 ; resid.=  5.58388028146263E-06
(PID.TID 0000.0001)  cg2d: iter=    62 ; resid.=  4.92126113175177E-06
(PID.TID 0000.0001)  cg2d: iter=    63 ; resid.=  4.20971257699090E-06
(PID.TID 0000.0001)  cg2d: iter=    64 ; resid.=  3.56886798156750E-06
(PID.TID 0000.0001)  cg2d: iter=    65 ; resid.=  2.73701760863323E-06
(PID.TID 0000.0001)  cg2d: iter=    66 ; resid.=  2.28685034725957E-06
(PID.TID 0000.0001)  cg2d: iter=    67 ; resid.=  1.94884072043074E-06
(PID.TID 0000.0001)  cg2d: iter=    68 ; resid.=  1.62504080575198E-06
(PID.TID 0000.0001)  cg2d: iter=    69 ; resid.=  1.40463818440637E-06
(PID.TID 0000.0001)  cg2d: iter=    70 ; resid.=  1.22716292102260E-06
(PID.TID 0000.0001)  cg2d: iter=    71 ; resid.=  9.85152168722900E-07
(PID.TID 0000.0001)  cg2d: iter=    72 ; resid.=  8.31968400225052E-07
(PID.TID 0000.0001)  cg2d: iter=    73 ; resid.=  7.21941450579474E-07
(PID.TID 0000.0001)  cg2d: iter=    74 ; resid.=  6.02190248308740E-07
(PID.TID 0000.0001)  cg2d: iter=    75 ; resid.=  4.76878450805868E-07
(PID.TID 0000.0001)  cg2d: iter=    76 ; resid.=  3.96568074372650E-07
(PID.TID 0000.0001)  cg2d: iter=    77 ; resid.=  3.33143032208532E-07
(PID.TID 0000.0001)  cg2d: iter=    78 ; resid.=  2.40643642024375E-07
(PID.TID 0000.0001)  cg2d: iter=    79 ; resid.=  1.79937234153342E-07
(PID.TID 0000.0001)  cg2d: iter=    80 ; resid.=  1.34043844908649E-07
(PID.TID 0000.0001)  cg2d: iter=    81 ; resid.=  1.04141250756527E-07
(PID.TID 0000.0001)  cg2d: iter=    82 ; resid.=  7.93941281729605E-08
(PID.TID 0000.0001)  cg2d: iter=    83 ; resid.=  5.99820280708518E-08
(PID.TID 0000.0001)  cg2d: iter=    84 ; resid.=  4.37483175237611E-08
(PID.TID 0000.0001)  cg2d: iter=    85 ; resid.=  3.32237506312817E-08
(PID.TID 0000.0001)  cg2d: iter=    86 ; resid.=  2.49269096086096E-08
(PID.TID 0000.0001)  cg2d: iter=    87 ; resid.=  2.00888291205908E-08
(PID.TID 0000.0001)  cg2d: iter=    88 ; resid.=  1.65275248018023E-08
(PID.TID 0000.0001)  cg2d: iter=    89 ; resid.=  1.42718401698906E-08
(PID.TID 0000.0001)  cg2d: iter=    90 ; resid.=  1.10341045910773E-08
(PID.TID 0000.0001)  cg2d: iter=    91 ; resid.=  8.52196344871489E-09
(PID.TID 0000.0001)  cg2d: iter=    92 ; resid.=  6.08157033358769E-09
(PID.TID 0000.0001)  cg2d: iter=    93 ; resid.=  4.74311825264263E-09
(PID.TID 0000.0001)  cg2d: iter=    94 ; resid.=  3.72856410963195E-09
(PID.TID 0000.0001)  cg2d: iter=    95 ; resid.=  2.88688704775777E-09
(PID.TID 0000.0001)  cg2d: iter=    96 ; resid.=  2.04363029151761E-09
(PID.TID 0000.0001)  cg2d: iter=    97 ; resid.=  1.60693348243135E-09
(PID.TID 0000.0001)  cg2d: iter=    98 ; resid.=  1.33787078168234E-09
(PID.TID 0000.0001)  cg2d: iter=    99 ; resid.=  1.14014020975152E-09
(PID.TID 0000.0001)  cg2d: iter=   100 ; resid.=  1.09594237314182E-09
(PID.TID 0000.0001)  cg2d: iter=   101 ; resid.=  8.93742085474920E-10
(PID.TID 0000.0001)  cg2d: iter=   102 ; resid.=  7.73413614398920E-10
(PID.TID 0000.0001)  cg2d: iter=   103 ; resid.=  5.99066042947341E-10
(PID.TID 0000.0001)  cg2d: iter=   104 ; resid.=  4.85780238150339E-10
(PID.TID 0000.0001)  cg2d: iter=   105 ; resid.=  3.92525397172218E-10
(PID.TID 0000.0001)  cg2d: iter=   106 ; resid.=  3.21030980228807E-10
(PID.TID 0000.0001)  cg2d: iter=   107 ; resid.=  2.34682496146952E-10
(PID.TID 0000.0001)  cg2d: iter=   108 ; resid.=  1.69360904869678E-10
(PID.TID 0000.0001)  cg2d: iter=   109 ; resid.=  1.24728543653797E-10
(PID.TID 0000.0001)  cg2d: iter=   110 ; resid.=  9.81582797642689E-11
(PID.TID 0000.0001)  cg2d: iter=   111 ; resid.=  8.28887680666516E-11
(PID.TID 0000.0001)  cg2d: iter=   112 ; resid.=  6.93338418423917E-11
(PID.TID 0000.0001)  cg2d: iter=   113 ; resid.=  5.57952772741214E-11
(PID.TID 0000.0001)  cg2d: iter=   114 ; resid.=  4.60832803381473E-11
(PID.TID 0000.0001)  cg2d: iter=   115 ; resid.=  3.44556918084850E-11
(PID.TID 0000.0001)  cg2d: iter=   116 ; resid.=  2.51067773905090E-11
(PID.TID 0000.0001)  cg2d: iter=   117 ; resid.=  1.85833502530587E-11
(PID.TID 0000.0001)  cg2d: iter=   118 ; resid.=  1.39423072987094E-11
(PID.TID 0000.0001)  cg2d: iter=   119 ; resid.=  9.75994673097974E-12
(PID.TID 0000.0001)  cg2d: iter=   120 ; resid.=  6.69722303361241E-12
(PID.TID 0000.0001)  cg2d: iter=   121 ; resid.=  4.78817601849954E-12
(PID.TID 0000.0001)  cg2d: iter=   122 ; resid.=  3.84164099250820E-12
(PID.TID 0000.0001)  cg2d: iter=   123 ; resid.=  2.93481570917844E-12
(PID.TID 0000.0001)  cg2d: iter=   124 ; resid.=  2.32861395518484E-12
(PID.TID 0000.0001)  cg2d: iter=   125 ; resid.=  1.78150875206644E-12
(PID.TID 0000.0001)  cg2d: iter=   126 ; resid.=  1.26374596916248E-12
(PID.TID 0000.0001)  cg2d: iter=   127 ; resid.=  9.03867638472195E-13
(PID.TID 0000.0001)  cg2d: iter=   128 ; resid.=  6.85816087247200E-13
(PID.TID 0000.0001)  cg2d: iter=   129 ; resid.=  5.31480892025340E-13
(PID.TID 0000.0001)  cg2d: iter=   130 ; resid.=  4.07624380498803E-13
(PID.TID 0000.0001)  cg2d: iter=   131 ; resid.=  2.97703936051395E-13
(PID.TID 0000.0001)  cg2d: iter=   132 ; resid.=  2.29695543514862E-13
(PID.TID 0000.0001)  cg2d: iter=   133 ; resid.=  1.98581461048446E-13
(PID.TID 0000.0001)  cg2d: iter=   134 ; resid.=  1.59019062261549E-13
(PID.TID 0000.0001)  cg2d: iter=   135 ; resid.=  1.14710967053103E-13
(PID.TID 0000.0001)  cg2d: iter=   136 ; resid.=  7.75963132023457E-14
DEBUG_STATS_RL:    cg2d_x (SOLVE_FOR_PRESSURE)  min= -1.70092793304412E+01
DEBUG_STATS_RL:    cg2d_x (SOLVE_FOR_PRESSURE)  max=  7.88455563459248E+00
DEBUG_STATS_RL:    cg2d_x (SOLVE_FOR_PRESSURE) mean= -1.77054439081927E+00
DEBUG_STATS_RL:    cg2d_x (SOLVE_FOR_PRESSURE) S.D.=  6.64092237476052E+00
(PID.TID 0000.0001)      cg2d_init_res =   4.08297608668591E-01
(PID.TID 0000.0001)      cg2d_iters(min,last) =      -1     136
(PID.TID 0000.0001)      cg2d_last_res =   7.75963132023457E-14
(PID.TID 0000.0001) // =======================================================
(PID.TID 0000.0001) // Begin MONITOR dynamic field statistics
(PID.TID 0000.0001) // =======================================================
(PID.TID 0000.0001) %MON time_tsnumber                =                    52
(PID.TID 0000.0001) %MON time_secondsf                =   4.4928000000000E+06
(PID.TID 0000.0001) %MON dynstat_eta_max              =   8.0372636438249E-01
(PID.TID 0000.0001) %MON dynstat_eta_min              =  -1.7338714913804E+00
(PID.TID 0000.0001) %MON dynstat_eta_mean             =  -3.9222773413230E-03
(PID.TID 0000.0001) %MON dynstat_eta_sd               =   5.8257708333250E-01
(PID.TID 0000.0001) %MON dynstat_eta_del2             =   2.3459392139683E-03
(PID.TID 0000.0001) %MON dynstat_uvel_max             =   1.7770947445442E-01
(PID.TID 0000.0001) %MON dynstat_uvel_min             =  -1.5069754689516E-01
(PID.TID 0000.0001) %MON dynstat_uvel_mean            =   6.0495987275221E-04
(PID.TID 0000.0001) %MON dynstat_uvel_sd              =   1.7266100523518E-02
(PID.TID 0000.0001) %MON dynstat_uvel_del2            =   1.0549901120872E-04
(PID.TID 0000.0001) %MON dynstat_vvel_max             =   1.3892888438939E-01
(PID.TID 0000.0001) %MON dynstat_vvel_min             =  -1.0517579418885E-01
(PID.TID 0000.0001) %MON dynstat_vvel_mean            =   7.6089863366242E-05
(PID.TID 0000.0001) %MON dynstat_vvel_sd              =   1.0217248138957E-02
(PID.TID 0000.0001) %MON dynstat_vvel_del2            =   8.4580355580223E-05
(PID.TID 0000.0001) %MON dynstat_wvel_max             =   1.6873078992764E-04
(PID.TID 0000.0001) %MON dynstat_wvel_min             =  -1.2551792824048E-04
(PID.TID 0000.0001) %MON dynstat_wvel_mean            =   5.4589876462193E-24
(PID.TID 0000.0001) %MON dynstat_wvel_sd              =   1.5459812655519E-05
(PID.TID 0000.0001) %MON dynstat_wvel_del2            =   1.5408012672935E-07
(PID.TID 0000.0001) %MON dynstat_theta_max            =   3.0412111042492E+01
(PID.TID 0000.0001) %MON dynstat_theta_min            =  -1.9807527365924E+00
(PID.TID 0000.0001) %MON dynstat_theta_mean           =   3.6426482549957E+00
(PID.TID 0000.0001) %MON dynstat_theta_sd             =   4.4219063504728E+00
(PID.TID 0000.0001) %MON dynstat_theta_del2           =   4.8186321298429E-03
(PID.TID 0000.0001) %MON dynstat_salt_max             =   3.7482683997560E+01
(PID.TID 0000.0001) %MON dynstat_salt_min             =   2.9866800268303E+01
(PID.TID 0000.0001) %MON dynstat_salt_mean            =   3.4737986858850E+01
(PID.TID 0000.0001) %MON dynstat_salt_sd              =   2.9639555001574E-01
(PID.TID 0000.0001) %MON dynstat_salt_del2            =   9.8735549407302E-04
(PID.TID 0000.0001) %MON dynstat_sst_max              =   3.0412111042492E+01
(PID.TID 0000.0001) %MON dynstat_sst_min              =  -1.9807527365924E+00
(PID.TID 0000.0001) %MON dynstat_sst_mean             =   1.8961214406319E+01
(PID.TID 0000.0001) %MON dynstat_sst_sd               =   9.0297316284575E+00
(PID.TID 0000.0001) %MON dynstat_sst_del2             =   2.7473014062704E-02
(PID.TID 0000.0001) %MON dynstat_sss_max              =   3.7456252589508E+01
(PID.TID 0000.0001) %MON dynstat_sss_min              =   2.9866800268303E+01
(PID.TID 0000.0001) %MON dynstat_sss_mean             =   3.4863346075875E+01
(PID.TID 0000.0001) %MON dynstat_sss_sd               =   9.7837110918247E-01
(PID.TID 0000.0001) %MON dynstat_sss_del2             =   7.9049344368577E-03
(PID.TID 0000.0001) %MON forcing_qnet_max             =   3.4166333007812E+02
(PID.TID 0000.0001) %MON forcing_qnet_min             =  -1.7103829345703E+02
(PID.TID 0000.0001) %MON forcing_qnet_mean            =  -1.2625213981184E+01
(PID.TID 0000.0001) %MON forcing_qnet_sd              =   7.1234414492605E+01
(PID.TID 0000.0001) %MON forcing_qnet_del2            =   9.1767530219150E-01
(PID.TID 0000.0001) %MON forcing_qsw_max              =   0.0000000000000E+00
(PID.TID 0000.0001) %MON forcing_qsw_min              =   0.0000000000000E+00
(PID.TID 0000.0001) %MON forcing_qsw_mean             =   0.0000000000000E+00
(PID.TID 0000.0001) %MON forcing_qsw_sd               =   0.0000000000000E+00
(PID.TID 0000.0001) %MON forcing_qsw_del2             =   0.0000000000000E+00
(PID.TID 0000.0001) %MON forcing_empmr_max            =   6.9246974021553E-05
(PID.TID 0000.0001) %MON forcing_empmr_min            =  -7.4091350654726E-05
(PID.TID 0000.0001) %MON forcing_empmr_mean           =   8.6486939466325E-07
(PID.TID 0000.0001) %MON forcing_empmr_sd             =   2.7477668813451E-05
(PID.TID 0000.0001) %MON forcing_empmr_del2           =   3.5358321320213E-07
(PID.TID 0000.0001) %MON forcing_fu_max               =   3.1258164048195E-01
(PID.TID 0000.0001) %MON forcing_fu_min               =  -2.4804012775421E-01
(PID.TID 0000.0001) %MON forcing_fu_mean              =   1.8195939153386E-02
(PID.TID 0000.0001) %MON forcing_fu_sd                =   9.3365690565339E-02
(PID.TID 0000.0001) %MON forcing_fu_del2              =   7.1304989393077E-04
(PID.TID 0000.0001) %MON forcing_fv_max               =   1.6746481135488E-01
(PID.TID 0000.0001) %MON forcing_fv_min               =  -1.9076303839684E-01
(PID.TID 0000.0001) %MON forcing_fv_mean              =  -7.2792950407772E-03
(PID.TID 0000.0001) %MON forcing_fv_sd                =   4.3351289204055E-02
(PID.TID 0000.0001) %MON forcing_fv_del2              =   5.0024732875636E-04
(PID.TID 0000.0001) %MON trAdv_CFL_u_max              =   4.7442991813577E-02
(PID.TID 0000.0001) %MON trAdv_CFL_v_max              =   3.0301732427520E-02
(PID.TID 0000.0001) %MON trAdv_CFL_w_max              =   4.6095779697788E-02
(PID.TID 0000.0001) %MON advcfl_uvel_max              =   4.6459451220698E-02
(PID.TID 0000.0001) %MON advcfl_vvel_max              =   2.6991654085434E-02
(PID.TID 0000.0001) %MON advcfl_wvel_max              =   3.9940658218488E-02
(PID.TID 0000.0001) %MON advcfl_W_hf_max              =   4.2877471322789E-02
(PID.TID 0000.0001) %MON pe_b_mean                    =   4.3431785062400E-04
(PID.TID 0000.0001) %MON ke_max                       =   1.6430685457548E-02
(PID.TID 0000.0001) %MON ke_mean                      =   1.8247470660518E-04
(PID.TID 0000.0001) %MON ke_vol                       =   1.3226782436723E+18
(PID.TID 0000.0001) %MON vort_r_min                   =  -5.0655984649087E-07
(PID.TID 0000.0001) %MON vort_r_max                   =   4.9625050215207E-07
(PID.TID 0000.0001) %MON vort_a_mean                  =  -2.5274807111780E-05
(PID.TID 0000.0001) %MON vort_a_sd                    =   7.3604327360856E-05
(PID.TID 0000.0001) %MON vort_p_mean                  =  -3.1845655439533E-05
(PID.TID 0000.0001) %MON vort_p_sd                    =   1.3162378560826E-04
(PID.TID 0000.0001) %MON surfExpan_theta_mean         =  -2.8689449699515E-07
(PID.TID 0000.0001) %MON surfExpan_salt_mean          =   2.7555389410252E-07
(PID.TID 0000.0001) // =======================================================
(PID.TID 0000.0001) // End MONITOR dynamic field statistics
(PID.TID 0000.0001) // =======================================================
 EXTERNAL_FIELDS_LOAD,        52 : iP,iLd,i0,i1=    2    3    2    3 ; Wght=  0.7666666667  0.2333333333
 EXTERNAL_FIELDS_LOAD: (fu0,1),fu,fv= -1.4435E-02 -2.7199E-02 -1.7413E-02 -1.3655E-02
 EXTERNAL_FIELDS_LOAD: SST,SSS,Q,E-P= -4.5067E-01  3.4458E+01  2.3463E+02  8.5414E-06
DEBUG_STATS_RL:          Uvel (THERMODYNAMICS)  min= -1.50697546895157E-01
DEBUG_STATS_RL:          Uvel (THERMODYNAMICS)  max=  1.77709474454418E-01
DEBUG_STATS_RL:          Uvel (THERMODYNAMICS) mean=  3.89659324819505E-03
DEBUG_STATS_RL:          Uvel (THERMODYNAMICS) S.D.=  2.42988420263587E-02
DEBUG_STATS_RL:          Vvel (THERMODYNAMICS)  min= -1.05175794188847E-01
DEBUG_STATS_RL:          Vvel (THERMODYNAMICS)  max=  1.38928884389387E-01
DEBUG_STATS_RL:          Vvel (THERMODYNAMICS) mean=  1.60355882920541E-03
DEBUG_STATS_RL:          Vvel (THERMODYNAMICS) S.D.=  1.54869099538459E-02
DEBUG_STATS_RL:          Wvel (THERMODYNAMICS)  min= -1.25517928240483E-04
DEBUG_STATS_RL:          Wvel (THERMODYNAMICS)  max=  1.68730789927641E-04
DEBUG_STATS_RL:          Wvel (THERMODYNAMICS) mean=  3.03299601692983E-08
DEBUG_STATS_RL:          Wvel (THERMODYNAMICS) S.D.=  1.35514938675961E-05
DEBUG_STATS_RL:         Theta (THERMODYNAMICS)  min= -1.97889186805895E+00
DEBUG_STATS_RL:         Theta (THERMODYNAMICS)  max=  3.04174414765658E+01
DEBUG_STATS_RL:         Theta (THERMODYNAMICS) mean=  3.23835418406381E+00
DEBUG_STATS_RL:         Theta (THERMODYNAMICS) S.D.=  5.87332590566304E+00
DEBUG_STATS_RL:          Salt (THERMODYNAMICS)  min=  2.00000000000000E-02
DEBUG_STATS_RL:          Salt (THERMODYNAMICS)  max=  3.74832537594235E+01
DEBUG_STATS_RL:          Salt (THERMODYNAMICS) mean=  1.88649246982898E+01
DEBUG_STATS_RL:          Salt (THERMODYNAMICS) S.D.=  1.73004435954628E+01
DEBUG_STATS_RL:         GtNm1 (THERMODYNAMICS)  min= -5.63618811002689E-06
DEBUG_STATS_RL:         GtNm1 (THERMODYNAMICS)  max=  2.93543616970384E-06
DEBUG_STATS_RL:         GtNm1 (THERMODYNAMICS) mean=  4.03837722653797E-09
DEBUG_STATS_RL:         GtNm1 (THERMODYNAMICS) S.D.=  1.96971027747044E-07
DEBUG_STATS_RL:         GsNm1 (THERMODYNAMICS)  min= -5.42982352094760E-07
DEBUG_STATS_RL:         GsNm1 (THERMODYNAMICS)  max=  3.90784628133597E-07
DEBUG_STATS_RL:         GsNm1 (THERMODYNAMICS) mean= -2.10420173591060E-10
DEBUG_STATS_RL:         GsNm1 (THERMODYNAMICS) S.D.=  1.98863896861354E-08
DEBUG_STATS_RL:                EtaN (DYNAMICS)  min= -1.73387149138038E+00
DEBUG_STATS_RL:                EtaN (DYNAMICS)  max=  8.03726364382486E-01
DEBUG_STATS_RL:                EtaN (DYNAMICS) mean= -1.80483628014197E-01
DEBUG_STATS_RL:                EtaN (DYNAMICS) S.D.=  6.76954370515857E-01
DEBUG_STATS_RL:                Uvel (DYNAMICS)  min= -1.50697546895157E-01
DEBUG_STATS_RL:                Uvel (DYNAMICS)  max=  1.77709474454418E-01
DEBUG_STATS_RL:                Uvel (DYNAMICS) mean=  3.89659324819505E-03
DEBUG_STATS_RL:                Uvel (DYNAMICS) S.D.=  2.42988420263587E-02
DEBUG_STATS_RL:                Vvel (DYNAMICS)  min= -1.05175794188847E-01
DEBUG_STATS_RL:                Vvel (DYNAMICS)  max=  1.38928884389387E-01
DEBUG_STATS_RL:                Vvel (DYNAMICS) mean=  1.60355882920541E-03
DEBUG_STATS_RL:                Vvel (DYNAMICS) S.D.=  1.54869099538459E-02
DEBUG_STATS_RL:                Wvel (DYNAMICS)  min= -1.25517928240483E-04
DEBUG_STATS_RL:                Wvel (DYNAMICS)  max=  1.68730789927641E-04
DEBUG_STATS_RL:                Wvel (DYNAMICS) mean=  3.03299601692983E-08
DEBUG_STATS_RL:                Wvel (DYNAMICS) S.D.=  1.35514938675961E-05
DEBUG_STATS_RL:               Theta (DYNAMICS)  min= -1.97889186805895E+00
DEBUG_STATS_RL:               Theta (DYNAMICS)  max=  3.04174414765658E+01
DEBUG_STATS_RL:               Theta (DYNAMICS) mean=  3.23835418406381E+00
DEBUG_STATS_RL:               Theta (DYNAMICS) S.D.=  5.87332590566304E+00
DEBUG_STATS_RL:                Salt (DYNAMICS)  min=  2.00000000000000E-02
DEBUG_STATS_RL:                Salt (DYNAMICS)  max=  3.74832537594235E+01
DEBUG_STATS_RL:                Salt (DYNAMICS) mean=  1.88649246982898E+01
DEBUG_STATS_RL:                Salt (DYNAMICS) S.D.=  1.73004435954628E+01
DEBUG_STATS_RL:                  Gu (DYNAMICS)  min= -1.47858816078909E-01
DEBUG_STATS_RL:                  Gu (DYNAMICS)  max=  1.77728423566882E-01
DEBUG_STATS_RL:                  Gu (DYNAMICS) mean=  4.05669351879771E-03
DEBUG_STATS_RL:                  Gu (DYNAMICS) S.D.=  2.43172464231638E-02
DEBUG_STATS_RL:                  Gv (DYNAMICS)  min= -1.03286079794055E-01
DEBUG_STATS_RL:                  Gv (DYNAMICS)  max=  1.42012121287565E-01
DEBUG_STATS_RL:                  Gv (DYNAMICS) mean=  3.75415637584521E-03
DEBUG_STATS_RL:                  Gv (DYNAMICS) S.D.=  1.69467647364330E-02
DEBUG_STATS_RL:               GuNm1 (DYNAMICS)  min= -9.62824662421970E-06
DEBUG_STATS_RL:               GuNm1 (DYNAMICS)  max=  9.11230257260800E-06
DEBUG_STATS_RL:               GuNm1 (DYNAMICS) mean=  4.16651083505176E-09
DEBUG_STATS_RL:               GuNm1 (DYNAMICS) S.D.=  1.19335501118424E-06
DEBUG_STATS_RL:               GvNm1 (DYNAMICS)  min= -9.30955833488698E-06
DEBUG_STATS_RL:               GvNm1 (DYNAMICS)  max=  1.63877885726304E-05
DEBUG_STATS_RL:               GvNm1 (DYNAMICS) mean=  7.44292107719238E-07
DEBUG_STATS_RL:               GvNm1 (DYNAMICS) S.D.=  2.62192784343603E-06
DEBUG_STATS_RL:               GtNm1 (DYNAMICS)  min= -5.63618811002689E-06
DEBUG_STATS_RL:               GtNm1 (DYNAMICS)  max=  2.93543616970384E-06
DEBUG_STATS_RL:               GtNm1 (DYNAMICS) mean=  4.03837722653797E-09
DEBUG_STATS_RL:               GtNm1 (DYNAMICS) S.D.=  1.96971027747044E-07
DEBUG_STATS_RL:               GsNm1 (DYNAMICS)  min= -5.42982352094760E-07
DEBUG_STATS_RL:               GsNm1 (DYNAMICS)  max=  3.90784628133597E-07
DEBUG_STATS_RL:               GsNm1 (DYNAMICS) mean= -2.10420173591060E-10
DEBUG_STATS_RL:               GsNm1 (DYNAMICS) S.D.=  1.98863896861354E-08
DEBUG_STATS_RL:    cg2d_b (SOLVE_FOR_PRESSURE)  min= -2.21883425341140E+04
DEBUG_STATS_RL:    cg2d_b (SOLVE_FOR_PRESSURE)  max=  2.37111308525403E+04
DEBUG_STATS_RL:    cg2d_b (SOLVE_FOR_PRESSURE) mean=  3.82736654277816E+00
DEBUG_STATS_RL:    cg2d_b (SOLVE_FOR_PRESSURE) S.D.=  3.82272774386678E+03
 cg2d: Sum(rhs),rhsMax =   3.73679079316507E-01  1.55741055918624E+00
(PID.TID 0000.0001)  cg2d: iter=     1 ; resid.=  2.35460940971202E-01
(PID.TID 0000.0001)  cg2d: iter=     2 ; resid.=  2.45284710530687E-01
(PID.TID 0000.0001)  cg2d: iter=     3 ; resid.=  2.27436832531561E-01
(PID.TID 0000.0001)  cg2d: iter=     4 ; resid.=  2.03051220000834E-01
(PID.TID 0000.0001)  cg2d: iter=     5 ; resid.=  2.09985248168229E-01
(PID.TID 0000.0001)  cg2d: iter=     6 ; resid.=  1.76106012898027E-01
(PID.TID 0000.0001)  cg2d: iter=     7 ; resid.=  1.35073228692508E-01
(PID.TID 0000.0001)  cg2d: iter=     8 ; resid.=  9.44877920475529E-02
(PID.TID 0000.0001)  cg2d: iter=     9 ; resid.=  7.16405850215935E-02
(PID.TID 0000.0001)  cg2d: iter=    10 ; resid.=  6.00490162390292E-02
(PID.TID 0000.0001)  cg2d: iter=    11 ; resid.=  5.45297623890241E-02
(PID.TID 0000.0001)  cg2d: iter=    12 ; resid.=  4.78532120723776E-02
(PID.TID 0000.0001)  cg2d: iter=    13 ; resid.=  4.15026282858171E-02
(PID.TID 0000.0001)  cg2d: iter=    14 ; resid.=  3.36104804971375E-02
(PID.TID 0000.0001)  cg2d: iter=    15 ; resid.=  2.54851747403010E-02
(PID.TID 0000.0001)  cg2d: iter=    16 ; resid.=  2.26915532195359E-02
(PID.TID 0000.0001)  cg2d: iter=    17 ; resid.=  1.88764695533578E-02
(PID.TID 0000.0001)  cg2d: iter=    18 ; resid.=  1.67250553441334E-02
(PID.TID 0000.0001)  cg2d: iter=    19 ; resid.=  1.34631406979984E-02
(PID.TID 0000.0001)  cg2d: iter=    20 ; resid.=  1.07129283690725E-02
(PID.TID 0000.0001)  cg2d: iter=    21 ; resid.=  9.07383304034945E-03
(PID.TID 0000.0001)  cg2d: iter=    22 ; resid.=  8.02905109544561E-03
(PID.TID 0000.0001)  cg2d: iter=    23 ; resid.=  6.52713551640636E-03
(PID.TID 0000.0001)  cg2d: iter=    24 ; resid.=  5.77189090848062E-03
(PID.TID 0000.0001)  cg2d: iter=    25 ; resid.=  4.74336895657734E-03
(PID.TID 0000.0001)  cg2d: iter=    26 ; resid.=  3.61274183908846E-03
(PID.TID 0000.0001)  cg2d: iter=    27 ; resid.=  2.98163367313165E-03
(PID.TID 0000.0001)  cg2d: iter=    28 ; resid.=  2.21847595131628E-03
(PID.TID 0000.0001)  cg2d: iter=    29 ; resid.=  1.69185848640297E-03
(PID.TID 0000.0001)  cg2d: iter=    30 ; resid.=  1.44523837282134E-03
(PID.TID 0000.0001)  cg2d: iter=    31 ; resid.=  1.23402414393344E-03
(PID.TID 0000.0001)  cg2d: iter=    32 ; resid.=  1.01280584933115E-03
(PID.TID 0000.0001)  cg2d: iter=    33 ; resid.=  8.45016051617683E-04
(PID.TID 0000.0001)  cg2d: iter=    34 ; resid.=  7.18348885426718E-04
(PID.TID 0000.0001)  cg2d: iter=    35 ; resid.=  5.89807933744518E-04
(PID.TID 0000.0001)  cg2d: iter=    36 ; resid.=  5.09180936334996E-04
(PID.TID 0000.0001)  cg2d: iter=    37 ; resid.=  4.22003785090422E-04
(PID.TID 0000.0001)  cg2d: iter=    38 ; resid.=  3.88755071654765E-04
(PID.TID 0000.0001)  cg2d: iter=    39 ; resid.=  3.32500773091296E-04
(PID.TID 0000.0001)  cg2d: iter=    40 ; resid.=  2.78077306789284E-04
(PID.TID 0000.0001)  cg2d: iter=    41 ; resid.=  2.48552144393535E-04
(PID.TID 0000.0001)  cg2d: iter=    42 ; resid.=  2.11187738432586E-04
(PID.TID 0000.0001)  cg2d: iter=    43 ; resid.=  1.66620074725710E-04
(PID.TID 0000.0001)  cg2d: iter=    44 ; resid.=  1.38887355459288E-04
(PID.TID 0000.0001)  cg2d: iter=    45 ; resid.=  1.11154299408603E-04
(PID.TID 0000.0001)  cg2d: iter=    46 ; resid.=  8.81281386163038E-05
(PID.TID 0000.0001)  cg2d: iter=    47 ; resid.=  7.78665645845288E-05
(PID.TID 0000.0001)  cg2d: iter=    48 ; resid.=  6.03083925319466E-05
(PID.TID 0000.0001)  cg2d: iter=    49 ; resid.=  5.25904943055232E-05
(PID.TID 0000.0001)  cg2d: iter=    50 ; resid.=  4.71858212806645E-05
(PID.TID 0000.0001)  cg2d: iter=    51 ; resid.=  4.33966082879111E-05
(PID.TID 0000.0001)  cg2d: iter=    52 ; resid.=  3.99997987338067E-05
(PID.TID 0000.0001)  cg2d: iter=    53 ; resid.=  3.10013586825545E-05
(PID.TID 0000.0001)  cg2d: iter=    54 ; resid.=  2.40744887359357E-05
(PID.TID 0000.0001)  cg2d: iter=    55 ; resid.=  1.98758934037862E-05
(PID.TID 0000.0001)  cg2d: iter=    56 ; resid.=  1.63617471561369E-05
(PID.TID 0000.0001)  cg2d: iter=    57 ; resid.=  1.28305925162267E-05
(PID.TID 0000.0001)  cg2d: iter=    58 ; resid.=  1.08655577097390E-05
(PID.TID 0000.0001)  cg2d: iter=    59 ; resid.=  8.55273329480989E-06
(PID.TID 0000.0001)  cg2d: iter=    60 ; resid.=  6.27512429826259E-06
(PID.TID 0000.0001)  cg2d: iter=    61 ; resid.=  5.38279761209885E-06
(PID.TID 0000.0001)  cg2d: iter=    62 ; resid.=  4.67636694407010E-06
(PID.TID 0000.0001)  cg2d: iter=    63 ; resid.=  3.96197449584698E-06
(PID.TID 0000.0001)  cg2d: iter=    64 ; resid.=  3.36968318353298E-06
(PID.TID 0000.0001)  cg2d: iter=    65 ; resid.=  2.62839268940007E-06
(PID.TID 0000.0001)  cg2d: iter=    66 ; resid.=  2.23108432211555E-06
(PID.TID 0000.0001)  cg2d: iter=    67 ; resid.=  1.91573426167533E-06
(PID.TID 0000.0001)  cg2d: iter=    68 ; resid.=  1.57825203060361E-06
(PID.TID 0000.0001)  cg2d: iter=    69 ; resid.=  1.37199003864993E-06
(PID.TID 0000.0001)  cg2d: iter=    70 ; resid.=  1.18327936845834E-06
(PID.TID 0000.0001)  cg2d: iter=    71 ; resid.=  9.49321048598845E-07
(PID.TID 0000.0001)  cg2d: iter=    72 ; resid.=  7.93614661838475E-07
(PID.TID 0000.0001)  cg2d: iter=    73 ; resid.=  6.81514726806395E-07
(PID.TID 0000.0001)  cg2d: iter=    74 ; resid.=  5.61895204728980E-07
(PID.TID 0000.0001)  cg2d: iter=    75 ; resid.=  4.47498102882085E-07
(PID.TID 0000.0001)  cg2d: iter=    76 ; resid.=  3.78497702144285E-07
(PID.TID 0000.0001)  cg2d: iter=    77 ; resid.=  3.20561199669938E-07
(PID.TID 0000.0001)  cg2d: iter=    78 ; resid.=  2.36253010739042E-07
(PID.TID 0000.0001)  cg2d: iter=    79 ; resid.=  1.77410537472892E-07
(PID.TID 0000.0001)  cg2d: iter=    80 ; resid.=  1.31343438146754E-07
(PID.TID 0000.0001)  cg2d: iter=    81 ; resid.=  1.01342476191860E-07
(PID.TID 0000.0001)  cg2d: iter=    82 ; resid.=  7.54590494054389E-08
(PID.TID 0000.0001)  cg2d: iter=    83 ; resid.=  5.59842702838498E-08
(PID.TID 0000.0001)  cg2d: iter=    84 ; resid.=  4.01102108588391E-08
(PID.TID 0000.0001)  cg2d: iter=    85 ; resid.=  2.98350603941547E-08
(PID.TID 0000.0001)  cg2d: iter=    86 ; resid.=  2.22845087417955E-08
(PID.TID 0000.0001)  cg2d: iter=    87 ; resid.=  1.82827443580936E-08
(PID.TID 0000.0001)  cg2d: iter=    88 ; resid.=  1.48534043772625E-08
(PID.TID 0000.0001)  cg2d: iter=    89 ; resid.=  1.28504216464534E-08
(PID.TID 0000.0001)  cg2d: iter=    90 ; resid.=  1.02352126740548E-08
(PID.TID 0000.0001)  cg2d: iter=    91 ; resid.=  7.74230168072665E-09
(PID.TID 0000.0001)  cg2d: iter=    92 ; resid.=  5.48978334440815E-09
(PID.TID 0000.0001)  cg2d: iter=    93 ; resid.=  4.35584226729323E-09
(PID.TID 0000.0001)  cg2d: iter=    94 ; resid.=  3.43569316616012E-09
(PID.TID 0000.0001)  cg2d: iter=    95 ; resid.=  2.68484826910463E-09
(PID.TID 0000.0001)  cg2d: iter=    96 ; resid.=  1.92495287639862E-09
(PID.TID 0000.0001)  cg2d: iter=    97 ; resid.=  1.50541049435387E-09
(PID.TID 0000.0001)  cg2d: iter=    98 ; resid.=  1.26083072324648E-09
(PID.TID 0000.0001)  cg2d: iter=    99 ; resid.=  1.07056842255016E-09
(PID.TID 0000.0001)  cg2d: iter=   100 ; resid.=  1.03755573521202E-09
(PID.TID 0000.0001)  cg2d: iter=   101 ; resid.=  8.47538864762956E-10
(PID.TID 0000.0001)  cg2d: iter=   102 ; resid.=  7.10491322024331E-10
(PID.TID 0000.0001)  cg2d: iter=   103 ; resid.=  5.39653369173825E-10
(PID.TID 0000.0001)  cg2d: iter=   104 ; resid.=  4.31888833212848E-10
(PID.TID 0000.0001)  cg2d: iter=   105 ; resid.=  3.49158609967641E-10
(PID.TID 0000.0001)  cg2d: iter=   106 ; resid.=  2.94188765756820E-10
(PID.TID 0000.0001)  cg2d: iter=   107 ; resid.=  2.23970352526305E-10
(PID.TID 0000.0001)  cg2d: iter=   108 ; resid.=  1.65701846652465E-10
(PID.TID 0000.0001)  cg2d: iter=   109 ; resid.=  1.24061085582631E-10
(PID.TID 0000.0001)  cg2d: iter=   110 ; resid.=  9.81151436755979E-11
(PID.TID 0000.0001)  cg2d: iter=   111 ; resid.=  8.15262079919558E-11
(PID.TID 0000.0001)  cg2d: iter=   112 ; resid.=  6.56796382730593E-11
(PID.TID 0000.0001)  cg2d: iter=   113 ; resid.=  5.16462094948598E-11
(PID.TID 0000.0001)  cg2d: iter=   114 ; resid.=  4.19794429567105E-11
(PID.TID 0000.0001)  cg2d: iter=   115 ; resid.=  3.15221999930437E-11
(PID.TID 0000.0001)  cg2d: iter=   116 ; resid.=  2.35073512079704E-11
(PID.TID 0000.0001)  cg2d: iter=   117 ; resid.=  1.80488200728340E-11
(PID.TID 0000.0001)  cg2d: iter=   118 ; resid.=  1.44484419716972E-11
(PID.TID 0000.0001)  cg2d: iter=   119 ; resid.=  1.02503796274123E-11
(PID.TID 0000.0001)  cg2d: iter=   120 ; resid.=  7.29651394140899E-12
(PID.TID 0000.0001)  cg2d: iter=   121 ; resid.=  5.48702204176532E-12
(PID.TID 0000.0001)  cg2d: iter=   122 ; resid.=  4.38931393485323E-12
(PID.TID 0000.0001)  cg2d: iter=   123 ; resid.=  3.30161215902341E-12
(PID.TID 0000.0001)  cg2d: iter=   124 ; resid.=  2.50468156335214E-12
(PID.TID 0000.0001)  cg2d: iter=   125 ; resid.=  1.80101617543711E-12
(PID.TID 0000.0001)  cg2d: iter=   126 ; resid.=  1.21182038992215E-12
(PID.TID 0000.0001)  cg2d: iter=   127 ; resid.=  8.47706211956058E-13
(PID.TID 0000.0001)  cg2d: iter=   128 ; resid.=  6.29554959837366E-13
(PID.TID 0000.0001)  cg2d: iter=   129 ; resid.=  4.99787849714413E-13
(PID.TID 0000.0001)  cg2d: iter=   130 ; resid.=  3.96416041600812E-13
(PID.TID 0000.0001)  cg2d: iter=   131 ; resid.=  2.91206907898107E-13
(PID.TID 0000.0001)  cg2d: iter=   132 ; resid.=  2.26911939872545E-13
(PID.TID 0000.0001)  cg2d: iter=   133 ; resid.=  1.93281618889894E-13
(PID.TID 0000.0001)  cg2d: iter=   134 ; resid.=  1.53542814975020E-13
(PID.TID 0000.0001)  cg2d: iter=   135 ; resid.=  1.12435573071038E-13
(PID.TID 0000.0001)  cg2d: iter=   136 ; resid.=  7.81679216341392E-14
DEBUG_STATS_RL:    cg2d_x (SOLVE_FOR_PRESSURE)  min= -1.68846027914126E+01
DEBUG_STATS_RL:    cg2d_x (SOLVE_FOR_PRESSURE)  max=  7.22185222492497E+00
DEBUG_STATS_RL:    cg2d_x (SOLVE_FOR_PRESSURE) mean= -1.74590612596707E+00
DEBUG_STATS_RL:    cg2d_x (SOLVE_FOR_PRESSURE) S.D.=  6.52529443359988E+00
(PID.TID 0000.0001)      cg2d_init_res =   3.92696788455592E-01
(PID.TID 0000.0001)      cg2d_iters(min,last) =      -1     136
(PID.TID 0000.0001)      cg2d_last_res =   7.81679216341392E-14
(PID.TID 0000.0001) // =======================================================
(PID.TID 0000.0001) // Begin MONITOR dynamic field statistics
(PID.TID 0000.0001) // =======================================================
(PID.TID 0000.0001) %MON time_tsnumber                =                    53
(PID.TID 0000.0001) %MON time_secondsf                =   4.5792000000000E+06
(PID.TID 0000.0001) %MON dynstat_eta_max              =   7.3617249999232E-01
(PID.TID 0000.0001) %MON dynstat_eta_min              =  -1.7211623640585E+00
(PID.TID 0000.0001) %MON dynstat_eta_mean             =  -3.9933824096046E-03
(PID.TID 0000.0001) %MON dynstat_eta_sd               =   5.6937316297153E-01
(PID.TID 0000.0001) %MON dynstat_eta_del2             =   2.3535910666236E-03
(PID.TID 0000.0001) %MON dynstat_uvel_max             =   1.7224493669190E-01
(PID.TID 0000.0001) %MON dynstat_uvel_min             =  -1.4915140763474E-01
(PID.TID 0000.0001) %MON dynstat_uvel_mean            =   7.8198320049309E-04
(PID.TID 0000.0001) %MON dynstat_uvel_sd              =   1.7105063237411E-02
(PID.TID 0000.0001) %MON dynstat_uvel_del2            =   1.0472267872134E-04
(PID.TID 0000.0001) %MON dynstat_vvel_max             =   1.4049083794889E-01
(PID.TID 0000.0001) %MON dynstat_vvel_min             =  -1.0287230898970E-01
(PID.TID 0000.0001) %MON dynstat_vvel_mean            =   9.4221210800826E-05
(PID.TID 0000.0001) %MON dynstat_vvel_sd              =   1.0187437022111E-02
(PID.TID 0000.0001) %MON dynstat_vvel_del2            =   8.3796048813379E-05
(PID.TID 0000.0001) %MON dynstat_wvel_max             =   1.7565704255839E-04
(PID.TID 0000.0001) %MON dynstat_wvel_min             =  -1.1823715010559E-04
(PID.TID 0000.0001) %MON dynstat_wvel_mean            =  -1.2023534975412E-22
(PID.TID 0000.0001) %MON dynstat_wvel_sd              =   1.5239325598754E-05
(PID.TID 0000.0001) %MON dynstat_wvel_del2            =   1.5178363347822E-07
(PID.TID 0000.0001) %MON dynstat_theta_max            =   3.0417441476566E+01
(PID.TID 0000.0001) %MON dynstat_theta_min            =  -1.9788918680590E+00
(PID.TID 0000.0001) %MON dynstat_theta_mean           =   3.6427245903666E+00
(PID.TID 0000.0001) %MON dynstat_theta_sd             =   4.4221643272323E+00
(PID.TID 0000.0001) %MON dynstat_theta_del2           =   4.8321526370518E-03
(PID.TID 0000.0001) %MON dynstat_salt_max             =   3.7483253759423E+01
(PID.TID 0000.0001) %MON dynstat_salt_min             =   2.9869593761607E+01
(PID.TID 0000.0001) %MON dynstat_salt_mean            =   3.4737981564518E+01
(PID.TID 0000.0001) %MON dynstat_salt_sd              =   2.9639212250687E-01
(PID.TID 0000.0001) %MON dynstat_salt_del2            =   9.8761103072018E-04
(PID.TID 0000.0001) %MON dynstat_sst_max              =   3.0417441476566E+01
(PID.TID 0000.0001) %MON dynstat_sst_min              =  -1.9788918680590E+00
(PID.TID 0000.0001) %MON dynstat_sst_mean             =   1.8967746815369E+01
(PID.TID 0000.0001) %MON dynstat_sst_sd               =   9.0337394827029E+00
(PID.TID 0000.0001) %MON dynstat_sst_del2             =   2.7518675663924E-02
(PID.TID 0000.0001) %MON dynstat_sss_max              =   3.7457203039959E+01
(PID.TID 0000.0001) %MON dynstat_sss_min              =   2.9869593761607E+01
(PID.TID 0000.0001) %MON dynstat_sss_mean             =   3.4863052881108E+01
(PID.TID 0000.0001) %MON dynstat_sss_sd               =   9.7859898099430E-01
(PID.TID 0000.0001) %MON dynstat_sss_del2             =   7.9114716844107E-03
(PID.TID 0000.0001) %MON forcing_qnet_max             =   3.3886517842611E+02
(PID.TID 0000.0001) %MON forcing_qnet_min             =  -1.7073901418050E+02
(PID.TID 0000.0001) %MON forcing_qnet_mean            =  -1.2401874481557E+01
(PID.TID 0000.0001) %MON forcing_qnet_sd              =   6.9891135718298E+01
(PID.TID 0000.0001) %MON forcing_qnet_del2            =   9.1294827007943E-01
(PID.TID 0000.0001) %MON forcing_qsw_max              =   0.0000000000000E+00
(PID.TID 0000.0001) %MON forcing_qsw_min              =   0.0000000000000E+00
(PID.TID 0000.0001) %MON forcing_qsw_mean             =   0.0000000000000E+00
(PID.TID 0000.0001) %MON forcing_qsw_sd               =   0.0000000000000E+00
(PID.TID 0000.0001) %MON forcing_qsw_del2             =   0.0000000000000E+00
(PID.TID 0000.0001) %MON forcing_empmr_max            =   6.9241217678003E-05
(PID.TID 0000.0001) %MON forcing_empmr_min            =  -7.4083286942065E-05
(PID.TID 0000.0001) %MON forcing_empmr_mean           =   8.5177946378889E-07
(PID.TID 0000.0001) %MON forcing_empmr_sd             =   2.7401269076073E-05
(PID.TID 0000.0001) %MON forcing_empmr_del2           =   3.5339193351951E-07
(PID.TID 0000.0001) %MON forcing_fu_max               =   3.1390599310398E-01
(PID.TID 0000.0001) %MON forcing_fu_min               =  -2.5342475722233E-01
(PID.TID 0000.0001) %MON forcing_fu_mean              =   1.8290138742845E-02
(PID.TID 0000.0001) %MON forcing_fu_sd                =   9.3499658141920E-02
(PID.TID 0000.0001) %MON forcing_fu_del2              =   7.1000949682168E-04
(PID.TID 0000.0001) %MON forcing_fv_max               =   1.6197121615211E-01
(PID.TID 0000.0001) %MON forcing_fv_min               =  -1.8927700221539E-01
(PID.TID 0000.0001) %MON forcing_fv_mean              =  -7.2897233907466E-03
(PID.TID 0000.0001) %MON forcing_fv_sd                =   4.3122711947279E-02
(PID.TID 0000.0001) %MON forcing_fv_del2              =   4.9479609729253E-04
(PID.TID 0000.0001) %MON trAdv_CFL_u_max              =   4.6468887467524E-02
(PID.TID 0000.0001) %MON trAdv_CFL_v_max              =   2.9899421150556E-02
(PID.TID 0000.0001) %MON trAdv_CFL_w_max              =   4.1221813090508E-02
(PID.TID 0000.0001) %MON advcfl_uvel_max              =   4.5030830566674E-02
(PID.TID 0000.0001) %MON advcfl_vvel_max              =   2.7295116611322E-02
(PID.TID 0000.0001) %MON advcfl_wvel_max              =   4.1580187608341E-02
(PID.TID 0000.0001) %MON advcfl_W_hf_max              =   4.4637554344249E-02
(PID.TID 0000.0001) %MON pe_b_mean                    =   4.1485521072481E-04
(PID.TID 0000.0001) %MON ke_max                       =   1.6498810151172E-02
(PID.TID 0000.0001) %MON ke_mean                      =   1.7979989856531E-04
(PID.TID 0000.0001) %MON ke_vol                       =   1.3226782436723E+18
(PID.TID 0000.0001) %MON vort_r_min                   =  -4.9965263457829E-07
(PID.TID 0000.0001) %MON vort_r_max                   =   5.1605015133719E-07
(PID.TID 0000.0001) %MON vort_a_mean                  =  -2.5274807255058E-05
(PID.TID 0000.0001) %MON vort_a_sd                    =   7.3604347024125E-05
(PID.TID 0000.0001) %MON vort_p_mean                  =  -3.1845655620061E-05
(PID.TID 0000.0001) %MON vort_p_sd                    =   1.3162383871087E-04
(PID.TID 0000.0001) %MON surfExpan_theta_mean         =  -2.9796776312885E-07
(PID.TID 0000.0001) %MON surfExpan_salt_mean          =   2.6713794104505E-07
(PID.TID 0000.0001) // =======================================================
(PID.TID 0000.0001) // End MONITOR dynamic field statistics
(PID.TID 0000.0001) // =======================================================
 EXTERNAL_FIELDS_LOAD,        53 : iP,iLd,i0,i1=    2    3    2    3 ; Wght=  0.7333333333  0.2666666667
 EXTERNAL_FIELDS_LOAD: (fu0,1),fu,fv= -1.4435E-02 -2.7199E-02 -1.7838E-02 -1.3087E-02
 EXTERNAL_FIELDS_LOAD: SST,SSS,Q,E-P= -4.3907E-01  3.4463E+01  2.3379E+02  8.5648E-06
DEBUG_STATS_RL:          Uvel (THERMODYNAMICS)  min= -1.49151407634736E-01
DEBUG_STATS_RL:          Uvel (THERMODYNAMICS)  max=  1.72244936691902E-01
DEBUG_STATS_RL:          Uvel (THERMODYNAMICS) mean=  4.16313845501350E-03
DEBUG_STATS_RL:          Uvel (THERMODYNAMICS) S.D.=  2.40189529956957E-02
DEBUG_STATS_RL:          Vvel (THERMODYNAMICS)  min= -1.02872308989701E-01
DEBUG_STATS_RL:          Vvel (THERMODYNAMICS)  max=  1.40490837948890E-01
DEBUG_STATS_RL:          Vvel (THERMODYNAMICS) mean=  1.57096054571671E-03
DEBUG_STATS_RL:          Vvel (THERMODYNAMICS) S.D.=  1.54482682848754E-02
DEBUG_STATS_RL:          Wvel (THERMODYNAMICS)  min= -1.18237150105593E-04
DEBUG_STATS_RL:          Wvel (THERMODYNAMICS)  max=  1.75657042558385E-04
DEBUG_STATS_RL:          Wvel (THERMODYNAMICS) mean=  2.58009522603636E-08
DEBUG_STATS_RL:          Wvel (THERMODYNAMICS) S.D.=  1.33447948824605E-05
DEBUG_STATS_RL:         Theta (THERMODYNAMICS)  min= -1.97705724295122E+00
DEBUG_STATS_RL:         Theta (THERMODYNAMICS)  max=  3.04325291989387E+01
DEBUG_STATS_RL:         Theta (THERMODYNAMICS) mean=  3.23852257694668E+00
DEBUG_STATS_RL:         Theta (THERMODYNAMICS) S.D.=  5.87397896673313E+00
DEBUG_STATS_RL:          Salt (THERMODYNAMICS)  min=  2.00000000000000E-02
DEBUG_STATS_RL:          Salt (THERMODYNAMICS)  max=  3.74838009742538E+01
DEBUG_STATS_RL:          Salt (THERMODYNAMICS) mean=  1.88649171588193E+01
DEBUG_STATS_RL:          Salt (THERMODYNAMICS) S.D.=  1.73004368930231E+01
DEBUG_STATS_RL:         GtNm1 (THERMODYNAMICS)  min= -5.40185439689644E-06
DEBUG_STATS_RL:         GtNm1 (THERMODYNAMICS)  max=  2.75789067614171E-06
DEBUG_STATS_RL:         GtNm1 (THERMODYNAMICS) mean=  3.67698851038241E-09
DEBUG_STATS_RL:         GtNm1 (THERMODYNAMICS) S.D.=  1.94552703347243E-07
DEBUG_STATS_RL:         GsNm1 (THERMODYNAMICS)  min= -5.13916178781153E-07
DEBUG_STATS_RL:         GsNm1 (THERMODYNAMICS)  max=  3.62586469737042E-07
DEBUG_STATS_RL:         GsNm1 (THERMODYNAMICS) mean= -2.68125625309502E-10
DEBUG_STATS_RL:         GsNm1 (THERMODYNAMICS) S.D.=  1.95884655261881E-08
DEBUG_STATS_RL:                EtaN (DYNAMICS)  min= -1.72116236405846E+00
DEBUG_STATS_RL:                EtaN (DYNAMICS)  max=  7.36172499992324E-01
DEBUG_STATS_RL:                EtaN (DYNAMICS) mean= -1.77972082157705E-01
DEBUG_STATS_RL:                EtaN (DYNAMICS) S.D.=  6.65167628297645E-01
DEBUG_STATS_RL:                Uvel (DYNAMICS)  min= -1.49151407634736E-01
DEBUG_STATS_RL:                Uvel (DYNAMICS)  max=  1.72244936691902E-01
DEBUG_STATS_RL:                Uvel (DYNAMICS) mean=  4.16313845501350E-03
DEBUG_STATS_RL:                Uvel (DYNAMICS) S.D.=  2.40189529956957E-02
DEBUG_STATS_RL:                Vvel (DYNAMICS)  min= -1.02872308989701E-01
DEBUG_STATS_RL:                Vvel (DYNAMICS)  max=  1.40490837948890E-01
DEBUG_STATS_RL:                Vvel (DYNAMICS) mean=  1.57096054571671E-03
DEBUG_STATS_RL:                Vvel (DYNAMICS) S.D.=  1.54482682848754E-02
DEBUG_STATS_RL:                Wvel (DYNAMICS)  min= -1.18237150105593E-04
DEBUG_STATS_RL:                Wvel (DYNAMICS)  max=  1.75657042558385E-04
DEBUG_STATS_RL:                Wvel (DYNAMICS) mean=  2.58009522603636E-08
DEBUG_STATS_RL:                Wvel (DYNAMICS) S.D.=  1.33447948824605E-05
DEBUG_STATS_RL:               Theta (DYNAMICS)  min= -1.97705724295122E+00
DEBUG_STATS_RL:               Theta (DYNAMICS)  max=  3.04325291989387E+01
DEBUG_STATS_RL:               Theta (DYNAMICS) mean=  3.23852257694668E+00
DEBUG_STATS_RL:               Theta (DYNAMICS) S.D.=  5.87397896673313E+00
DEBUG_STATS_RL:                Salt (DYNAMICS)  min=  2.00000000000000E-02
DEBUG_STATS_RL:                Salt (DYNAMICS)  max=  3.74838009742538E+01
DEBUG_STATS_RL:                Salt (DYNAMICS) mean=  1.88649171588193E+01
DEBUG_STATS_RL:                Salt (DYNAMICS) S.D.=  1.73004368930231E+01
DEBUG_STATS_RL:                  Gu (DYNAMICS)  min= -1.46086583523056E-01
DEBUG_STATS_RL:                  Gu (DYNAMICS)  max=  1.70785846253650E-01
DEBUG_STATS_RL:                  Gu (DYNAMICS) mean=  4.33076929663792E-03
DEBUG_STATS_RL:                  Gu (DYNAMICS) S.D.=  2.40615838488403E-02
DEBUG_STATS_RL:                  Gv (DYNAMICS)  min= -9.98149502167322E-02
DEBUG_STATS_RL:                  Gv (DYNAMICS)  max=  1.43329554502482E-01
DEBUG_STATS_RL:                  Gv (DYNAMICS) mean=  3.73885361930750E-03
DEBUG_STATS_RL:                  Gv (DYNAMICS) S.D.=  1.69243816718386E-02
DEBUG_STATS_RL:               GuNm1 (DYNAMICS)  min= -9.64748471491023E-06
DEBUG_STATS_RL:               GuNm1 (DYNAMICS)  max=  9.17303621947454E-06
DEBUG_STATS_RL:               GuNm1 (DYNAMICS) mean=  5.24422481018844E-09
DEBUG_STATS_RL:               GuNm1 (DYNAMICS) S.D.=  1.19543160033077E-06
DEBUG_STATS_RL:               GvNm1 (DYNAMICS)  min= -9.33407318524181E-06
DEBUG_STATS_RL:               GvNm1 (DYNAMICS)  max=  1.63399070174660E-05
DEBUG_STATS_RL:               GvNm1 (DYNAMICS) mean=  7.44433009200125E-07
DEBUG_STATS_RL:               GvNm1 (DYNAMICS) S.D.=  2.62704262593461E-06
DEBUG_STATS_RL:               GtNm1 (DYNAMICS)  min= -5.40185439689644E-06
DEBUG_STATS_RL:               GtNm1 (DYNAMICS)  max=  2.75789067614171E-06
DEBUG_STATS_RL:               GtNm1 (DYNAMICS) mean=  3.67698851038241E-09
DEBUG_STATS_RL:               GtNm1 (DYNAMICS) S.D.=  1.94552703347243E-07
DEBUG_STATS_RL:               GsNm1 (DYNAMICS)  min= -5.13916178781153E-07
DEBUG_STATS_RL:               GsNm1 (DYNAMICS)  max=  3.62586469737042E-07
DEBUG_STATS_RL:               GsNm1 (DYNAMICS) mean= -2.68125625309502E-10
DEBUG_STATS_RL:               GsNm1 (DYNAMICS) S.D.=  1.95884655261881E-08
DEBUG_STATS_RL:    cg2d_b (SOLVE_FOR_PRESSURE)  min= -2.17464442423950E+04
DEBUG_STATS_RL:    cg2d_b (SOLVE_FOR_PRESSURE)  max=  2.42573326871912E+04
DEBUG_STATS_RL:    cg2d_b (SOLVE_FOR_PRESSURE) mean=  3.89446828111849E+00
DEBUG_STATS_RL:    cg2d_b (SOLVE_FOR_PRESSURE) S.D.=  3.83998583209118E+03
 cg2d: Sum(rhs),rhsMax =   3.71668814005658E-01  1.59328655810095E+00
(PID.TID 0000.0001)  cg2d: iter=     1 ; resid.=  2.23597440766100E-01
(PID.TID 0000.0001)  cg2d: iter=     2 ; resid.=  2.27437931508656E-01
(PID.TID 0000.0001)  cg2d: iter=     3 ; resid.=  2.09916676800137E-01
(PID.TID 0000.0001)  cg2d: iter=     4 ; resid.=  1.89369642733642E-01
(PID.TID 0000.0001)  cg2d: iter=     5 ; resid.=  1.92317280563748E-01
(PID.TID 0000.0001)  cg2d: iter=     6 ; resid.=  1.61188841414759E-01
(PID.TID 0000.0001)  cg2d: iter=     7 ; resid.=  1.26547160786789E-01
(PID.TID 0000.0001)  cg2d: iter=     8 ; resid.=  8.94295453517228E-02
(PID.TID 0000.0001)  cg2d: iter=     9 ; resid.=  6.81980341681396E-02
(PID.TID 0000.0001)  cg2d: iter=    10 ; resid.=  5.75640282015732E-02
(PID.TID 0000.0001)  cg2d: iter=    11 ; resid.=  5.25663263160201E-02
(PID.TID 0000.0001)  cg2d: iter=    12 ; resid.=  4.53643073983184E-02
(PID.TID 0000.0001)  cg2d: iter=    13 ; resid.=  3.87215502554138E-02
(PID.TID 0000.0001)  cg2d: iter=    14 ; resid.=  3.11511108909171E-02
(PID.TID 0000.0001)  cg2d: iter=    15 ; resid.=  2.39300155089949E-02
(PID.TID 0000.0001)  cg2d: iter=    16 ; resid.=  2.14285604983593E-02
(PID.TID 0000.0001)  cg2d: iter=    17 ; resid.=  1.79526305920029E-02
(PID.TID 0000.0001)  cg2d: iter=    18 ; resid.=  1.62729593074748E-02
(PID.TID 0000.0001)  cg2d: iter=    19 ; resid.=  1.29108780977458E-02
(PID.TID 0000.0001)  cg2d: iter=    20 ; resid.=  1.01731478647188E-02
(PID.TID 0000.0001)  cg2d: iter=    21 ; resid.=  8.53784879561111E-03
(PID.TID 0000.0001)  cg2d: iter=    22 ; resid.=  7.52964493826721E-03
(PID.TID 0000.0001)  cg2d: iter=    23 ; resid.=  6.14240379863713E-03
(PID.TID 0000.0001)  cg2d: iter=    24 ; resid.=  5.51300278681664E-03
(PID.TID 0000.0001)  cg2d: iter=    25 ; resid.=  4.54021685921222E-03
(PID.TID 0000.0001)  cg2d: iter=    26 ; resid.=  3.49308349289489E-03
(PID.TID 0000.0001)  cg2d: iter=    27 ; resid.=  2.86960720662237E-03
(PID.TID 0000.0001)  cg2d: iter=    28 ; resid.=  2.14610846028827E-03
(PID.TID 0000.0001)  cg2d: iter=    29 ; resid.=  1.65962167599638E-03
(PID.TID 0000.0001)  cg2d: iter=    30 ; resid.=  1.40455905340234E-03
(PID.TID 0000.0001)  cg2d: iter=    31 ; resid.=  1.20370946778324E-03
(PID.TID 0000.0001)  cg2d: iter=    32 ; resid.=  9.92058071813756E-04
(PID.TID 0000.0001)  cg2d: iter=    33 ; resid.=  8.21915952471086E-04
(PID.TID 0000.0001)  cg2d: iter=    34 ; resid.=  7.02403530984041E-04
(PID.TID 0000.0001)  cg2d: iter=    35 ; resid.=  5.77271118728015E-04
(PID.TID 0000.0001)  cg2d: iter=    36 ; resid.=  5.01124275008246E-04
(PID.TID 0000.0001)  cg2d: iter=    37 ; resid.=  4.22242818787355E-04
(PID.TID 0000.0001)  cg2d: iter=    38 ; resid.=  3.93805411449442E-04
(PID.TID 0000.0001)  cg2d: iter=    39 ; resid.=  3.37426453800211E-04
(PID.TID 0000.0001)  cg2d: iter=    40 ; resid.=  2.85506145853955E-04
(PID.TID 0000.0001)  cg2d: iter=    41 ; resid.=  2.52799931258061E-04
(PID.TID 0000.0001)  cg2d: iter=    42 ; resid.=  2.12381435119423E-04
(PID.TID 0000.0001)  cg2d: iter=    43 ; resid.=  1.66882003428250E-04
(PID.TID 0000.0001)  cg2d: iter=    44 ; resid.=  1.36253982723750E-04
(PID.TID 0000.0001)  cg2d: iter=    45 ; resid.=  1.06739274382520E-04
(PID.TID 0000.0001)  cg2d: iter=    46 ; resid.=  8.51136594040379E-05
(PID.TID 0000.0001)  cg2d: iter=    47 ; resid.=  7.53738887372085E-05
(PID.TID 0000.0001)  cg2d: iter=    48 ; resid.=  5.94298841822206E-05
(PID.TID 0000.0001)  cg2d: iter=    49 ; resid.=  5.17838776409291E-05
(PID.TID 0000.0001)  cg2d: iter=    50 ; resid.=  4.60668792597909E-05
(PID.TID 0000.0001)  cg2d: iter=    51 ; resid.=  4.20990862731825E-05
(PID.TID 0000.0001)  cg2d: iter=    52 ; resid.=  3.76437703216327E-05
(PID.TID 0000.0001)  cg2d: iter=    53 ; resid.=  2.91973498228696E-05
(PID.TID 0000.0001)  cg2d: iter=    54 ; resid.=  2.29058033587219E-05
(PID.TID 0000.0001)  cg2d: iter=    55 ; resid.=  1.89223216247956E-05
(PID.TID 0000.0001)  cg2d: iter=    56 ; resid.=  1.58874168553673E-05
(PID.TID 0000.0001)  cg2d: iter=    57 ; resid.=  1.27121831135722E-05
(PID.TID 0000.0001)  cg2d: iter=    58 ; resid.=  1.05737966898915E-05
(PID.TID 0000.0001)  cg2d: iter=    59 ; resid.=  8.32519708767255E-06
(PID.TID 0000.0001)  cg2d: iter=    60 ; resid.=  6.03952925801836E-06
(PID.TID 0000.0001)  cg2d: iter=    61 ; resid.=  5.04322838647715E-06
(PID.TID 0000.0001)  cg2d: iter=    62 ; resid.=  4.37879550345827E-06
(PID.TID 0000.0001)  cg2d: iter=    63 ; resid.=  3.71751382275592E-06
(PID.TID 0000.0001)  cg2d: iter=    64 ; resid.=  3.15584936455565E-06
(PID.TID 0000.0001)  cg2d: iter=    65 ; resid.=  2.49488384351455E-06
(PID.TID 0000.0001)  cg2d: iter=    66 ; resid.=  2.13700418272930E-06
(PID.TID 0000.0001)  cg2d: iter=    67 ; resid.=  1.84828614981807E-06
(PID.TID 0000.0001)  cg2d: iter=    68 ; resid.=  1.50535639314810E-06
(PID.TID 0000.0001)  cg2d: iter=    69 ; resid.=  1.31090856189075E-06
(PID.TID 0000.0001)  cg2d: iter=    70 ; resid.=  1.11664084074477E-06
(PID.TID 0000.0001)  cg2d: iter=    71 ; resid.=  9.00940195083677E-07
(PID.TID 0000.0001)  cg2d: iter=    72 ; resid.=  7.41733937636295E-07
(PID.TID 0000.0001)  cg2d: iter=    73 ; resid.=  6.32867760959621E-07
(PID.TID 0000.0001)  cg2d: iter=    74 ; resid.=  5.17392459127324E-07
(PID.TID 0000.0001)  cg2d: iter=    75 ; resid.=  4.14064780330786E-07
(PID.TID 0000.0001)  cg2d: iter=    76 ; resid.=  3.57107724648299E-07
(PID.TID 0000.0001)  cg2d: iter=    77 ; resid.=  3.03594536343698E-07
(PID.TID 0000.0001)  cg2d: iter=    78 ; resid.=  2.28385585862164E-07
(PID.TID 0000.0001)  cg2d: iter=    79 ; resid.=  1.72924255893662E-07
(PID.TID 0000.0001)  cg2d: iter=    80 ; resid.=  1.27276262592784E-07
(PID.TID 0000.0001)  cg2d: iter=    81 ; resid.=  9.73196335274247E-08
(PID.TID 0000.0001)  cg2d: iter=    82 ; resid.=  7.20045264453177E-08
(PID.TID 0000.0001)  cg2d: iter=    83 ; resid.=  5.24958346189533E-08
(PID.TID 0000.0001)  cg2d: iter=    84 ; resid.=  3.69678357563939E-08
(PID.TID 0000.0001)  cg2d: iter=    85 ; resid.=  2.71385861239484E-08
(PID.TID 0000.0001)  cg2d: iter=    86 ; resid.=  2.01808025025641E-08
(PID.TID 0000.0001)  cg2d: iter=    87 ; resid.=  1.66138327466865E-08
(PID.TID 0000.0001)  cg2d: iter=    88 ; resid.=  1.31857945394931E-08
(PID.TID 0000.0001)  cg2d: iter=    89 ; resid.=  1.12682758669060E-08
(PID.TID 0000.0001)  cg2d: iter=    90 ; resid.=  9.13188506049503E-09
(PID.TID 0000.0001)  cg2d: iter=    91 ; resid.=  6.76130800248404E-09
(PID.TID 0000.0001)  cg2d: iter=    92 ; resid.=  4.81713607683076E-09
(PID.TID 0000.0001)  cg2d: iter=    93 ; resid.=  3.93902064433481E-09
(PID.TID 0000.0001)  cg2d: iter=    94 ; resid.=  3.15546835041988E-09
(PID.TID 0000.0001)  cg2d: iter=    95 ; resid.=  2.55118208989834E-09
(PID.TID 0000.0001)  cg2d: iter=    96 ; resid.=  1.87842569225121E-09
(PID.TID 0000.0001)  cg2d: iter=    97 ; resid.=  1.45879860247613E-09
(PID.TID 0000.0001)  cg2d: iter=    98 ; resid.=  1.22438338012738E-09
(PID.TID 0000.0001)  cg2d: iter=    99 ; resid.=  1.03020302343139E-09
(PID.TID 0000.0001)  cg2d: iter=   100 ; resid.=  9.86173059600077E-10
(PID.TID 0000.0001)  cg2d: iter=   101 ; resid.=  7.97925102920795E-10
(PID.TID 0000.0001)  cg2d: iter=   102 ; resid.=  6.52435766051419E-10
(PID.TID 0000.0001)  cg2d: iter=   103 ; resid.=  4.94128474956059E-10
(PID.TID 0000.0001)  cg2d: iter=   104 ; resid.=  3.94881987181698E-10
(PID.TID 0000.0001)  cg2d: iter=   105 ; resid.=  3.22750800722441E-10
(PID.TID 0000.0001)  cg2d: iter=   106 ; resid.=  2.79070431020504E-10
(PID.TID 0000.0001)  cg2d: iter=   107 ; resid.=  2.19633802700172E-10
(PID.TID 0000.0001)  cg2d: iter=   108 ; resid.=  1.64431944321623E-10
(PID.TID 0000.0001)  cg2d: iter=   109 ; resid.=  1.22906566190697E-10
(PID.TID 0000.0001)  cg2d: iter=   110 ; resid.=  9.50160238200942E-11
(PID.TID 0000.0001)  cg2d: iter=   111 ; resid.=  7.58860522797704E-11
(PID.TID 0000.0001)  cg2d: iter=   112 ; resid.=  5.81724716292142E-11
(PID.TID 0000.0001)  cg2d: iter=   113 ; resid.=  4.47697630376752E-11
(PID.TID 0000.0001)  cg2d: iter=   114 ; resid.=  3.64623835888035E-11
(PID.TID 0000.0001)  cg2d: iter=   115 ; resid.=  2.81423155470538E-11
(PID.TID 0000.0001)  cg2d: iter=   116 ; resid.=  2.17485536414026E-11
(PID.TID 0000.0001)  cg2d: iter=   117 ; resid.=  1.74023181191147E-11
(PID.TID 0000.0001)  cg2d: iter=   118 ; resid.=  1.46379168624348E-11
(PID.TID 0000.0001)  cg2d: iter=   119 ; resid.=  1.03286485694278E-11
(PID.TID 0000.0001)  cg2d: iter=   120 ; resid.=  7.49891571859211E-12
(PID.TID 0000.0001)  cg2d: iter=   121 ; resid.=  5.77170996747863E-12
(PID.TID 0000.0001)  cg2d: iter=   122 ; resid.=  4.55821924938546E-12
(PID.TID 0000.0001)  cg2d: iter=   123 ; resid.=  3.38103824969598E-12
(PID.TID 0000.0001)  cg2d: iter=   124 ; resid.=  2.46740642757302E-12
(PID.TID 0000.0001)  cg2d: iter=   125 ; resid.=  1.71973094666353E-12
(PID.TID 0000.0001)  cg2d: iter=   126 ; resid.=  1.12602974029277E-12
(PID.TID 0000.0001)  cg2d: iter=   127 ; resid.=  7.83268101686863E-13
(PID.TID 0000.0001)  cg2d: iter=   128 ; resid.=  5.76062200580573E-13
(PID.TID 0000.0001)  cg2d: iter=   129 ; resid.=  4.64999517900915E-13
(PID.TID 0000.0001)  cg2d: iter=   130 ; resid.=  3.74644926988090E-13
(PID.TID 0000.0001)  cg2d: iter=   131 ; resid.=  2.72885454242761E-13
(PID.TID 0000.0001)  cg2d: iter=   132 ; resid.=  2.08962060957335E-13
(PID.TID 0000.0001)  cg2d: iter=   133 ; resid.=  1.71628159453580E-13
(PID.TID 0000.0001)  cg2d: iter=   134 ; resid.=  1.35638531619804E-13
(PID.TID 0000.0001)  cg2d: iter=   135 ; resid.=  1.00660796054115E-13
(PID.TID 0000.0001)  cg2d: iter=   136 ; resid.=  7.20569072203905E-14
DEBUG_STATS_RL:    cg2d_x (SOLVE_FOR_PRESSURE)  min= -1.67879793172825E+01
DEBUG_STATS_RL:    cg2d_x (SOLVE_FOR_PRESSURE)  max=  7.27352742548242E+00
DEBUG_STATS_RL:    cg2d_x (SOLVE_FOR_PRESSURE) mean= -1.72220669297804E+00
DEBUG_STATS_RL:    cg2d_x (SOLVE_FOR_PRESSURE) S.D.=  6.45724501836866E+00
(PID.TID 0000.0001)      cg2d_init_res =   3.77668050787969E-01
(PID.TID 0000.0001)      cg2d_iters(min,last) =      -1     136
(PID.TID 0000.0001)      cg2d_last_res =   7.20569072203905E-14
(PID.TID 0000.0001) // =======================================================
(PID.TID 0000.0001) // Begin MONITOR dynamic field statistics
(PID.TID 0000.0001) // =======================================================
(PID.TID 0000.0001) %MON time_tsnumber                =                    54
(PID.TID 0000.0001) %MON time_secondsf                =   4.6656000000000E+06
(PID.TID 0000.0001) %MON dynstat_eta_max              =   7.4144010453446E-01
(PID.TID 0000.0001) %MON dynstat_eta_min              =  -1.7113128763794E+00
(PID.TID 0000.0001) %MON dynstat_eta_mean             =  -4.0633947532225E-03
(PID.TID 0000.0001) %MON dynstat_eta_sd               =   5.6145176639514E-01
(PID.TID 0000.0001) %MON dynstat_eta_del2             =   2.3609407623240E-03
(PID.TID 0000.0001) %MON dynstat_uvel_max             =   1.6530926853010E-01
(PID.TID 0000.0001) %MON dynstat_uvel_min             =  -1.4740359046798E-01
(PID.TID 0000.0001) %MON dynstat_uvel_mean            =   9.6962112857301E-04
(PID.TID 0000.0001) %MON dynstat_uvel_sd              =   1.6955479060702E-02
(PID.TID 0000.0001) %MON dynstat_uvel_del2            =   1.0388010903761E-04
(PID.TID 0000.0001) %MON dynstat_vvel_max             =   1.4167208907618E-01
(PID.TID 0000.0001) %MON dynstat_vvel_min             =  -1.0027235628352E-01
(PID.TID 0000.0001) %MON dynstat_vvel_mean            =   1.1428801730429E-04
(PID.TID 0000.0001) %MON dynstat_vvel_sd              =   1.0161099809824E-02
(PID.TID 0000.0001) %MON dynstat_vvel_del2            =   8.3010722125365E-05
(PID.TID 0000.0001) %MON dynstat_wvel_max             =   1.7667976184899E-04
(PID.TID 0000.0001) %MON dynstat_wvel_min             =  -1.1025208576599E-04
(PID.TID 0000.0001) %MON dynstat_wvel_mean            =  -2.0950585361583E-22
(PID.TID 0000.0001) %MON dynstat_wvel_sd              =   1.5024233908426E-05
(PID.TID 0000.0001) %MON dynstat_wvel_del2            =   1.4944463319011E-07
(PID.TID 0000.0001) %MON dynstat_theta_max            =   3.0432529198939E+01
(PID.TID 0000.0001) %MON dynstat_theta_min            =  -1.9770572429512E+00
(PID.TID 0000.0001) %MON dynstat_theta_mean           =   3.6427997027453E+00
(PID.TID 0000.0001) %MON dynstat_theta_sd             =   4.4224180350550E+00
(PID.TID 0000.0001) %MON dynstat_theta_del2           =   4.8497995559888E-03
(PID.TID 0000.0001) %MON dynstat_salt_max             =   3.7483800974254E+01
(PID.TID 0000.0001) %MON dynstat_salt_min             =   2.9872619416070E+01
(PID.TID 0000.0001) %MON dynstat_salt_mean            =   3.4737976562272E+01
(PID.TID 0000.0001) %MON dynstat_salt_sd              =   2.9638720798412E-01
(PID.TID 0000.0001) %MON dynstat_salt_del2            =   9.8970741848166E-04
(PID.TID 0000.0001) %MON dynstat_sst_max              =   3.0432529198939E+01
(PID.TID 0000.0001) %MON dynstat_sst_min              =  -1.9770572429512E+00
(PID.TID 0000.0001) %MON dynstat_sst_mean             =   1.8974299189811E+01
(PID.TID 0000.0001) %MON dynstat_sst_sd               =   9.0376952727651E+00
(PID.TID 0000.0001) %MON dynstat_sst_del2             =   2.7673646842133E-02
(PID.TID 0000.0001) %MON dynstat_sss_max              =   3.7458130869950E+01
(PID.TID 0000.0001) %MON dynstat_sss_min              =   2.9872619416070E+01
(PID.TID 0000.0001) %MON dynstat_sss_mean             =   3.4862804506009E+01
(PID.TID 0000.0001) %MON dynstat_sss_sd               =   9.7886564623738E-01
(PID.TID 0000.0001) %MON dynstat_sss_del2             =   7.9449099537355E-03
(PID.TID 0000.0001) %MON forcing_qnet_max             =   3.3606702677409E+02
(PID.TID 0000.0001) %MON forcing_qnet_min             =  -1.7043973490397E+02
(PID.TID 0000.0001) %MON forcing_qnet_mean            =  -1.2178534981930E+01
(PID.TID 0000.0001) %MON forcing_qnet_sd              =   6.8564785019729E+01
(PID.TID 0000.0001) %MON forcing_qnet_del2            =   9.0838036604570E-01
(PID.TID 0000.0001) %MON forcing_qsw_max              =   0.0000000000000E+00
(PID.TID 0000.0001) %MON forcing_qsw_min              =   0.0000000000000E+00
(PID.TID 0000.0001) %MON forcing_qsw_mean             =   0.0000000000000E+00
(PID.TID 0000.0001) %MON forcing_qsw_sd               =   0.0000000000000E+00
(PID.TID 0000.0001) %MON forcing_qsw_del2             =   0.0000000000000E+00
(PID.TID 0000.0001) %MON forcing_empmr_max            =   6.9235461334453E-05
(PID.TID 0000.0001) %MON forcing_empmr_min            =  -7.4482466535149E-05
(PID.TID 0000.0001) %MON forcing_empmr_mean           =   8.3868953291453E-07
(PID.TID 0000.0001) %MON forcing_empmr_sd             =   2.7327088528464E-05
(PID.TID 0000.0001) %MON forcing_empmr_del2           =   3.5326487369371E-07
(PID.TID 0000.0001) %MON forcing_fu_max               =   3.1523034572601E-01
(PID.TID 0000.0001) %MON forcing_fu_min               =  -2.5880938669046E-01
(PID.TID 0000.0001) %MON forcing_fu_mean              =   1.8384338332303E-02
(PID.TID 0000.0001) %MON forcing_fu_sd                =   9.3654975852564E-02
(PID.TID 0000.0001) %MON forcing_fu_del2              =   7.0776369504339E-04
(PID.TID 0000.0001) %MON forcing_fv_max               =   1.6049519777298E-01
(PID.TID 0000.0001) %MON forcing_fv_min               =  -1.8779096603394E-01
(PID.TID 0000.0001) %MON forcing_fv_mean              =  -7.3001517407161E-03
(PID.TID 0000.0001) %MON forcing_fv_sd                =   4.2910526443214E-02
(PID.TID 0000.0001) %MON forcing_fv_del2              =   4.8979344061927E-04
(PID.TID 0000.0001) %MON trAdv_CFL_u_max              =   4.5039976650428E-02
(PID.TID 0000.0001) %MON trAdv_CFL_v_max              =   2.9358757726770E-02
(PID.TID 0000.0001) %MON trAdv_CFL_w_max              =   3.8914790966781E-02
(PID.TID 0000.0001) %MON advcfl_uvel_max              =   4.3217605145602E-02
(PID.TID 0000.0001) %MON advcfl_vvel_max              =   2.7524614760363E-02
(PID.TID 0000.0001) %MON advcfl_wvel_max              =   4.1822277873295E-02
(PID.TID 0000.0001) %MON advcfl_W_hf_max              =   4.4897445363978E-02
(PID.TID 0000.0001) %MON pe_b_mean                    =   4.0339345939649E-04
(PID.TID 0000.0001) %MON ke_max                       =   1.6535839945507E-02
(PID.TID 0000.0001) %MON ke_mean                      =   1.7739579749299E-04
(PID.TID 0000.0001) %MON ke_vol                       =   1.3226782436723E+18
(PID.TID 0000.0001) %MON vort_r_min                   =  -4.9124128090447E-07
(PID.TID 0000.0001) %MON vort_r_max                   =   5.3066626647798E-07
(PID.TID 0000.0001) %MON vort_a_mean                  =  -2.5274807388686E-05
(PID.TID 0000.0001) %MON vort_a_sd                    =   7.3604369998826E-05
(PID.TID 0000.0001) %MON vort_p_mean                  =  -3.1845655788428E-05
(PID.TID 0000.0001) %MON vort_p_sd                    =   1.3162388429779E-04
(PID.TID 0000.0001) %MON surfExpan_theta_mean         =  -2.9156088106059E-07
(PID.TID 0000.0001) %MON surfExpan_salt_mean          =   2.5071390039717E-07
(PID.TID 0000.0001) // =======================================================
(PID.TID 0000.0001) // End MONITOR dynamic field statistics
(PID.TID 0000.0001) // =======================================================
 EXTERNAL_FIELDS_LOAD,        54 : iP,iLd,i0,i1=    2    3    2    3 ; Wght=  0.7000000000  0.3000000000
 EXTERNAL_FIELDS_LOAD: (fu0,1),fu,fv= -1.4435E-02 -2.7199E-02 -1.8264E-02 -1.2518E-02
 EXTERNAL_FIELDS_LOAD: SST,SSS,Q,E-P= -4.2747E-01  3.4469E+01  2.3296E+02  8.5883E-06
DEBUG_STATS_RL:          Uvel (THERMODYNAMICS)  min= -1.47403590467983E-01
DEBUG_STATS_RL:          Uvel (THERMODYNAMICS)  max=  1.65309268530100E-01
DEBUG_STATS_RL:          Uvel (THERMODYNAMICS) mean=  4.42702263039099E-03
DEBUG_STATS_RL:          Uvel (THERMODYNAMICS) S.D.=  2.37624716524050E-02
DEBUG_STATS_RL:          Vvel (THERMODYNAMICS)  min= -1.00272356283525E-01
DEBUG_STATS_RL:          Vvel (THERMODYNAMICS)  max=  1.41672089076178E-01
DEBUG_STATS_RL:          Vvel (THERMODYNAMICS) mean=  1.51607783522449E-03
DEBUG_STATS_RL:          Vvel (THERMODYNAMICS) S.D.=  1.54080665289216E-02
DEBUG_STATS_RL:          Wvel (THERMODYNAMICS)  min= -1.10252085765994E-04
DEBUG_STATS_RL:          Wvel (THERMODYNAMICS)  max=  1.76679761848989E-04
DEBUG_STATS_RL:          Wvel (THERMODYNAMICS) mean=  1.53567466372305E-08
DEBUG_STATS_RL:          Wvel (THERMODYNAMICS) S.D.=  1.31365403214285E-05
DEBUG_STATS_RL:         Theta (THERMODYNAMICS)  min= -1.97525271521173E+00
DEBUG_STATS_RL:         Theta (THERMODYNAMICS)  max=  3.04619834449250E+01
DEBUG_STATS_RL:         Theta (THERMODYNAMICS) mean=  3.23866688253570E+00
DEBUG_STATS_RL:         Theta (THERMODYNAMICS) S.D.=  5.87459093181176E+00
DEBUG_STATS_RL:          Salt (THERMODYNAMICS)  min=  2.00000000000000E-02
DEBUG_STATS_RL:          Salt (THERMODYNAMICS)  max=  3.74843176355249E+01
DEBUG_STATS_RL:          Salt (THERMODYNAMICS) mean=  1.88649040082625E+01
DEBUG_STATS_RL:          Salt (THERMODYNAMICS) S.D.=  1.73004250629005E+01
DEBUG_STATS_RL:         GtNm1 (THERMODYNAMICS)  min= -4.85335852916156E-06
DEBUG_STATS_RL:         GtNm1 (THERMODYNAMICS)  max=  2.78824254590095E-06
DEBUG_STATS_RL:         GtNm1 (THERMODYNAMICS) mean=  3.38328765483464E-09
DEBUG_STATS_RL:         GtNm1 (THERMODYNAMICS) S.D.=  1.91935631460051E-07
DEBUG_STATS_RL:         GsNm1 (THERMODYNAMICS)  min= -6.48369420361060E-07
DEBUG_STATS_RL:         GsNm1 (THERMODYNAMICS)  max=  4.73290554744399E-07
DEBUG_STATS_RL:         GsNm1 (THERMODYNAMICS) mean= -3.25020599936179E-10
DEBUG_STATS_RL:         GsNm1 (THERMODYNAMICS) S.D.=  1.96178605169114E-08
DEBUG_STATS_RL:                EtaN (DYNAMICS)  min= -1.71131287637937E+00
DEBUG_STATS_RL:                EtaN (DYNAMICS)  max=  7.41440104534462E-01
DEBUG_STATS_RL:                EtaN (DYNAMICS) mean= -1.75556237816315E-01
DEBUG_STATS_RL:                EtaN (DYNAMICS) S.D.=  6.58230888722596E-01
DEBUG_STATS_RL:                Uvel (DYNAMICS)  min= -1.47403590467983E-01
DEBUG_STATS_RL:                Uvel (DYNAMICS)  max=  1.65309268530100E-01
DEBUG_STATS_RL:                Uvel (DYNAMICS) mean=  4.42702263039099E-03
DEBUG_STATS_RL:                Uvel (DYNAMICS) S.D.=  2.37624716524050E-02
DEBUG_STATS_RL:                Vvel (DYNAMICS)  min= -1.00272356283525E-01
DEBUG_STATS_RL:                Vvel (DYNAMICS)  max=  1.41672089076178E-01
DEBUG_STATS_RL:                Vvel (DYNAMICS) mean=  1.51607783522449E-03
DEBUG_STATS_RL:                Vvel (DYNAMICS) S.D.=  1.54080665289216E-02
DEBUG_STATS_RL:                Wvel (DYNAMICS)  min= -1.10252085765994E-04
DEBUG_STATS_RL:                Wvel (DYNAMICS)  max=  1.76679761848989E-04
DEBUG_STATS_RL:                Wvel (DYNAMICS) mean=  1.53567466372305E-08
DEBUG_STATS_RL:                Wvel (DYNAMICS) S.D.=  1.31365403214285E-05
DEBUG_STATS_RL:               Theta (DYNAMICS)  min= -1.97525271521173E+00
DEBUG_STATS_RL:               Theta (DYNAMICS)  max=  3.04619834449250E+01
DEBUG_STATS_RL:               Theta (DYNAMICS) mean=  3.23866688253570E+00
DEBUG_STATS_RL:               Theta (DYNAMICS) S.D.=  5.87459093181176E+00
DEBUG_STATS_RL:                Salt (DYNAMICS)  min=  2.00000000000000E-02
DEBUG_STATS_RL:                Salt (DYNAMICS)  max=  3.74843176355249E+01
DEBUG_STATS_RL:                Salt (DYNAMICS) mean=  1.88649040082625E+01
DEBUG_STATS_RL:                Salt (DYNAMICS) S.D.=  1.73004250629005E+01
DEBUG_STATS_RL:                  Gu (DYNAMICS)  min= -1.44126509359583E-01
DEBUG_STATS_RL:                  Gu (DYNAMICS)  max=  1.62674376480507E-01
DEBUG_STATS_RL:                  Gu (DYNAMICS) mean=  4.59249746597876E-03
DEBUG_STATS_RL:                  Gu (DYNAMICS) S.D.=  2.38370598264166E-02
DEBUG_STATS_RL:                  Gv (DYNAMICS)  min= -9.62774285645944E-02
DEBUG_STATS_RL:                  Gv (DYNAMICS)  max=  1.44272636853759E-01
DEBUG_STATS_RL:                  Gv (DYNAMICS) mean=  3.70968949515807E-03
DEBUG_STATS_RL:                  Gv (DYNAMICS) S.D.=  1.68836862424471E-02
DEBUG_STATS_RL:               GuNm1 (DYNAMICS)  min= -9.66760711204868E-06
DEBUG_STATS_RL:               GuNm1 (DYNAMICS)  max=  9.22941675307275E-06
DEBUG_STATS_RL:               GuNm1 (DYNAMICS) mean=  6.13767989089322E-09
DEBUG_STATS_RL:               GuNm1 (DYNAMICS) S.D.=  1.19723963206977E-06
DEBUG_STATS_RL:               GvNm1 (DYNAMICS)  min= -9.39384573881156E-06
DEBUG_STATS_RL:               GvNm1 (DYNAMICS)  max=  1.62847554039585E-05
DEBUG_STATS_RL:               GvNm1 (DYNAMICS) mean=  7.44506207135801E-07
DEBUG_STATS_RL:               GvNm1 (DYNAMICS) S.D.=  2.63200071752593E-06
DEBUG_STATS_RL:               GtNm1 (DYNAMICS)  min= -4.85335852916156E-06
DEBUG_STATS_RL:               GtNm1 (DYNAMICS)  max=  2.78824254590095E-06
DEBUG_STATS_RL:               GtNm1 (DYNAMICS) mean=  3.38328765483464E-09
DEBUG_STATS_RL:               GtNm1 (DYNAMICS) S.D.=  1.91935631460051E-07
DEBUG_STATS_RL:               GsNm1 (DYNAMICS)  min= -6.48369420361060E-07
DEBUG_STATS_RL:               GsNm1 (DYNAMICS)  max=  4.73290554744399E-07
DEBUG_STATS_RL:               GsNm1 (DYNAMICS) mean= -3.25020599936179E-10
DEBUG_STATS_RL:               GsNm1 (DYNAMICS) S.D.=  1.96178605169114E-08
DEBUG_STATS_RL:    cg2d_b (SOLVE_FOR_PRESSURE)  min= -2.11996817156844E+04
DEBUG_STATS_RL:    cg2d_b (SOLVE_FOR_PRESSURE)  max=  2.47165501330986E+04
DEBUG_STATS_RL:    cg2d_b (SOLVE_FOR_PRESSURE) mean=  3.96052272235738E+00
DEBUG_STATS_RL:    cg2d_b (SOLVE_FOR_PRESSURE) S.D.=  3.85759764936953E+03
 cg2d: Sum(rhs),rhsMax =   3.70950235889896E-01  1.62344918946875E+00
(PID.TID 0000.0001)  cg2d: iter=     1 ; resid.=  2.10246185598181E-01
(PID.TID 0000.0001)  cg2d: iter=     2 ; resid.=  2.06142986076588E-01
(PID.TID 0000.0001)  cg2d: iter=     3 ; resid.=  1.89139791452735E-01
(PID.TID 0000.0001)  cg2d: iter=     4 ; resid.=  1.72008425497571E-01
(PID.TID 0000.0001)  cg2d: iter=     5 ; resid.=  1.69689806683363E-01
(PID.TID 0000.0001)  cg2d: iter=     6 ; resid.=  1.42840589356801E-01
(PID.TID 0000.0001)  cg2d: iter=     7 ; resid.=  1.15958347928074E-01
(PID.TID 0000.0001)  cg2d: iter=     8 ; resid.=  8.37851668462680E-02
(PID.TID 0000.0001)  cg2d: iter=     9 ; resid.=  6.44745637661989E-02
(PID.TID 0000.0001)  cg2d: iter=    10 ; resid.=  5.49817453462708E-02
(PID.TID 0000.0001)  cg2d: iter=    11 ; resid.=  5.02596174300043E-02
(PID.TID 0000.0001)  cg2d: iter=    12 ; resid.=  4.22649978702319E-02
(PID.TID 0000.0001)  cg2d: iter=    13 ; resid.=  3.52026877575729E-02
(PID.TID 0000.0001)  cg2d: iter=    14 ; resid.=  2.81920568603917E-02
(PID.TID 0000.0001)  cg2d: iter=    15 ; resid.=  2.20981805664844E-02
(PID.TID 0000.0001)  cg2d: iter=    16 ; resid.=  1.99469408395879E-02
(PID.TID 0000.0001)  cg2d: iter=    17 ; resid.=  1.69626196015292E-02
(PID.TID 0000.0001)  cg2d: iter=    18 ; resid.=  1.55953659688244E-02
(PID.TID 0000.0001)  cg2d: iter=    19 ; resid.=  1.21607079326765E-02
(PID.TID 0000.0001)  cg2d: iter=    20 ; resid.=  9.53256342306682E-03
(PID.TID 0000.0001)  cg2d: iter=    21 ; resid.=  7.94534744367970E-03
(PID.TID 0000.0001)  cg2d: iter=    22 ; resid.=  6.99072171969763E-03
(PID.TID 0000.0001)  cg2d: iter=    23 ; resid.=  5.74348025270448E-03
(PID.TID 0000.0001)  cg2d: iter=    24 ; resid.=  5.18508167008172E-03
(PID.TID 0000.0001)  cg2d: iter=    25 ; resid.=  4.23815659674772E-03
(PID.TID 0000.0001)  cg2d: iter=    26 ; resid.=  3.31074729616783E-03
(PID.TID 0000.0001)  cg2d: iter=    27 ; resid.=  2.72440012322023E-03
(PID.TID 0000.0001)  cg2d: iter=    28 ; resid.=  2.07794671847122E-03
(PID.TID 0000.0001)  cg2d: iter=    29 ; resid.=  1.64452521087073E-03
(PID.TID 0000.0001)  cg2d: iter=    30 ; resid.=  1.37990754408018E-03
(PID.TID 0000.0001)  cg2d: iter=    31 ; resid.=  1.18085925217570E-03
(PID.TID 0000.0001)  cg2d: iter=    32 ; resid.=  9.61083020507001E-04
(PID.TID 0000.0001)  cg2d: iter=    33 ; resid.=  7.90753446393955E-04
(PID.TID 0000.0001)  cg2d: iter=    34 ; resid.=  6.82559273277706E-04
(PID.TID 0000.0001)  cg2d: iter=    35 ; resid.=  5.64919525700367E-04
(PID.TID 0000.0001)  cg2d: iter=    36 ; resid.=  4.96572000337101E-04
(PID.TID 0000.0001)  cg2d: iter=    37 ; resid.=  4.24318842592113E-04
(PID.TID 0000.0001)  cg2d: iter=    38 ; resid.=  3.94636986133047E-04
(PID.TID 0000.0001)  cg2d: iter=    39 ; resid.=  3.37657245725195E-04
(PID.TID 0000.0001)  cg2d: iter=    40 ; resid.=  2.89072764835147E-04
(PID.TID 0000.0001)  cg2d: iter=    41 ; resid.=  2.54057363605580E-04
(PID.TID 0000.0001)  cg2d: iter=    42 ; resid.=  2.13274718700409E-04
(PID.TID 0000.0001)  cg2d: iter=    43 ; resid.=  1.67980552054549E-04
(PID.TID 0000.0001)  cg2d: iter=    44 ; resid.=  1.32870372867622E-04
(PID.TID 0000.0001)  cg2d: iter=    45 ; resid.=  1.01204632592587E-04
(PID.TID 0000.0001)  cg2d: iter=    46 ; resid.=  8.05464511372493E-05
(PID.TID 0000.0001)  cg2d: iter=    47 ; resid.=  7.07885164075263E-05
(PID.TID 0000.0001)  cg2d: iter=    48 ; resid.=  5.70008457003706E-05
(PID.TID 0000.0001)  cg2d: iter=    49 ; resid.=  4.93961437730975E-05
(PID.TID 0000.0001)  cg2d: iter=    50 ; resid.=  4.33060994544656E-05
(PID.TID 0000.0001)  cg2d: iter=    51 ; resid.=  3.90421445219587E-05
(PID.TID 0000.0001)  cg2d: iter=    52 ; resid.=  3.39331745754279E-05
(PID.TID 0000.0001)  cg2d: iter=    53 ; resid.=  2.68134744334226E-05
(PID.TID 0000.0001)  cg2d: iter=    54 ; resid.=  2.14878082644344E-05
(PID.TID 0000.0001)  cg2d: iter=    55 ; resid.=  1.80849146103891E-05
(PID.TID 0000.0001)  cg2d: iter=    56 ; resid.=  1.55303407551951E-05
(PID.TID 0000.0001)  cg2d: iter=    57 ; resid.=  1.24852672516806E-05
(PID.TID 0000.0001)  cg2d: iter=    58 ; resid.=  9.96701044015820E-06
(PID.TID 0000.0001)  cg2d: iter=    59 ; resid.=  7.80987377155820E-06
(PID.TID 0000.0001)  cg2d: iter=    60 ; resid.=  5.65287402298291E-06
(PID.TID 0000.0001)  cg2d: iter=    61 ; resid.=  4.66291959969327E-06
(PID.TID 0000.0001)  cg2d: iter=    62 ; resid.=  4.10065897271760E-06
(PID.TID 0000.0001)  cg2d: iter=    63 ; resid.=  3.50478984661963E-06
(PID.TID 0000.0001)  cg2d: iter=    64 ; resid.=  2.92890205857663E-06
(PID.TID 0000.0001)  cg2d: iter=    65 ; resid.=  2.31301168395980E-06
(PID.TID 0000.0001)  cg2d: iter=    66 ; resid.=  1.97781477395629E-06
(PID.TID 0000.0001)  cg2d: iter=    67 ; resid.=  1.72376574539861E-06
(PID.TID 0000.0001)  cg2d: iter=    68 ; resid.=  1.39513480158486E-06
(PID.TID 0000.0001)  cg2d: iter=    69 ; resid.=  1.22132714417374E-06
(PID.TID 0000.0001)  cg2d: iter=    70 ; resid.=  1.03132816894834E-06
(PID.TID 0000.0001)  cg2d: iter=    71 ; resid.=  8.42649642242625E-07
(PID.TID 0000.0001)  cg2d: iter=    72 ; resid.=  6.85505932045401E-07
(PID.TID 0000.0001)  cg2d: iter=    73 ; resid.=  5.81461070289404E-07
(PID.TID 0000.0001)  cg2d: iter=    74 ; resid.=  4.68087452438309E-07
(PID.TID 0000.0001)  cg2d: iter=    75 ; resid.=  3.76010343040089E-07
(PID.TID 0000.0001)  cg2d: iter=    76 ; resid.=  3.27828052333407E-07
(PID.TID 0000.0001)  cg2d: iter=    77 ; resid.=  2.78581454029076E-07
(PID.TID 0000.0001)  cg2d: iter=    78 ; resid.=  2.14697826916859E-07
(PID.TID 0000.0001)  cg2d: iter=    79 ; resid.=  1.64988331613873E-07
(PID.TID 0000.0001)  cg2d: iter=    80 ; resid.=  1.22181450789679E-07
(PID.TID 0000.0001)  cg2d: iter=    81 ; resid.=  9.33046615580032E-08
(PID.TID 0000.0001)  cg2d: iter=    82 ; resid.=  6.98458773877065E-08
(PID.TID 0000.0001)  cg2d: iter=    83 ; resid.=  5.01246876278801E-08
(PID.TID 0000.0001)  cg2d: iter=    84 ; resid.=  3.46685714603385E-08
(PID.TID 0000.0001)  cg2d: iter=    85 ; resid.=  2.51191578779364E-08
(PID.TID 0000.0001)  cg2d: iter=    86 ; resid.=  1.85819503885407E-08
(PID.TID 0000.0001)  cg2d: iter=    87 ; resid.=  1.51577219119262E-08
(PID.TID 0000.0001)  cg2d: iter=    88 ; resid.=  1.17098250670076E-08
(PID.TID 0000.0001)  cg2d: iter=    89 ; resid.=  9.79196933776572E-09
(PID.TID 0000.0001)  cg2d: iter=    90 ; resid.=  7.94503442919263E-09
(PID.TID 0000.0001)  cg2d: iter=    91 ; resid.=  5.76400656463678E-09
(PID.TID 0000.0001)  cg2d: iter=    92 ; resid.=  4.11891057498614E-09
(PID.TID 0000.0001)  cg2d: iter=    93 ; resid.=  3.44435640018735E-09
(PID.TID 0000.0001)  cg2d: iter=    94 ; resid.=  2.81680981841039E-09
(PID.TID 0000.0001)  cg2d: iter=    95 ; resid.=  2.38855373779820E-09
(PID.TID 0000.0001)  cg2d: iter=    96 ; resid.=  1.80594026210735E-09
(PID.TID 0000.0001)  cg2d: iter=    97 ; resid.=  1.39509152749809E-09
(PID.TID 0000.0001)  cg2d: iter=    98 ; resid.=  1.17178517247683E-09
(PID.TID 0000.0001)  cg2d: iter=    99 ; resid.=  9.84878652052170E-10
(PID.TID 0000.0001)  cg2d: iter=   100 ; resid.=  9.33079582448514E-10
(PID.TID 0000.0001)  cg2d: iter=   101 ; resid.=  7.53784433345804E-10
(PID.TID 0000.0001)  cg2d: iter=   102 ; resid.=  6.12643614772941E-10
(PID.TID 0000.0001)  cg2d: iter=   103 ; resid.=  4.62843144455888E-10
(PID.TID 0000.0001)  cg2d: iter=   104 ; resid.=  3.64703782375556E-10
(PID.TID 0000.0001)  cg2d: iter=   105 ; resid.=  2.95517336676097E-10
(PID.TID 0000.0001)  cg2d: iter=   106 ; resid.=  2.51772965347701E-10
(PID.TID 0000.0001)  cg2d: iter=   107 ; resid.=  1.99177902913647E-10
(PID.TID 0000.0001)  cg2d: iter=   108 ; resid.=  1.50743130534387E-10
(PID.TID 0000.0001)  cg2d: iter=   109 ; resid.=  1.12313026987906E-10
(PID.TID 0000.0001)  cg2d: iter=   110 ; resid.=  8.57208016848816E-11
(PID.TID 0000.0001)  cg2d: iter=   111 ; resid.=  6.68753098015000E-11
(PID.TID 0000.0001)  cg2d: iter=   112 ; resid.=  4.88134501251894E-11
(PID.TID 0000.0001)  cg2d: iter=   113 ; resid.=  3.62819181065109E-11
(PID.TID 0000.0001)  cg2d: iter=   114 ; resid.=  2.89987236496132E-11
(PID.TID 0000.0001)  cg2d: iter=   115 ; resid.=  2.24440185994458E-11
(PID.TID 0000.0001)  cg2d: iter=   116 ; resid.=  1.74703893751270E-11
(PID.TID 0000.0001)  cg2d: iter=   117 ; resid.=  1.42143461949022E-11
(PID.TID 0000.0001)  cg2d: iter=   118 ; resid.=  1.24296829711558E-11
(PID.TID 0000.0001)  cg2d: iter=   119 ; resid.=  8.91507482162392E-12
(PID.TID 0000.0001)  cg2d: iter=   120 ; resid.=  6.68386670725699E-12
(PID.TID 0000.0001)  cg2d: iter=   121 ; resid.=  5.31801299520185E-12
(PID.TID 0000.0001)  cg2d: iter=   122 ; resid.=  4.31104921671152E-12
(PID.TID 0000.0001)  cg2d: iter=   123 ; resid.=  3.24981789240870E-12
(PID.TID 0000.0001)  cg2d: iter=   124 ; resid.=  2.34989377164028E-12
(PID.TID 0000.0001)  cg2d: iter=   125 ; resid.=  1.64167520783108E-12
(PID.TID 0000.0001)  cg2d: iter=   126 ; resid.=  1.06998317575015E-12
(PID.TID 0000.0001)  cg2d: iter=   127 ; resid.=  7.53648933408975E-13
(PID.TID 0000.0001)  cg2d: iter=   128 ; resid.=  5.44596632295708E-13
(PID.TID 0000.0001)  cg2d: iter=   129 ; resid.=  4.26741352511941E-13
(PID.TID 0000.0001)  cg2d: iter=   130 ; resid.=  3.34112844231811E-13
(PID.TID 0000.0001)  cg2d: iter=   131 ; resid.=  2.36713772345076E-13
(PID.TID 0000.0001)  cg2d: iter=   132 ; resid.=  1.76239576559762E-13
(PID.TID 0000.0001)  cg2d: iter=   133 ; resid.=  1.41247419261774E-13
(PID.TID 0000.0001)  cg2d: iter=   134 ; resid.=  1.13834665020811E-13
(PID.TID 0000.0001)  cg2d: iter=   135 ; resid.=  8.56864639301135E-14
DEBUG_STATS_RL:    cg2d_x (SOLVE_FOR_PRESSURE)  min= -1.73502260881362E+01
DEBUG_STATS_RL:    cg2d_x (SOLVE_FOR_PRESSURE)  max=  7.46019234545764E+00
DEBUG_STATS_RL:    cg2d_x (SOLVE_FOR_PRESSURE) mean= -1.70041967542496E+00
DEBUG_STATS_RL:    cg2d_x (SOLVE_FOR_PRESSURE) S.D.=  6.43461585099254E+00
(PID.TID 0000.0001)      cg2d_init_res =   3.63505901883831E-01
(PID.TID 0000.0001)      cg2d_iters(min,last) =      -1     135
(PID.TID 0000.0001)      cg2d_last_res =   8.56864639301135E-14
(PID.TID 0000.0001) // =======================================================
(PID.TID 0000.0001) // Begin MONITOR dynamic field statistics
(PID.TID 0000.0001) // =======================================================
(PID.TID 0000.0001) %MON time_tsnumber                =                    55
(PID.TID 0000.0001) %MON time_secondsf                =   4.7520000000000E+06
(PID.TID 0000.0001) %MON dynstat_eta_max              =   7.6046812899668E-01
(PID.TID 0000.0001) %MON dynstat_eta_min              =  -1.7686265125520E+00
(PID.TID 0000.0001) %MON dynstat_eta_mean             =  -4.1323143721754E-03
(PID.TID 0000.0001) %MON dynstat_eta_sd               =   5.5849737160409E-01
(PID.TID 0000.0001) %MON dynstat_eta_del2             =   2.3678418378911E-03
(PID.TID 0000.0001) %MON dynstat_uvel_max             =   1.5721707138212E-01
(PID.TID 0000.0001) %MON dynstat_uvel_min             =  -1.4544795412327E-01
(PID.TID 0000.0001) %MON dynstat_uvel_mean            =   1.1608891936262E-03
(PID.TID 0000.0001) %MON dynstat_uvel_sd              =   1.6820676696646E-02
(PID.TID 0000.0001) %MON dynstat_uvel_del2            =   1.0305366231940E-04
(PID.TID 0000.0001) %MON dynstat_vvel_max             =   1.4246046061901E-01
(PID.TID 0000.0001) %MON dynstat_vvel_min             =  -9.7404055170368E-02
(PID.TID 0000.0001) %MON dynstat_vvel_mean            =   1.3468659765439E-04
(PID.TID 0000.0001) %MON dynstat_vvel_sd              =   1.0138010340715E-02
(PID.TID 0000.0001) %MON dynstat_vvel_del2            =   8.2272232277903E-05
(PID.TID 0000.0001) %MON dynstat_wvel_max             =   1.7201280892299E-04
(PID.TID 0000.0001) %MON dynstat_wvel_min             =  -1.0701597073023E-04
(PID.TID 0000.0001) %MON dynstat_wvel_mean            =  -1.1725354977930E-22
(PID.TID 0000.0001) %MON dynstat_wvel_sd              =   1.4818240853178E-05
(PID.TID 0000.0001) %MON dynstat_wvel_del2            =   1.4715781685727E-07
(PID.TID 0000.0001) %MON dynstat_theta_max            =   3.0461983444925E+01
(PID.TID 0000.0001) %MON dynstat_theta_min            =  -1.9752527152117E+00
(PID.TID 0000.0001) %MON dynstat_theta_mean           =   3.6428731558955E+00
(PID.TID 0000.0001) %MON dynstat_theta_sd             =   4.4226702644456E+00
(PID.TID 0000.0001) %MON dynstat_theta_del2           =   4.8623073716293E-03
(PID.TID 0000.0001) %MON dynstat_salt_max             =   3.7484317635525E+01
(PID.TID 0000.0001) %MON dynstat_salt_min             =   2.9875882603027E+01
(PID.TID 0000.0001) %MON dynstat_salt_mean            =   3.4737972028543E+01
(PID.TID 0000.0001) %MON dynstat_salt_sd              =   2.9638475885885E-01
(PID.TID 0000.0001) %MON dynstat_salt_del2            =   9.8975076008260E-04
(PID.TID 0000.0001) %MON dynstat_sst_max              =   3.0461983444925E+01
(PID.TID 0000.0001) %MON dynstat_sst_min              =  -1.9752527152117E+00
(PID.TID 0000.0001) %MON dynstat_sst_mean             =   1.8980244902782E+01
(PID.TID 0000.0001) %MON dynstat_sst_sd               =   9.0421101438173E+00
(PID.TID 0000.0001) %MON dynstat_sst_del2             =   2.7717750571450E-02
(PID.TID 0000.0001) %MON dynstat_sss_max              =   3.7459041741097E+01
(PID.TID 0000.0001) %MON dynstat_sss_min              =   2.9875882603027E+01
(PID.TID 0000.0001) %MON dynstat_sss_mean             =   3.4862437151315E+01
(PID.TID 0000.0001) %MON dynstat_sss_sd               =   9.7913227377387E-01
(PID.TID 0000.0001) %MON dynstat_sss_del2             =   7.9503826642116E-03
(PID.TID 0000.0001) %MON forcing_qnet_max             =   3.3326887512207E+02
(PID.TID 0000.0001) %MON forcing_qnet_min             =  -1.7014045562744E+02
(PID.TID 0000.0001) %MON forcing_qnet_mean            =  -1.1955195482304E+01
(PID.TID 0000.0001) %MON forcing_qnet_sd              =   6.7256363910996E+01
(PID.TID 0000.0001) %MON forcing_qnet_del2            =   9.0397400238124E-01
(PID.TID 0000.0001) %MON forcing_qsw_max              =   0.0000000000000E+00
(PID.TID 0000.0001) %MON forcing_qsw_min              =   0.0000000000000E+00
(PID.TID 0000.0001) %MON forcing_qsw_mean             =   0.0000000000000E+00
(PID.TID 0000.0001) %MON forcing_qsw_sd               =   0.0000000000000E+00
(PID.TID 0000.0001) %MON forcing_qsw_del2             =   0.0000000000000E+00
(PID.TID 0000.0001) %MON forcing_empmr_max            =   6.9229704990903E-05
(PID.TID 0000.0001) %MON forcing_empmr_min            =  -7.4881646128233E-05
(PID.TID 0000.0001) %MON forcing_empmr_mean           =   8.2559960204017E-07
(PID.TID 0000.0001) %MON forcing_empmr_sd             =   2.7255145290589E-05
(PID.TID 0000.0001) %MON forcing_empmr_del2           =   3.5320210303148E-07
(PID.TID 0000.0001) %MON forcing_fu_max               =   3.1678166687489E-01
(PID.TID 0000.0001) %MON forcing_fu_min               =  -2.6419401615858E-01
(PID.TID 0000.0001) %MON forcing_fu_mean              =   1.8478537921761E-02
(PID.TID 0000.0001) %MON forcing_fu_sd                =   9.3831537675814E-02
(PID.TID 0000.0001) %MON forcing_fu_del2              =   7.0632006807691E-04
(PID.TID 0000.0001) %MON forcing_fv_max               =   1.5941785573959E-01
(PID.TID 0000.0001) %MON forcing_fv_min               =  -1.8630492985249E-01
(PID.TID 0000.0001) %MON forcing_fv_mean              =  -7.3105800906856E-03
(PID.TID 0000.0001) %MON forcing_fv_sd                =   4.2714976969337E-02
(PID.TID 0000.0001) %MON forcing_fv_del2              =   4.8525323250971E-04
(PID.TID 0000.0001) %MON trAdv_CFL_u_max              =   4.3226382950304E-02
(PID.TID 0000.0001) %MON trAdv_CFL_v_max              =   2.8688892680178E-02
(PID.TID 0000.0001) %MON trAdv_CFL_w_max              =   3.9141362625007E-02
(PID.TID 0000.0001) %MON advcfl_uvel_max              =   4.1102022733245E-02
(PID.TID 0000.0001) %MON advcfl_vvel_max              =   2.7677782707176E-02
(PID.TID 0000.0001) %MON advcfl_wvel_max              =   4.0717552577936E-02
(PID.TID 0000.0001) %MON advcfl_W_hf_max              =   4.4689839387231E-02
(PID.TID 0000.0001) %MON pe_b_mean                    =   3.9916020972283E-04
(PID.TID 0000.0001) %MON ke_max                       =   1.6539806253930E-02
(PID.TID 0000.0001) %MON ke_mean                      =   1.7530424750461E-04
(PID.TID 0000.0001) %MON ke_vol                       =   1.3226782436723E+18
(PID.TID 0000.0001) %MON vort_r_min                   =  -4.8145123083935E-07
(PID.TID 0000.0001) %MON vort_r_max                   =   5.3971196157364E-07
(PID.TID 0000.0001) %MON vort_a_mean                  =  -2.5274807506920E-05
(PID.TID 0000.0001) %MON vort_a_sd                    =   7.3604395493387E-05
(PID.TID 0000.0001) %MON vort_p_mean                  =  -3.1845655937400E-05
(PID.TID 0000.0001) %MON vort_p_sd                    =   1.3162392108218E-04
(PID.TID 0000.0001) %MON surfExpan_theta_mean         =  -2.6782951120715E-07
(PID.TID 0000.0001) %MON surfExpan_salt_mean          =   2.2672888790420E-07
(PID.TID 0000.0001) // =======================================================
(PID.TID 0000.0001) // End MONITOR dynamic field statistics
(PID.TID 0000.0001) // =======================================================
 EXTERNAL_FIELDS_LOAD,        55 : iP,iLd,i0,i1=    2    3    2    3 ; Wght=  0.6666666667  0.3333333333
 EXTERNAL_FIELDS_LOAD: (fu0,1),fu,fv= -1.4435E-02 -2.7199E-02 -1.8689E-02 -1.1950E-02
 EXTERNAL_FIELDS_LOAD: SST,SSS,Q,E-P= -4.1587E-01  3.4474E+01  2.3212E+02  8.6117E-06
DEBUG_STATS_RL:          Uvel (THERMODYNAMICS)  min= -1.45447954123273E-01
DEBUG_STATS_RL:          Uvel (THERMODYNAMICS)  max=  1.57217071382118E-01
DEBUG_STATS_RL:          Uvel (THERMODYNAMICS) mean=  4.68124446991439E-03
DEBUG_STATS_RL:          Uvel (THERMODYNAMICS) S.D.=  2.35351274752266E-02
DEBUG_STATS_RL:          Vvel (THERMODYNAMICS)  min= -9.74040551703680E-02
DEBUG_STATS_RL:          Vvel (THERMODYNAMICS)  max=  1.42460460619008E-01
DEBUG_STATS_RL:          Vvel (THERMODYNAMICS) mean=  1.44178332813333E-03
DEBUG_STATS_RL:          Vvel (THERMODYNAMICS) S.D.=  1.53669036683255E-02
DEBUG_STATS_RL:          Wvel (THERMODYNAMICS)  min= -1.07015970730226E-04
DEBUG_STATS_RL:          Wvel (THERMODYNAMICS)  max=  1.72012808922994E-04
DEBUG_STATS_RL:          Wvel (THERMODYNAMICS) mean=  4.41513520031617E-11
DEBUG_STATS_RL:          Wvel (THERMODYNAMICS) S.D.=  1.29325681545029E-05
DEBUG_STATS_RL:         Theta (THERMODYNAMICS)  min= -1.97348133446122E+00
DEBUG_STATS_RL:         Theta (THERMODYNAMICS)  max=  3.04905388263496E+01
DEBUG_STATS_RL:         Theta (THERMODYNAMICS) mean=  3.23880563353128E+00
DEBUG_STATS_RL:         Theta (THERMODYNAMICS) S.D.=  5.87517772358783E+00
DEBUG_STATS_RL:          Salt (THERMODYNAMICS)  min=  2.00000000000000E-02
DEBUG_STATS_RL:          Salt (THERMODYNAMICS)  max=  3.74847975364962E+01
DEBUG_STATS_RL:          Salt (THERMODYNAMICS) mean=  1.88648889559134E+01
DEBUG_STATS_RL:          Salt (THERMODYNAMICS) S.D.=  1.73004115037335E+01
DEBUG_STATS_RL:         GtNm1 (THERMODYNAMICS)  min= -4.01175724751456E-06
DEBUG_STATS_RL:         GtNm1 (THERMODYNAMICS)  max=  2.51202404646774E-06
DEBUG_STATS_RL:         GtNm1 (THERMODYNAMICS) mean=  3.24679115635504E-09
DEBUG_STATS_RL:         GtNm1 (THERMODYNAMICS) S.D.=  1.88791454025391E-07
DEBUG_STATS_RL:         GsNm1 (THERMODYNAMICS)  min= -5.67945489450061E-07
DEBUG_STATS_RL:         GsNm1 (THERMODYNAMICS)  max=  4.13238854265257E-07
DEBUG_STATS_RL:         GsNm1 (THERMODYNAMICS) mean= -3.68979115760176E-10
DEBUG_STATS_RL:         GsNm1 (THERMODYNAMICS) S.D.=  1.90992025708793E-08
DEBUG_STATS_RL:                EtaN (DYNAMICS)  min= -1.76862651255200E+00
DEBUG_STATS_RL:                EtaN (DYNAMICS)  max=  7.60468128996685E-01
DEBUG_STATS_RL:                EtaN (DYNAMICS) mean= -1.73335338983178E-01
DEBUG_STATS_RL:                EtaN (DYNAMICS) S.D.=  6.55924143832067E-01
DEBUG_STATS_RL:                Uvel (DYNAMICS)  min= -1.45447954123273E-01
DEBUG_STATS_RL:                Uvel (DYNAMICS)  max=  1.57217071382118E-01
DEBUG_STATS_RL:                Uvel (DYNAMICS) mean=  4.68124446991439E-03
DEBUG_STATS_RL:                Uvel (DYNAMICS) S.D.=  2.35351274752266E-02
DEBUG_STATS_RL:                Vvel (DYNAMICS)  min= -9.74040551703680E-02
DEBUG_STATS_RL:                Vvel (DYNAMICS)  max=  1.42460460619008E-01
DEBUG_STATS_RL:                Vvel (DYNAMICS) mean=  1.44178332813333E-03
DEBUG_STATS_RL:                Vvel (DYNAMICS) S.D.=  1.53669036683255E-02
DEBUG_STATS_RL:                Wvel (DYNAMICS)  min= -1.07015970730226E-04
DEBUG_STATS_RL:                Wvel (DYNAMICS)  max=  1.72012808922994E-04
DEBUG_STATS_RL:                Wvel (DYNAMICS) mean=  4.41513520031617E-11
DEBUG_STATS_RL:                Wvel (DYNAMICS) S.D.=  1.29325681545029E-05
DEBUG_STATS_RL:               Theta (DYNAMICS)  min= -1.97348133446122E+00
DEBUG_STATS_RL:               Theta (DYNAMICS)  max=  3.04905388263496E+01
DEBUG_STATS_RL:               Theta (DYNAMICS) mean=  3.23880563353128E+00
DEBUG_STATS_RL:               Theta (DYNAMICS) S.D.=  5.87517772358783E+00
DEBUG_STATS_RL:                Salt (DYNAMICS)  min=  2.00000000000000E-02
DEBUG_STATS_RL:                Salt (DYNAMICS)  max=  3.74847975364962E+01
DEBUG_STATS_RL:                Salt (DYNAMICS) mean=  1.88648889559134E+01
DEBUG_STATS_RL:                Salt (DYNAMICS) S.D.=  1.73004115037335E+01
DEBUG_STATS_RL:                  Gu (DYNAMICS)  min= -1.41973867789412E-01
DEBUG_STATS_RL:                  Gu (DYNAMICS)  max=  1.53736738849564E-01
DEBUG_STATS_RL:                  Gu (DYNAMICS) mean=  4.83593195826413E-03
DEBUG_STATS_RL:                  Gu (DYNAMICS) S.D.=  2.36490560543113E-02
DEBUG_STATS_RL:                  Gv (DYNAMICS)  min= -9.68115612143721E-02
DEBUG_STATS_RL:                  Gv (DYNAMICS)  max=  1.44830301112022E-01
DEBUG_STATS_RL:                  Gv (DYNAMICS) mean=  3.66924551695375E-03
DEBUG_STATS_RL:                  Gv (DYNAMICS) S.D.=  1.68268002710081E-02
DEBUG_STATS_RL:               GuNm1 (DYNAMICS)  min= -9.68946124181600E-06
DEBUG_STATS_RL:               GuNm1 (DYNAMICS)  max=  9.27994775561188E-06
DEBUG_STATS_RL:               GuNm1 (DYNAMICS) mean=  6.85621400326356E-09
DEBUG_STATS_RL:               GuNm1 (DYNAMICS) S.D.=  1.19878402980828E-06
DEBUG_STATS_RL:               GvNm1 (DYNAMICS)  min= -9.46699305943805E-06
DEBUG_STATS_RL:               GvNm1 (DYNAMICS)  max=  1.62242659888724E-05
DEBUG_STATS_RL:               GvNm1 (DYNAMICS) mean=  7.44533513340412E-07
DEBUG_STATS_RL:               GvNm1 (DYNAMICS) S.D.=  2.63660457587567E-06
DEBUG_STATS_RL:               GtNm1 (DYNAMICS)  min= -4.01175724751456E-06
DEBUG_STATS_RL:               GtNm1 (DYNAMICS)  max=  2.51202404646774E-06
DEBUG_STATS_RL:               GtNm1 (DYNAMICS) mean=  3.24679115635504E-09
DEBUG_STATS_RL:               GtNm1 (DYNAMICS) S.D.=  1.88791454025391E-07
DEBUG_STATS_RL:               GsNm1 (DYNAMICS)  min= -5.67945489450061E-07
DEBUG_STATS_RL:               GsNm1 (DYNAMICS)  max=  4.13238854265257E-07
DEBUG_STATS_RL:               GsNm1 (DYNAMICS) mean= -3.68979115760176E-10
DEBUG_STATS_RL:               GsNm1 (DYNAMICS) S.D.=  1.90992025708793E-08
DEBUG_STATS_RL:    cg2d_b (SOLVE_FOR_PRESSURE)  min= -2.05672434776234E+04
DEBUG_STATS_RL:    cg2d_b (SOLVE_FOR_PRESSURE)  max=  2.50893628702156E+04
DEBUG_STATS_RL:    cg2d_b (SOLVE_FOR_PRESSURE) mean=  4.02552986649595E+00
DEBUG_STATS_RL:    cg2d_b (SOLVE_FOR_PRESSURE) S.D.=  3.87479803779749E+03
 cg2d: Sum(rhs),rhsMax =   3.71436360865189E-01  1.64793652822100E+00
(PID.TID 0000.0001)  cg2d: iter=     1 ; resid.=  1.96190829303189E-01
(PID.TID 0000.0001)  cg2d: iter=     2 ; resid.=  1.83412000573555E-01
(PID.TID 0000.0001)  cg2d: iter=     3 ; resid.=  1.66599487148757E-01
(PID.TID 0000.0001)  cg2d: iter=     4 ; resid.=  1.52109541482674E-01
(PID.TID 0000.0001)  cg2d: iter=     5 ; resid.=  1.44115445469087E-01
(PID.TID 0000.0001)  cg2d: iter=     6 ; resid.=  1.21626153554423E-01
(PID.TID 0000.0001)  cg2d: iter=     7 ; resid.=  1.02898101849939E-01
(PID.TID 0000.0001)  cg2d: iter=     8 ; resid.=  7.68869488258959E-02
(PID.TID 0000.0001)  cg2d: iter=     9 ; resid.=  6.00107510225034E-02
(PID.TID 0000.0001)  cg2d: iter=    10 ; resid.=  5.19238844001817E-02
(PID.TID 0000.0001)  cg2d: iter=    11 ; resid.=  4.73594995300832E-02
(PID.TID 0000.0001)  cg2d: iter=    12 ; resid.=  3.86967498893642E-02
(PID.TID 0000.0001)  cg2d: iter=    13 ; resid.=  3.14361035566014E-02
(PID.TID 0000.0001)  cg2d: iter=    14 ; resid.=  2.50765860766401E-02
(PID.TID 0000.0001)  cg2d: iter=    15 ; resid.=  2.01197643800906E-02
(PID.TID 0000.0001)  cg2d: iter=    16 ; resid.=  1.82153663392123E-02
(PID.TID 0000.0001)  cg2d: iter=    17 ; resid.=  1.57089722401214E-02
(PID.TID 0000.0001)  cg2d: iter=    18 ; resid.=  1.45246956992923E-02
(PID.TID 0000.0001)  cg2d: iter=    19 ; resid.=  1.11841311255776E-02
(PID.TID 0000.0001)  cg2d: iter=    20 ; resid.=  8.81840817884647E-03
(PID.TID 0000.0001)  cg2d: iter=    21 ; resid.=  7.34628714334493E-03
(PID.TID 0000.0001)  cg2d: iter=    22 ; resid.=  6.45683813820428E-03
(PID.TID 0000.0001)  cg2d: iter=    23 ; resid.=  5.33358247822176E-03
(PID.TID 0000.0001)  cg2d: iter=    24 ; resid.=  4.79128507544816E-03
(PID.TID 0000.0001)  cg2d: iter=    25 ; resid.=  3.85120557795659E-03
(PID.TID 0000.0001)  cg2d: iter=    26 ; resid.=  3.06173547956772E-03
(PID.TID 0000.0001)  cg2d: iter=    27 ; resid.=  2.54774808418645E-03
(PID.TID 0000.0001)  cg2d: iter=    28 ; resid.=  2.00321325287868E-03
(PID.TID 0000.0001)  cg2d: iter=    29 ; resid.=  1.62909814838452E-03
(PID.TID 0000.0001)  cg2d: iter=    30 ; resid.=  1.35606462831982E-03
(PID.TID 0000.0001)  cg2d: iter=    31 ; resid.=  1.15165801542114E-03
(PID.TID 0000.0001)  cg2d: iter=    32 ; resid.=  9.17529026538800E-04
(PID.TID 0000.0001)  cg2d: iter=    33 ; resid.=  7.58351104965443E-04
(PID.TID 0000.0001)  cg2d: iter=    34 ; resid.=  6.62004748198320E-04
(PID.TID 0000.0001)  cg2d: iter=    35 ; resid.=  5.52392151443148E-04
(PID.TID 0000.0001)  cg2d: iter=    36 ; resid.=  4.91172980467116E-04
(PID.TID 0000.0001)  cg2d: iter=    37 ; resid.=  4.18180212142020E-04
(PID.TID 0000.0001)  cg2d: iter=    38 ; resid.=  3.83589761255125E-04
(PID.TID 0000.0001)  cg2d: iter=    39 ; resid.=  3.28284533822332E-04
(PID.TID 0000.0001)  cg2d: iter=    40 ; resid.=  2.86294383351399E-04
(PID.TID 0000.0001)  cg2d: iter=    41 ; resid.=  2.51556654581003E-04
(PID.TID 0000.0001)  cg2d: iter=    42 ; resid.=  2.12818622484636E-04
(PID.TID 0000.0001)  cg2d: iter=    43 ; resid.=  1.67572745344842E-04
(PID.TID 0000.0001)  cg2d: iter=    44 ; resid.=  1.27019734968871E-04
(PID.TID 0000.0001)  cg2d: iter=    45 ; resid.=  9.40170821161501E-05
(PID.TID 0000.0001)  cg2d: iter=    46 ; resid.=  7.42417440525701E-05
(PID.TID 0000.0001)  cg2d: iter=    47 ; resid.=  6.39507083501605E-05
(PID.TID 0000.0001)  cg2d: iter=    48 ; resid.=  5.25443259976909E-05
(PID.TID 0000.0001)  cg2d: iter=    49 ; resid.=  4.47702828532504E-05
(PID.TID 0000.0001)  cg2d: iter=    50 ; resid.=  3.84024777207048E-05
(PID.TID 0000.0001)  cg2d: iter=    51 ; resid.=  3.40635918808098E-05
(PID.TID 0000.0001)  cg2d: iter=    52 ; resid.=  2.90543963660735E-05
(PID.TID 0000.0001)  cg2d: iter=    53 ; resid.=  2.36966589916305E-05
(PID.TID 0000.0001)  cg2d: iter=    54 ; resid.=  1.94851236520121E-05
(PID.TID 0000.0001)  cg2d: iter=    55 ; resid.=  1.67762052618746E-05
(PID.TID 0000.0001)  cg2d: iter=    56 ; resid.=  1.46655678778342E-05
(PID.TID 0000.0001)  cg2d: iter=    57 ; resid.=  1.17182147461208E-05
(PID.TID 0000.0001)  cg2d: iter=    58 ; resid.=  9.03488317047001E-06
(PID.TID 0000.0001)  cg2d: iter=    59 ; resid.=  7.07157330172532E-06
(PID.TID 0000.0001)  cg2d: iter=    60 ; resid.=  5.17784883440599E-06
(PID.TID 0000.0001)  cg2d: iter=    61 ; resid.=  4.27444876419652E-06
(PID.TID 0000.0001)  cg2d: iter=    62 ; resid.=  3.79181155266195E-06
(PID.TID 0000.0001)  cg2d: iter=    63 ; resid.=  3.23843347246538E-06
(PID.TID 0000.0001)  cg2d: iter=    64 ; resid.=  2.65480129910852E-06
(PID.TID 0000.0001)  cg2d: iter=    65 ; resid.=  2.08060391701593E-06
(PID.TID 0000.0001)  cg2d: iter=    66 ; resid.=  1.77397172114303E-06
(PID.TID 0000.0001)  cg2d: iter=    67 ; resid.=  1.55699143652758E-06
(PID.TID 0000.0001)  cg2d: iter=    68 ; resid.=  1.25437924280330E-06
(PID.TID 0000.0001)  cg2d: iter=    69 ; resid.=  1.09259847399862E-06
(PID.TID 0000.0001)  cg2d: iter=    70 ; resid.=  9.11648470539567E-07
(PID.TID 0000.0001)  cg2d: iter=    71 ; resid.=  7.62919980611630E-07
(PID.TID 0000.0001)  cg2d: iter=    72 ; resid.=  6.21891173829621E-07
(PID.TID 0000.0001)  cg2d: iter=    73 ; resid.=  5.27572091995481E-07
(PID.TID 0000.0001)  cg2d: iter=    74 ; resid.=  4.17166127098679E-07
(PID.TID 0000.0001)  cg2d: iter=    75 ; resid.=  3.35600026224165E-07
(PID.TID 0000.0001)  cg2d: iter=    76 ; resid.=  2.90842248621247E-07
(PID.TID 0000.0001)  cg2d: iter=    77 ; resid.=  2.45639340963770E-07
(PID.TID 0000.0001)  cg2d: iter=    78 ; resid.=  1.96618702921649E-07
(PID.TID 0000.0001)  cg2d: iter=    79 ; resid.=  1.51408086520766E-07
(PID.TID 0000.0001)  cg2d: iter=    80 ; resid.=  1.14373961289934E-07
(PID.TID 0000.0001)  cg2d: iter=    81 ; resid.=  8.75896110844666E-08
(PID.TID 0000.0001)  cg2d: iter=    82 ; resid.=  6.67248413226108E-08
(PID.TID 0000.0001)  cg2d: iter=    83 ; resid.=  4.72978490240780E-08
(PID.TID 0000.0001)  cg2d: iter=    84 ; resid.=  3.23223251038016E-08
(PID.TID 0000.0001)  cg2d: iter=    85 ; resid.=  2.32351592919899E-08
(PID.TID 0000.0001)  cg2d: iter=    86 ; resid.=  1.72477278033471E-08
(PID.TID 0000.0001)  cg2d: iter=    87 ; resid.=  1.40592757337102E-08
(PID.TID 0000.0001)  cg2d: iter=    88 ; resid.=  1.06886129115547E-08
(PID.TID 0000.0001)  cg2d: iter=    89 ; resid.=  8.75803362024860E-09
(PID.TID 0000.0001)  cg2d: iter=    90 ; resid.=  7.02768612854250E-09
(PID.TID 0000.0001)  cg2d: iter=    91 ; resid.=  5.00503120963826E-09
(PID.TID 0000.0001)  cg2d: iter=    92 ; resid.=  3.53630259195535E-09
(PID.TID 0000.0001)  cg2d: iter=    93 ; resid.=  2.93907276784823E-09
(PID.TID 0000.0001)  cg2d: iter=    94 ; resid.=  2.44176128405887E-09
(PID.TID 0000.0001)  cg2d: iter=    95 ; resid.=  2.15510671643977E-09
(PID.TID 0000.0001)  cg2d: iter=    96 ; resid.=  1.67399217205001E-09
(PID.TID 0000.0001)  cg2d: iter=    97 ; resid.=  1.28312190517814E-09
(PID.TID 0000.0001)  cg2d: iter=    98 ; resid.=  1.08371996224039E-09
(PID.TID 0000.0001)  cg2d: iter=    99 ; resid.=  9.13744058560693E-10
(PID.TID 0000.0001)  cg2d: iter=   100 ; resid.=  8.68798376382581E-10
(PID.TID 0000.0001)  cg2d: iter=   101 ; resid.=  7.09971598579516E-10
(PID.TID 0000.0001)  cg2d: iter=   102 ; resid.=  5.80790747569404E-10
(PID.TID 0000.0001)  cg2d: iter=   103 ; resid.=  4.37740409928375E-10
(PID.TID 0000.0001)  cg2d: iter=   104 ; resid.=  3.35385235857154E-10
(PID.TID 0000.0001)  cg2d: iter=   105 ; resid.=  2.65721499328611E-10
(PID.TID 0000.0001)  cg2d: iter=   106 ; resid.=  2.16779653487975E-10
(PID.TID 0000.0001)  cg2d: iter=   107 ; resid.=  1.69720291618271E-10
(PID.TID 0000.0001)  cg2d: iter=   108 ; resid.=  1.29869144023914E-10
(PID.TID 0000.0001)  cg2d: iter=   109 ; resid.=  9.64414429690811E-11
(PID.TID 0000.0001)  cg2d: iter=   110 ; resid.=  7.31977304221517E-11
(PID.TID 0000.0001)  cg2d: iter=   111 ; resid.=  5.64010999454190E-11
(PID.TID 0000.0001)  cg2d: iter=   112 ; resid.=  3.85387831540045E-11
(PID.TID 0000.0001)  cg2d: iter=   113 ; resid.=  2.70070162553475E-11
(PID.TID 0000.0001)  cg2d: iter=   114 ; resid.=  1.98562865831339E-11
(PID.TID 0000.0001)  cg2d: iter=   115 ; resid.=  1.42764259227843E-11
(PID.TID 0000.0001)  cg2d: iter=   116 ; resid.=  1.01370005969517E-11
(PID.TID 0000.0001)  cg2d: iter=   117 ; resid.=  7.51309849613461E-12
(PID.TID 0000.0001)  cg2d: iter=   118 ; resid.=  6.28905167097350E-12
(PID.TID 0000.0001)  cg2d: iter=   119 ; resid.=  4.48192560112822E-12
(PID.TID 0000.0001)  cg2d: iter=   120 ; resid.=  3.28016426872660E-12
(PID.TID 0000.0001)  cg2d: iter=   121 ; resid.=  2.60461908950444E-12
(PID.TID 0000.0001)  cg2d: iter=   122 ; resid.=  2.25021020608485E-12
(PID.TID 0000.0001)  cg2d: iter=   123 ; resid.=  1.91525995942003E-12
(PID.TID 0000.0001)  cg2d: iter=   124 ; resid.=  1.51963540622591E-12
(PID.TID 0000.0001)  cg2d: iter=   125 ; resid.=  1.18219013232710E-12
(PID.TID 0000.0001)  cg2d: iter=   126 ; resid.=  8.34057416303358E-13
(PID.TID 0000.0001)  cg2d: iter=   127 ; resid.=  6.29190680900748E-13
(PID.TID 0000.0001)  cg2d: iter=   128 ; resid.=  4.61836007890218E-13
(PID.TID 0000.0001)  cg2d: iter=   129 ; resid.=  3.49838495748993E-13
(PID.TID 0000.0001)  cg2d: iter=   130 ; resid.=  2.66660576609849E-13
(PID.TID 0000.0001)  cg2d: iter=   131 ; resid.=  1.82260666230602E-13
(PID.TID 0000.0001)  cg2d: iter=   132 ; resid.=  1.28840856296899E-13
(PID.TID 0000.0001)  cg2d: iter=   133 ; resid.=  9.89205286982825E-14
DEBUG_STATS_RL:    cg2d_x (SOLVE_FOR_PRESSURE)  min= -1.78475448493882E+01
DEBUG_STATS_RL:    cg2d_x (SOLVE_FOR_PRESSURE)  max=  7.61125882976561E+00
DEBUG_STATS_RL:    cg2d_x (SOLVE_FOR_PRESSURE) mean= -1.68140295994193E+00
DEBUG_STATS_RL:    cg2d_x (SOLVE_FOR_PRESSURE) S.D.=  6.45033259780682E+00
(PID.TID 0000.0001)      cg2d_init_res =   3.50174624988714E-01
(PID.TID 0000.0001)      cg2d_iters(min,last) =      -1     133
(PID.TID 0000.0001)      cg2d_last_res =   9.89205286982825E-14
(PID.TID 0000.0001) // =======================================================
(PID.TID 0000.0001) // Begin MONITOR dynamic field statistics
(PID.TID 0000.0001) // =======================================================
(PID.TID 0000.0001) %MON time_tsnumber                =                    56
(PID.TID 0000.0001) %MON time_secondsf                =   4.8384000000000E+06
(PID.TID 0000.0001) %MON dynstat_eta_max              =   7.7586736287114E-01
(PID.TID 0000.0001) %MON dynstat_eta_min              =  -1.8193215952482E+00
(PID.TID 0000.0001) %MON dynstat_eta_mean             =  -4.2001412664638E-03
(PID.TID 0000.0001) %MON dynstat_eta_sd               =   5.5959964409494E-01
(PID.TID 0000.0001) %MON dynstat_eta_del2             =   2.3741815499084E-03
(PID.TID 0000.0001) %MON dynstat_uvel_max             =   1.4831556860094E-01
(PID.TID 0000.0001) %MON dynstat_uvel_min             =  -1.4327873912417E-01
(PID.TID 0000.0001) %MON dynstat_uvel_mean            =   1.3495358078535E-03
(PID.TID 0000.0001) %MON dynstat_uvel_sd              =   1.6704396598807E-02
(PID.TID 0000.0001) %MON dynstat_uvel_del2            =   1.0233500623932E-04
(PID.TID 0000.0001) %MON dynstat_vvel_max             =   1.4284554786830E-01
(PID.TID 0000.0001) %MON dynstat_vvel_min             =  -9.5424915343999E-02
(PID.TID 0000.0001) %MON dynstat_vvel_mean            =   1.5356164320158E-04
(PID.TID 0000.0001) %MON dynstat_vvel_sd              =   1.0117650810106E-02
(PID.TID 0000.0001) %MON dynstat_vvel_del2            =   8.1630763971387E-05
(PID.TID 0000.0001) %MON dynstat_wvel_max             =   1.6218794177462E-04
(PID.TID 0000.0001) %MON dynstat_wvel_min             =  -1.0584378328938E-04
(PID.TID 0000.0001) %MON dynstat_wvel_mean            =   8.2710543917087E-23
(PID.TID 0000.0001) %MON dynstat_wvel_sd              =   1.4623877470915E-05
(PID.TID 0000.0001) %MON dynstat_wvel_del2            =   1.4501046060565E-07
(PID.TID 0000.0001) %MON dynstat_theta_max            =   3.0490538826350E+01
(PID.TID 0000.0001) %MON dynstat_theta_min            =  -1.9734813344612E+00
(PID.TID 0000.0001) %MON dynstat_theta_mean           =   3.6429445612363E+00
(PID.TID 0000.0001) %MON dynstat_theta_sd             =   4.4229173479108E+00
(PID.TID 0000.0001) %MON dynstat_theta_del2           =   4.8736871053049E-03
(PID.TID 0000.0001) %MON dynstat_salt_max             =   3.7484797536496E+01
(PID.TID 0000.0001) %MON dynstat_salt_min             =   2.9879361605138E+01
(PID.TID 0000.0001) %MON dynstat_salt_mean            =   3.4737968127738E+01
(PID.TID 0000.0001) %MON dynstat_salt_sd              =   2.9638303727014E-01
(PID.TID 0000.0001) %MON dynstat_salt_del2            =   9.8978805041526E-04
(PID.TID 0000.0001) %MON dynstat_sst_max              =   3.0490538826350E+01
(PID.TID 0000.0001) %MON dynstat_sst_min              =  -1.9734813344612E+00
(PID.TID 0000.0001) %MON dynstat_sst_mean             =   1.8986038583210E+01
(PID.TID 0000.0001) %MON dynstat_sst_sd               =   9.0465832856532E+00
(PID.TID 0000.0001) %MON dynstat_sst_del2             =   2.7762305771776E-02
(PID.TID 0000.0001) %MON dynstat_sss_max              =   3.7459941080509E+01
(PID.TID 0000.0001) %MON dynstat_sss_min              =   2.9879361605138E+01
(PID.TID 0000.0001) %MON dynstat_sss_mean             =   3.4862051010829E+01
(PID.TID 0000.0001) %MON dynstat_sss_sd               =   9.7941019897803E-01
(PID.TID 0000.0001) %MON dynstat_sss_del2             =   7.9568256740237E-03
(PID.TID 0000.0001) %MON forcing_qnet_max             =   3.3047072347005E+02
(PID.TID 0000.0001) %MON forcing_qnet_min             =  -1.6984117635091E+02
(PID.TID 0000.0001) %MON forcing_qnet_mean            =  -1.1731855982677E+01
(PID.TID 0000.0001) %MON forcing_qnet_sd              =   6.5966939273954E+01
(PID.TID 0000.0001) %MON forcing_qnet_del2            =   8.9973155248247E-01
(PID.TID 0000.0001) %MON forcing_qsw_max              =   0.0000000000000E+00
(PID.TID 0000.0001) %MON forcing_qsw_min              =   0.0000000000000E+00
(PID.TID 0000.0001) %MON forcing_qsw_mean             =   0.0000000000000E+00
(PID.TID 0000.0001) %MON forcing_qsw_sd               =   0.0000000000000E+00
(PID.TID 0000.0001) %MON forcing_qsw_del2             =   0.0000000000000E+00
(PID.TID 0000.0001) %MON forcing_empmr_max            =   6.9223948647353E-05
(PID.TID 0000.0001) %MON forcing_empmr_min            =  -7.5280825721317E-05
(PID.TID 0000.0001) %MON forcing_empmr_mean           =   8.1250967116582E-07
(PID.TID 0000.0001) %MON forcing_empmr_sd             =   2.7185457124815E-05
(PID.TID 0000.0001) %MON forcing_empmr_del2           =   3.5320365580887E-07
(PID.TID 0000.0001) %MON forcing_fu_max               =   3.1872308254242E-01
(PID.TID 0000.0001) %MON forcing_fu_min               =  -2.6957864562670E-01
(PID.TID 0000.0001) %MON forcing_fu_mean              =   1.8572737511220E-02
(PID.TID 0000.0001) %MON forcing_fu_sd                =   9.4029223939401E-02
(PID.TID 0000.0001) %MON forcing_fu_del2              =   7.0568353900108E-04
(PID.TID 0000.0001) %MON forcing_fv_max               =   1.5834051370621E-01
(PID.TID 0000.0001) %MON forcing_fv_min               =  -1.8481889367104E-01
(PID.TID 0000.0001) %MON forcing_fv_mean              =  -7.3210084406550E-03
(PID.TID 0000.0001) %MON forcing_fv_sd                =   4.2536292965649E-02
(PID.TID 0000.0001) %MON forcing_fv_del2              =   4.8118856330786E-04
(PID.TID 0000.0001) %MON trAdv_CFL_u_max              =   4.1110370848029E-02
(PID.TID 0000.0001) %MON trAdv_CFL_v_max              =   2.7899797886926E-02
(PID.TID 0000.0001) %MON trAdv_CFL_w_max              =   3.8107453053709E-02
(PID.TID 0000.0001) %MON advcfl_uvel_max              =   3.8774859617589E-02
(PID.TID 0000.0001) %MON advcfl_vvel_max              =   2.7752598983657E-02
(PID.TID 0000.0001) %MON advcfl_wvel_max              =   3.8795473666997E-02
(PID.TID 0000.0001) %MON advcfl_W_hf_max              =   4.7108789452782E-02
(PID.TID 0000.0001) %MON pe_b_mean                    =   4.0073799815126E-04
(PID.TID 0000.0001) %MON ke_max                       =   1.6508670247887E-02
(PID.TID 0000.0001) %MON ke_mean                      =   1.7356564740985E-04
(PID.TID 0000.0001) %MON ke_vol                       =   1.3226782436723E+18
(PID.TID 0000.0001) %MON vort_r_min                   =  -4.7042313406574E-07
(PID.TID 0000.0001) %MON vort_r_max                   =   5.4288102268566E-07
(PID.TID 0000.0001) %MON vort_a_mean                  =  -2.5274807604610E-05
(PID.TID 0000.0001) %MON vort_a_sd                    =   7.3604422739284E-05
(PID.TID 0000.0001) %MON vort_p_mean                  =  -3.1845656060488E-05
(PID.TID 0000.0001) %MON vort_p_sd                    =   1.3162394926278E-04
(PID.TID 0000.0001) %MON surfExpan_theta_mean         =  -2.2707231652775E-07
(PID.TID 0000.0001) %MON surfExpan_salt_mean          =   1.9603664572703E-07
(PID.TID 0000.0001) // =======================================================
(PID.TID 0000.0001) // End MONITOR dynamic field statistics
(PID.TID 0000.0001) // =======================================================
 EXTERNAL_FIELDS_LOAD,        56 : iP,iLd,i0,i1=    2    3    2    3 ; Wght=  0.6333333333  0.3666666667
 EXTERNAL_FIELDS_LOAD: (fu0,1),fu,fv= -1.4435E-02 -2.7199E-02 -1.9115E-02 -1.1381E-02
 EXTERNAL_FIELDS_LOAD: SST,SSS,Q,E-P= -4.0427E-01  3.4479E+01  2.3128E+02  8.6352E-06
DEBUG_STATS_RL:          Uvel (THERMODYNAMICS)  min= -1.43278739124166E-01
DEBUG_STATS_RL:          Uvel (THERMODYNAMICS)  max=  1.48315568600944E-01
DEBUG_STATS_RL:          Uvel (THERMODYNAMICS) mean=  4.91996105312047E-03
DEBUG_STATS_RL:          Uvel (THERMODYNAMICS) S.D.=  2.33432588965776E-02
DEBUG_STATS_RL:          Vvel (THERMODYNAMICS)  min= -9.54249153439991E-02
DEBUG_STATS_RL:          Vvel (THERMODYNAMICS)  max=  1.42845547868301E-01
DEBUG_STATS_RL:          Vvel (THERMODYNAMICS) mean=  1.35127122659138E-03
DEBUG_STATS_RL:          Vvel (THERMODYNAMICS) S.D.=  1.53249913228962E-02
DEBUG_STATS_RL:          Wvel (THERMODYNAMICS)  min= -1.05843783289384E-04
DEBUG_STATS_RL:          Wvel (THERMODYNAMICS)  max=  1.62187941774620E-04
DEBUG_STATS_RL:          Wvel (THERMODYNAMICS) mean= -1.89330804493579E-08
DEBUG_STATS_RL:          Wvel (THERMODYNAMICS) S.D.=  1.27380157614152E-05
DEBUG_STATS_RL:         Theta (THERMODYNAMICS)  min= -1.97174513587061E+00
DEBUG_STATS_RL:         Theta (THERMODYNAMICS)  max=  3.05180936443769E+01
DEBUG_STATS_RL:         Theta (THERMODYNAMICS) mean=  3.23894495718584E+00
DEBUG_STATS_RL:         Theta (THERMODYNAMICS) S.D.=  5.87574074793000E+00
DEBUG_STATS_RL:          Salt (THERMODYNAMICS)  min=  2.00000000000000E-02
DEBUG_STATS_RL:          Salt (THERMODYNAMICS)  max=  3.74852364946824E+01
DEBUG_STATS_RL:          Salt (THERMODYNAMICS) mean=  1.88648727084411E+01
DEBUG_STATS_RL:          Salt (THERMODYNAMICS) S.D.=  1.73003968650168E+01
DEBUG_STATS_RL:         GtNm1 (THERMODYNAMICS)  min= -3.82528726745601E-06
DEBUG_STATS_RL:         GtNm1 (THERMODYNAMICS)  max=  2.42256844642722E-06
DEBUG_STATS_RL:         GtNm1 (THERMODYNAMICS) mean=  3.18712987068073E-09
DEBUG_STATS_RL:         GtNm1 (THERMODYNAMICS) S.D.=  1.85203429908954E-07
DEBUG_STATS_RL:         GsNm1 (THERMODYNAMICS)  min= -5.36912862121374E-07
DEBUG_STATS_RL:         GsNm1 (THERMODYNAMICS)  max=  3.91612735886382E-07
DEBUG_STATS_RL:         GsNm1 (THERMODYNAMICS) mean= -4.04552199120420E-10
DEBUG_STATS_RL:         GsNm1 (THERMODYNAMICS) S.D.=  1.89620277615870E-08
DEBUG_STATS_RL:                EtaN (DYNAMICS)  min= -1.81932159524818E+00
DEBUG_STATS_RL:                EtaN (DYNAMICS)  max=  7.75867362871141E-01
DEBUG_STATS_RL:                EtaN (DYNAMICS) mean= -1.71396835875834E-01
DEBUG_STATS_RL:                EtaN (DYNAMICS) S.D.=  6.57526258695912E-01
DEBUG_STATS_RL:                Uvel (DYNAMICS)  min= -1.43278739124166E-01
DEBUG_STATS_RL:                Uvel (DYNAMICS)  max=  1.48315568600944E-01
DEBUG_STATS_RL:                Uvel (DYNAMICS) mean=  4.91996105312047E-03
DEBUG_STATS_RL:                Uvel (DYNAMICS) S.D.=  2.33432588965776E-02
DEBUG_STATS_RL:                Vvel (DYNAMICS)  min= -9.54249153439991E-02
DEBUG_STATS_RL:                Vvel (DYNAMICS)  max=  1.42845547868301E-01
DEBUG_STATS_RL:                Vvel (DYNAMICS) mean=  1.35127122659138E-03
DEBUG_STATS_RL:                Vvel (DYNAMICS) S.D.=  1.53249913228962E-02
DEBUG_STATS_RL:                Wvel (DYNAMICS)  min= -1.05843783289384E-04
DEBUG_STATS_RL:                Wvel (DYNAMICS)  max=  1.62187941774620E-04
DEBUG_STATS_RL:                Wvel (DYNAMICS) mean= -1.89330804493579E-08
DEBUG_STATS_RL:                Wvel (DYNAMICS) S.D.=  1.27380157614152E-05
DEBUG_STATS_RL:               Theta (DYNAMICS)  min= -1.97174513587061E+00
DEBUG_STATS_RL:               Theta (DYNAMICS)  max=  3.05180936443769E+01
DEBUG_STATS_RL:               Theta (DYNAMICS) mean=  3.23894495718584E+00
DEBUG_STATS_RL:               Theta (DYNAMICS) S.D.=  5.87574074793000E+00
DEBUG_STATS_RL:                Salt (DYNAMICS)  min=  2.00000000000000E-02
DEBUG_STATS_RL:                Salt (DYNAMICS)  max=  3.74852364946824E+01
DEBUG_STATS_RL:                Salt (DYNAMICS) mean=  1.88648727084411E+01
DEBUG_STATS_RL:                Salt (DYNAMICS) S.D.=  1.73003968650168E+01
DEBUG_STATS_RL:                  Gu (DYNAMICS)  min= -1.39624298802569E-01
DEBUG_STATS_RL:                  Gu (DYNAMICS)  max=  1.44335460334378E-01
DEBUG_STATS_RL:                  Gu (DYNAMICS) mean=  5.05659432505419E-03
DEBUG_STATS_RL:                  Gu (DYNAMICS) S.D.=  2.35034315860814E-02
DEBUG_STATS_RL:                  Gv (DYNAMICS)  min= -9.92910813951507E-02
DEBUG_STATS_RL:                  Gv (DYNAMICS)  max=  1.44993113897949E-01
DEBUG_STATS_RL:                  Gv (DYNAMICS) mean=  3.61999208294096E-03
DEBUG_STATS_RL:                  Gv (DYNAMICS) S.D.=  1.67556626682942E-02
DEBUG_STATS_RL:               GuNm1 (DYNAMICS)  min= -9.71386932249944E-06
DEBUG_STATS_RL:               GuNm1 (DYNAMICS)  max=  9.32346376448007E-06
DEBUG_STATS_RL:               GuNm1 (DYNAMICS) mean=  7.40833972873723E-09
DEBUG_STATS_RL:               GuNm1 (DYNAMICS) S.D.=  1.20003472832042E-06
DEBUG_STATS_RL:               GvNm1 (DYNAMICS)  min= -9.55065237000078E-06
DEBUG_STATS_RL:               GvNm1 (DYNAMICS)  max=  1.61604008647891E-05
DEBUG_STATS_RL:               GvNm1 (DYNAMICS) mean=  7.44500054201971E-07
DEBUG_STATS_RL:               GvNm1 (DYNAMICS) S.D.=  2.64077393723722E-06
DEBUG_STATS_RL:               GtNm1 (DYNAMICS)  min= -3.82528726745601E-06
DEBUG_STATS_RL:               GtNm1 (DYNAMICS)  max=  2.42256844642722E-06
DEBUG_STATS_RL:               GtNm1 (DYNAMICS) mean=  3.18712987068073E-09
DEBUG_STATS_RL:               GtNm1 (DYNAMICS) S.D.=  1.85203429908954E-07
DEBUG_STATS_RL:               GsNm1 (DYNAMICS)  min= -5.36912862121374E-07
DEBUG_STATS_RL:               GsNm1 (DYNAMICS)  max=  3.91612735886382E-07
DEBUG_STATS_RL:               GsNm1 (DYNAMICS) mean= -4.04552199120420E-10
DEBUG_STATS_RL:               GsNm1 (DYNAMICS) S.D.=  1.89620277615870E-08
DEBUG_STATS_RL:    cg2d_b (SOLVE_FOR_PRESSURE)  min= -1.99430933318700E+04
DEBUG_STATS_RL:    cg2d_b (SOLVE_FOR_PRESSURE)  max=  2.53793766649227E+04
DEBUG_STATS_RL:    cg2d_b (SOLVE_FOR_PRESSURE) mean=  4.08948971353248E+00
DEBUG_STATS_RL:    cg2d_b (SOLVE_FOR_PRESSURE) S.D.=  3.89115616955287E+03
 cg2d: Sum(rhs),rhsMax =   3.73026052287374E-01  1.66698541074775E+00
(PID.TID 0000.0001)  cg2d: iter=     1 ; resid.=  1.82551478588922E-01
(PID.TID 0000.0001)  cg2d: iter=     2 ; resid.=  1.61466024595596E-01
(PID.TID 0000.0001)  cg2d: iter=     3 ; resid.=  1.44207867206215E-01
(PID.TID 0000.0001)  cg2d: iter=     4 ; resid.=  1.31212686052066E-01
(PID.TID 0000.0001)  cg2d: iter=     5 ; resid.=  1.18259460139155E-01
(PID.TID 0000.0001)  cg2d: iter=     6 ; resid.=  9.90943897037762E-02
(PID.TID 0000.0001)  cg2d: iter=     7 ; resid.=  8.69335373931759E-02
(PID.TID 0000.0001)  cg2d: iter=     8 ; resid.=  6.81193220578702E-02
(PID.TID 0000.0001)  cg2d: iter=     9 ; resid.=  5.41868023028100E-02
(PID.TID 0000.0001)  cg2d: iter=    10 ; resid.=  4.76978628356715E-02
(PID.TID 0000.0001)  cg2d: iter=    11 ; resid.=  4.34907673712477E-02
(PID.TID 0000.0001)  cg2d: iter=    12 ; resid.=  3.48474842837453E-02
(PID.TID 0000.0001)  cg2d: iter=    13 ; resid.=  2.76887102467872E-02
(PID.TID 0000.0001)  cg2d: iter=    14 ; resid.=  2.20625066498335E-02
(PID.TID 0000.0001)  cg2d: iter=    15 ; resid.=  1.80855317717539E-02
(PID.TID 0000.0001)  cg2d: iter=    16 ; resid.=  1.62908761330813E-02
(PID.TID 0000.0001)  cg2d: iter=    17 ; resid.=  1.41849027788365E-02
(PID.TID 0000.0001)  cg2d: iter=    18 ; resid.=  1.30240403830548E-02
(PID.TID 0000.0001)  cg2d: iter=    19 ; resid.=  1.00630433582708E-02
(PID.TID 0000.0001)  cg2d: iter=    20 ; resid.=  8.05075935442624E-03
(PID.TID 0000.0001)  cg2d: iter=    21 ; resid.=  6.74392896236342E-03
(PID.TID 0000.0001)  cg2d: iter=    22 ; resid.=  5.93479211451842E-03
(PID.TID 0000.0001)  cg2d: iter=    23 ; resid.=  4.90451296727896E-03
(PID.TID 0000.0001)  cg2d: iter=    24 ; resid.=  4.34216315562475E-03
(PID.TID 0000.0001)  cg2d: iter=    25 ; resid.=  3.43083394648645E-03
(PID.TID 0000.0001)  cg2d: iter=    26 ; resid.=  2.77238286467343E-03
(PID.TID 0000.0001)  cg2d: iter=    27 ; resid.=  2.34404706333929E-03
(PID.TID 0000.0001)  cg2d: iter=    28 ; resid.=  1.91189182404437E-03
(PID.TID 0000.0001)  cg2d: iter=    29 ; resid.=  1.59093755766497E-03
(PID.TID 0000.0001)  cg2d: iter=    30 ; resid.=  1.30902658299101E-03
(PID.TID 0000.0001)  cg2d: iter=    31 ; resid.=  1.10141987427760E-03
(PID.TID 0000.0001)  cg2d: iter=    32 ; resid.=  8.63705461256218E-04
(PID.TID 0000.0001)  cg2d: iter=    33 ; resid.=  7.24757600344692E-04
(PID.TID 0000.0001)  cg2d: iter=    34 ; resid.=  6.38476309691200E-04
(PID.TID 0000.0001)  cg2d: iter=    35 ; resid.=  5.36369221977409E-04
(PID.TID 0000.0001)  cg2d: iter=    36 ; resid.=  4.73818067884015E-04
(PID.TID 0000.0001)  cg2d: iter=    37 ; resid.=  3.96539644292021E-04
(PID.TID 0000.0001)  cg2d: iter=    38 ; resid.=  3.55442005204617E-04
(PID.TID 0000.0001)  cg2d: iter=    39 ; resid.=  3.06755976750890E-04
(PID.TID 0000.0001)  cg2d: iter=    40 ; resid.=  2.73057169684920E-04
(PID.TID 0000.0001)  cg2d: iter=    41 ; resid.=  2.41966612154740E-04
(PID.TID 0000.0001)  cg2d: iter=    42 ; resid.=  2.06631694623666E-04
(PID.TID 0000.0001)  cg2d: iter=    43 ; resid.=  1.62213810010393E-04
(PID.TID 0000.0001)  cg2d: iter=    44 ; resid.=  1.18606312575463E-04
(PID.TID 0000.0001)  cg2d: iter=    45 ; resid.=  8.56961371418855E-05
(PID.TID 0000.0001)  cg2d: iter=    46 ; resid.=  6.69981863417204E-05
(PID.TID 0000.0001)  cg2d: iter=    47 ; resid.=  5.60290028406909E-05
(PID.TID 0000.0001)  cg2d: iter=    48 ; resid.=  4.61548941643630E-05
(PID.TID 0000.0001)  cg2d: iter=    49 ; resid.=  3.79695992420081E-05
(PID.TID 0000.0001)  cg2d: iter=    50 ; resid.=  3.14422045674473E-05
(PID.TID 0000.0001)  cg2d: iter=    51 ; resid.=  2.71969791023604E-05
(PID.TID 0000.0001)  cg2d: iter=    52 ; resid.=  2.29259948963718E-05
(PID.TID 0000.0001)  cg2d: iter=    53 ; resid.=  1.95194411674975E-05
(PID.TID 0000.0001)  cg2d: iter=    54 ; resid.=  1.63664121635606E-05
(PID.TID 0000.0001)  cg2d: iter=    55 ; resid.=  1.44592692574248E-05
(PID.TID 0000.0001)  cg2d: iter=    56 ; resid.=  1.28118734703935E-05
(PID.TID 0000.0001)  cg2d: iter=    57 ; resid.=  1.03036455110570E-05
(PID.TID 0000.0001)  cg2d: iter=    58 ; resid.=  7.81298237523842E-06
(PID.TID 0000.0001)  cg2d: iter=    59 ; resid.=  6.17101222268852E-06
(PID.TID 0000.0001)  cg2d: iter=    60 ; resid.=  4.61961968104939E-06
(PID.TID 0000.0001)  cg2d: iter=    61 ; resid.=  3.84873612050214E-06
(PID.TID 0000.0001)  cg2d: iter=    62 ; resid.=  3.39945730188380E-06
(PID.TID 0000.0001)  cg2d: iter=    63 ; resid.=  2.88085394379414E-06
(PID.TID 0000.0001)  cg2d: iter=    64 ; resid.=  2.30450768690007E-06
(PID.TID 0000.0001)  cg2d: iter=    65 ; resid.=  1.81191107487936E-06
(PID.TID 0000.0001)  cg2d: iter=    66 ; resid.=  1.53690635771190E-06
(PID.TID 0000.0001)  cg2d: iter=    67 ; resid.=  1.35735038627207E-06
(PID.TID 0000.0001)  cg2d: iter=    68 ; resid.=  1.08142044065989E-06
(PID.TID 0000.0001)  cg2d: iter=    69 ; resid.=  9.18422950434750E-07
(PID.TID 0000.0001)  cg2d: iter=    70 ; resid.=  7.51268177747568E-07
(PID.TID 0000.0001)  cg2d: iter=    71 ; resid.=  6.43651909432875E-07
(PID.TID 0000.0001)  cg2d: iter=    72 ; resid.=  5.31838046665454E-07
(PID.TID 0000.0001)  cg2d: iter=    73 ; resid.=  4.54190574605868E-07
(PID.TID 0000.0001)  cg2d: iter=    74 ; resid.=  3.60494426695837E-07
(PID.TID 0000.0001)  cg2d: iter=    75 ; resid.=  2.91009928991734E-07
(PID.TID 0000.0001)  cg2d: iter=    76 ; resid.=  2.48448073723709E-07
(PID.TID 0000.0001)  cg2d: iter=    77 ; resid.=  2.13010267527748E-07
(PID.TID 0000.0001)  cg2d: iter=    78 ; resid.=  1.77099877131113E-07
(PID.TID 0000.0001)  cg2d: iter=    79 ; resid.=  1.42049064949721E-07
(PID.TID 0000.0001)  cg2d: iter=    80 ; resid.=  1.09310523194374E-07
(PID.TID 0000.0001)  cg2d: iter=    81 ; resid.=  8.35105198304041E-08
(PID.TID 0000.0001)  cg2d: iter=    82 ; resid.=  6.39898210564895E-08
(PID.TID 0000.0001)  cg2d: iter=    83 ; resid.=  4.45107200055685E-08
(PID.TID 0000.0001)  cg2d: iter=    84 ; resid.=  3.03024375403267E-08
(PID.TID 0000.0001)  cg2d: iter=    85 ; resid.=  2.16095764069787E-08
(PID.TID 0000.0001)  cg2d: iter=    86 ; resid.=  1.63291417155119E-08
(PID.TID 0000.0001)  cg2d: iter=    87 ; resid.=  1.34309952031439E-08
(PID.TID 0000.0001)  cg2d: iter=    88 ; resid.=  1.01717113126142E-08
(PID.TID 0000.0001)  cg2d: iter=    89 ; resid.=  8.21131451906676E-09
(PID.TID 0000.0001)  cg2d: iter=    90 ; resid.=  6.57683459910050E-09
(PID.TID 0000.0001)  cg2d: iter=    91 ; resid.=  4.67317555942537E-09
(PID.TID 0000.0001)  cg2d: iter=    92 ; resid.=  3.28886587067970E-09
(PID.TID 0000.0001)  cg2d: iter=    93 ; resid.=  2.69098552894883E-09
(PID.TID 0000.0001)  cg2d: iter=    94 ; resid.=  2.23009657725352E-09
(PID.TID 0000.0001)  cg2d: iter=    95 ; resid.=  2.00467729834141E-09
(PID.TID 0000.0001)  cg2d: iter=    96 ; resid.=  1.55789729924784E-09
(PID.TID 0000.0001)  cg2d: iter=    97 ; resid.=  1.16912262748594E-09
(PID.TID 0000.0001)  cg2d: iter=    98 ; resid.=  9.68491679791711E-10
(PID.TID 0000.0001)  cg2d: iter=    99 ; resid.=  8.10728412768411E-10
(PID.TID 0000.0001)  cg2d: iter=   100 ; resid.=  7.68818091957921E-10
(PID.TID 0000.0001)  cg2d: iter=   101 ; resid.=  6.34464405528652E-10
(PID.TID 0000.0001)  cg2d: iter=   102 ; resid.=  5.23260937998255E-10
(PID.TID 0000.0001)  cg2d: iter=   103 ; resid.=  4.01158789623146E-10
(PID.TID 0000.0001)  cg2d: iter=   104 ; resid.=  3.09589575936307E-10
(PID.TID 0000.0001)  cg2d: iter=   105 ; resid.=  2.43769887742083E-10
(PID.TID 0000.0001)  cg2d: iter=   106 ; resid.=  1.99932205302294E-10
(PID.TID 0000.0001)  cg2d: iter=   107 ; resid.=  1.57902458302551E-10
(PID.TID 0000.0001)  cg2d: iter=   108 ; resid.=  1.25318618084702E-10
(PID.TID 0000.0001)  cg2d: iter=   109 ; resid.=  9.46568061279953E-11
(PID.TID 0000.0001)  cg2d: iter=   110 ; resid.=  7.38338735504431E-11
(PID.TID 0000.0001)  cg2d: iter=   111 ; resid.=  5.88797381800124E-11
(PID.TID 0000.0001)  cg2d: iter=   112 ; resid.=  4.10679452038370E-11
(PID.TID 0000.0001)  cg2d: iter=   113 ; resid.=  2.96192920942739E-11
(PID.TID 0000.0001)  cg2d: iter=   114 ; resid.=  2.26380406570260E-11
(PID.TID 0000.0001)  cg2d: iter=   115 ; resid.=  1.70107979044854E-11
(PID.TID 0000.0001)  cg2d: iter=   116 ; resid.=  1.27244835237307E-11
(PID.TID 0000.0001)  cg2d: iter=   117 ; resid.=  1.00029420085860E-11
(PID.TID 0000.0001)  cg2d: iter=   118 ; resid.=  8.62650766618016E-12
(PID.TID 0000.0001)  cg2d: iter=   119 ; resid.=  6.41139811077955E-12
(PID.TID 0000.0001)  cg2d: iter=   120 ; resid.=  4.98856250210358E-12
(PID.TID 0000.0001)  cg2d: iter=   121 ; resid.=  4.05284869631946E-12
(PID.TID 0000.0001)  cg2d: iter=   122 ; resid.=  3.48474588755870E-12
(PID.TID 0000.0001)  cg2d: iter=   123 ; resid.=  2.73298968234820E-12
(PID.TID 0000.0001)  cg2d: iter=   124 ; resid.=  1.98348521329003E-12
(PID.TID 0000.0001)  cg2d: iter=   125 ; resid.=  1.44612799753016E-12
(PID.TID 0000.0001)  cg2d: iter=   126 ; resid.=  9.92170272939673E-13
(PID.TID 0000.0001)  cg2d: iter=   127 ; resid.=  7.59079580612672E-13
(PID.TID 0000.0001)  cg2d: iter=   128 ; resid.=  5.41707811528747E-13
(PID.TID 0000.0001)  cg2d: iter=   129 ; resid.=  3.85293137639497E-13
(PID.TID 0000.0001)  cg2d: iter=   130 ; resid.=  2.77147300914663E-13
(PID.TID 0000.0001)  cg2d: iter=   131 ; resid.=  1.82147719316015E-13
(PID.TID 0000.0001)  cg2d: iter=   132 ; resid.=  1.23003503405886E-13
(PID.TID 0000.0001)  cg2d: iter=   133 ; resid.=  9.10759046047662E-14
DEBUG_STATS_RL:    cg2d_x (SOLVE_FOR_PRESSURE)  min= -1.82819870434368E+01
DEBUG_STATS_RL:    cg2d_x (SOLVE_FOR_PRESSURE)  max=  7.72018604729237E+00
DEBUG_STATS_RL:    cg2d_x (SOLVE_FOR_PRESSURE) mean= -1.66590524067193E+00
DEBUG_STATS_RL:    cg2d_x (SOLVE_FOR_PRESSURE) S.D.=  6.49443592300167E+00
(PID.TID 0000.0001)      cg2d_init_res =   3.38153913498311E-01
(PID.TID 0000.0001)      cg2d_iters(min,last) =      -1     133
(PID.TID 0000.0001)      cg2d_last_res =   9.10759046047662E-14
(PID.TID 0000.0001) // =======================================================
(PID.TID 0000.0001) // Begin MONITOR dynamic field statistics
(PID.TID 0000.0001) // =======================================================
(PID.TID 0000.0001) %MON time_tsnumber                =                    57
(PID.TID 0000.0001) %MON time_secondsf                =   4.9248000000000E+06
(PID.TID 0000.0001) %MON dynstat_eta_max              =   7.8697105476979E-01
(PID.TID 0000.0001) %MON dynstat_eta_min              =  -1.8636072419405E+00
(PID.TID 0000.0001) %MON dynstat_eta_mean             =  -4.2668754360881E-03
(PID.TID 0000.0001) %MON dynstat_eta_sd               =   5.6352708226481E-01
(PID.TID 0000.0001) %MON dynstat_eta_del2             =   2.3797342709287E-03
(PID.TID 0000.0001) %MON dynstat_uvel_max             =   1.4091415137360E-01
(PID.TID 0000.0001) %MON dynstat_uvel_min             =  -1.4089122924638E-01
(PID.TID 0000.0001) %MON dynstat_uvel_mean            =   1.5302041312869E-03
(PID.TID 0000.0001) %MON dynstat_uvel_sd              =   1.6610715928265E-02
(PID.TID 0000.0001) %MON dynstat_uvel_del2            =   1.0181395960806E-04
(PID.TID 0000.0001) %MON dynstat_vvel_max             =   1.4281911041182E-01
(PID.TID 0000.0001) %MON dynstat_vvel_min             =  -9.7524826395114E-02
(PID.TID 0000.0001) %MON dynstat_vvel_mean            =   1.6898993477739E-04
(PID.TID 0000.0001) %MON dynstat_vvel_sd              =   1.0098964168007E-02
(PID.TID 0000.0001) %MON dynstat_vvel_del2            =   8.1126369129739E-05
(PID.TID 0000.0001) %MON dynstat_wvel_max             =   1.4801135419916E-04
(PID.TID 0000.0001) %MON dynstat_wvel_min             =  -1.0209586512843E-04
(PID.TID 0000.0001) %MON dynstat_wvel_mean            =  -1.7977960155910E-22
(PID.TID 0000.0001) %MON dynstat_wvel_sd              =   1.4442284102505E-05
(PID.TID 0000.0001) %MON dynstat_wvel_del2            =   1.4306824068055E-07
(PID.TID 0000.0001) %MON dynstat_theta_max            =   3.0518093644377E+01
(PID.TID 0000.0001) %MON dynstat_theta_min            =  -1.9717451358706E+00
(PID.TID 0000.0001) %MON dynstat_theta_mean           =   3.6430135396026E+00
(PID.TID 0000.0001) %MON dynstat_theta_sd             =   4.4231578748868E+00
(PID.TID 0000.0001) %MON dynstat_theta_del2           =   4.8837554305387E-03
(PID.TID 0000.0001) %MON dynstat_salt_max             =   3.7485236494682E+01
(PID.TID 0000.0001) %MON dynstat_salt_min             =   2.9883009431149E+01
(PID.TID 0000.0001) %MON dynstat_salt_mean            =   3.4737964999474E+01
(PID.TID 0000.0001) %MON dynstat_salt_sd              =   2.9638219589656E-01
(PID.TID 0000.0001) %MON dynstat_salt_del2            =   9.8980022688770E-04
(PID.TID 0000.0001) %MON dynstat_sst_max              =   3.0518093644377E+01
(PID.TID 0000.0001) %MON dynstat_sst_min              =  -1.9717451358706E+00
(PID.TID 0000.0001) %MON dynstat_sst_mean             =   1.8991756486922E+01
(PID.TID 0000.0001) %MON dynstat_sst_sd               =   9.0509467120435E+00
(PID.TID 0000.0001) %MON dynstat_sst_del2             =   2.7807388044411E-02
(PID.TID 0000.0001) %MON dynstat_sss_max              =   3.7460833779449E+01
(PID.TID 0000.0001) %MON dynstat_sss_min              =   2.9883009431149E+01
(PID.TID 0000.0001) %MON dynstat_sss_mean             =   3.4861661610639E+01
(PID.TID 0000.0001) %MON dynstat_sss_sd               =   9.7968997094599E-01
(PID.TID 0000.0001) %MON dynstat_sss_del2             =   7.9639707794048E-03
(PID.TID 0000.0001) %MON forcing_qnet_max             =   3.2767257181803E+02
(PID.TID 0000.0001) %MON forcing_qnet_min             =  -1.6954189707438E+02
(PID.TID 0000.0001) %MON forcing_qnet_mean            =  -1.1508516483050E+01
(PID.TID 0000.0001) %MON forcing_qnet_sd              =   6.4697646918086E+01
(PID.TID 0000.0001) %MON forcing_qnet_del2            =   8.9565534558300E-01
(PID.TID 0000.0001) %MON forcing_qsw_max              =   0.0000000000000E+00
(PID.TID 0000.0001) %MON forcing_qsw_min              =   0.0000000000000E+00
(PID.TID 0000.0001) %MON forcing_qsw_mean             =   0.0000000000000E+00
(PID.TID 0000.0001) %MON forcing_qsw_sd               =   0.0000000000000E+00
(PID.TID 0000.0001) %MON forcing_qsw_del2             =   0.0000000000000E+00
(PID.TID 0000.0001) %MON forcing_empmr_max            =   6.9218192303803E-05
(PID.TID 0000.0001) %MON forcing_empmr_min            =  -7.5680005314401E-05
(PID.TID 0000.0001) %MON forcing_empmr_mean           =   7.9941974029146E-07
(PID.TID 0000.0001) %MON forcing_empmr_sd             =   2.7118041416458E-05
(PID.TID 0000.0001) %MON forcing_empmr_del2           =   3.5326953117768E-07
(PID.TID 0000.0001) %MON forcing_fu_max               =   3.2066449820995E-01
(PID.TID 0000.0001) %MON forcing_fu_min               =  -2.7496327509483E-01
(PID.TID 0000.0001) %MON forcing_fu_mean              =   1.8666937100678E-02
(PID.TID 0000.0001) %MON forcing_fu_sd                =   9.4247901717010E-02
(PID.TID 0000.0001) %MON forcing_fu_del2              =   7.0585629130029E-04
(PID.TID 0000.0001) %MON forcing_fv_max               =   1.5726317167282E-01
(PID.TID 0000.0001) %MON forcing_fv_min               =  -1.8333285748959E-01
(PID.TID 0000.0001) %MON forcing_fv_mean              =  -7.3314367906246E-03
(PID.TID 0000.0001) %MON forcing_fv_sd                =   4.2374687785746E-02
(PID.TID 0000.0001) %MON forcing_fv_del2              =   4.7761157425794E-04
(PID.TID 0000.0001) %MON trAdv_CFL_u_max              =   3.8782735068900E-02
(PID.TID 0000.0001) %MON trAdv_CFL_v_max              =   2.7570509677392E-02
(PID.TID 0000.0001) %MON trAdv_CFL_w_max              =   3.5930867100839E-02
(PID.TID 0000.0001) %MON advcfl_uvel_max              =   3.8750403289916E-02
(PID.TID 0000.0001) %MON advcfl_vvel_max              =   2.7747462609868E-02
(PID.TID 0000.0001) %MON advcfl_wvel_max              =   4.0058570872102E-02
(PID.TID 0000.0001) %MON advcfl_W_hf_max              =   4.8642550344696E-02
(PID.TID 0000.0001) %MON pe_b_mean                    =   4.0638314114504E-04
(PID.TID 0000.0001) %MON ke_max                       =   1.6440453498004E-02
(PID.TID 0000.0001) %MON ke_mean                      =   1.7221673993446E-04
(PID.TID 0000.0001) %MON ke_vol                       =   1.3226782436723E+18
(PID.TID 0000.0001) %MON vort_r_min                   =  -4.5830949326646E-07
(PID.TID 0000.0001) %MON vort_r_max                   =   5.4010171830525E-07
(PID.TID 0000.0001) %MON vort_a_mean                  =  -2.5274807677590E-05
(PID.TID 0000.0001) %MON vort_a_sd                    =   7.3604451001375E-05
(PID.TID 0000.0001) %MON vort_p_mean                  =  -3.1845656152440E-05
(PID.TID 0000.0001) %MON vort_p_sd                    =   1.3162397026380E-04
(PID.TID 0000.0001) %MON surfExpan_theta_mean         =  -1.6959665046652E-07
(PID.TID 0000.0001) %MON surfExpan_salt_mean          =   1.5978647981611E-07
(PID.TID 0000.0001) // =======================================================
(PID.TID 0000.0001) // End MONITOR dynamic field statistics
(PID.TID 0000.0001) // =======================================================
 EXTERNAL_FIELDS_LOAD,        57 : iP,iLd,i0,i1=    2    3    2    3 ; Wght=  0.6000000000  0.4000000000
 EXTERNAL_FIELDS_LOAD: (fu0,1),fu,fv= -1.4435E-02 -2.7199E-02 -1.9540E-02 -1.0813E-02
 EXTERNAL_FIELDS_LOAD: SST,SSS,Q,E-P= -3.9268E-01  3.4484E+01  2.3045E+02  8.6586E-06
DEBUG_STATS_RL:          Uvel (THERMODYNAMICS)  min= -1.40891229246382E-01
DEBUG_STATS_RL:          Uvel (THERMODYNAMICS)  max=  1.40914151373604E-01
DEBUG_STATS_RL:          Uvel (THERMODYNAMICS) mean=  5.13862501786069E-03
DEBUG_STATS_RL:          Uvel (THERMODYNAMICS) S.D.=  2.31936017729891E-02
DEBUG_STATS_RL:          Vvel (THERMODYNAMICS)  min= -9.75248263951136E-02
DEBUG_STATS_RL:          Vvel (THERMODYNAMICS)  max=  1.42819110411821E-01
DEBUG_STATS_RL:          Vvel (THERMODYNAMICS) mean=  1.24798830332666E-03
DEBUG_STATS_RL:          Vvel (THERMODYNAMICS) S.D.=  1.52817604476939E-02
DEBUG_STATS_RL:          Wvel (THERMODYNAMICS)  min= -1.02095865128427E-04
DEBUG_STATS_RL:          Wvel (THERMODYNAMICS)  max=  1.48011354199158E-04
DEBUG_STATS_RL:          Wvel (THERMODYNAMICS) mean= -4.03005344625998E-08
DEBUG_STATS_RL:          Wvel (THERMODYNAMICS) S.D.=  1.25566518530618E-05
DEBUG_STATS_RL:         Theta (THERMODYNAMICS)  min= -1.97004494486396E+00
DEBUG_STATS_RL:         Theta (THERMODYNAMICS)  max=  3.05445873874588E+01
DEBUG_STATS_RL:         Theta (THERMODYNAMICS) mean=  3.23909447897944E+00
DEBUG_STATS_RL:         Theta (THERMODYNAMICS) S.D.=  5.87628106201245E+00
DEBUG_STATS_RL:          Salt (THERMODYNAMICS)  min=  2.00000000000000E-02
DEBUG_STATS_RL:          Salt (THERMODYNAMICS)  max=  3.74856319781446E+01
DEBUG_STATS_RL:          Salt (THERMODYNAMICS) mean=  1.88648567242423E+01
DEBUG_STATS_RL:          Salt (THERMODYNAMICS) S.D.=  1.73003824681519E+01
DEBUG_STATS_RL:         GtNm1 (THERMODYNAMICS)  min= -3.23223138618491E-06
DEBUG_STATS_RL:         GtNm1 (THERMODYNAMICS)  max=  2.32411817169280E-06
DEBUG_STATS_RL:         GtNm1 (THERMODYNAMICS) mean=  3.20300505587305E-09
DEBUG_STATS_RL:         GtNm1 (THERMODYNAMICS) S.D.=  1.82010131182363E-07
DEBUG_STATS_RL:         GsNm1 (THERMODYNAMICS)  min= -4.14119847597557E-07
DEBUG_STATS_RL:         GsNm1 (THERMODYNAMICS)  max=  2.74045817981685E-07
DEBUG_STATS_RL:         GsNm1 (THERMODYNAMICS) mean= -4.28741031604250E-10
DEBUG_STATS_RL:         GsNm1 (THERMODYNAMICS) S.D.=  1.83348368888635E-08
DEBUG_STATS_RL:                EtaN (DYNAMICS)  min= -1.86360724194054E+00
DEBUG_STATS_RL:                EtaN (DYNAMICS)  max=  7.86971054769788E-01
DEBUG_STATS_RL:                EtaN (DYNAMICS) mean= -1.69817047978791E-01
DEBUG_STATS_RL:                EtaN (DYNAMICS) S.D.=  6.62022010499659E-01
DEBUG_STATS_RL:                Uvel (DYNAMICS)  min= -1.40891229246382E-01
DEBUG_STATS_RL:                Uvel (DYNAMICS)  max=  1.40914151373604E-01
DEBUG_STATS_RL:                Uvel (DYNAMICS) mean=  5.13862501786069E-03
DEBUG_STATS_RL:                Uvel (DYNAMICS) S.D.=  2.31936017729891E-02
DEBUG_STATS_RL:                Vvel (DYNAMICS)  min= -9.75248263951136E-02
DEBUG_STATS_RL:                Vvel (DYNAMICS)  max=  1.42819110411821E-01
DEBUG_STATS_RL:                Vvel (DYNAMICS) mean=  1.24798830332666E-03
DEBUG_STATS_RL:                Vvel (DYNAMICS) S.D.=  1.52817604476939E-02
DEBUG_STATS_RL:                Wvel (DYNAMICS)  min= -1.02095865128427E-04
DEBUG_STATS_RL:                Wvel (DYNAMICS)  max=  1.48011354199158E-04
DEBUG_STATS_RL:                Wvel (DYNAMICS) mean= -4.03005344625998E-08
DEBUG_STATS_RL:                Wvel (DYNAMICS) S.D.=  1.25566518530618E-05
DEBUG_STATS_RL:               Theta (DYNAMICS)  min= -1.97004494486396E+00
DEBUG_STATS_RL:               Theta (DYNAMICS)  max=  3.05445873874588E+01
DEBUG_STATS_RL:               Theta (DYNAMICS) mean=  3.23909447897944E+00
DEBUG_STATS_RL:               Theta (DYNAMICS) S.D.=  5.87628106201245E+00
DEBUG_STATS_RL:                Salt (DYNAMICS)  min=  2.00000000000000E-02
DEBUG_STATS_RL:                Salt (DYNAMICS)  max=  3.74856319781446E+01
DEBUG_STATS_RL:                Salt (DYNAMICS) mean=  1.88648567242423E+01
DEBUG_STATS_RL:                Salt (DYNAMICS) S.D.=  1.73003824681519E+01
DEBUG_STATS_RL:                  Gu (DYNAMICS)  min= -1.37074441804462E-01
DEBUG_STATS_RL:                  Gu (DYNAMICS)  max=  1.34838273469154E-01
DEBUG_STATS_RL:                  Gu (DYNAMICS) mean=  5.25158594520010E-03
DEBUG_STATS_RL:                  Gu (DYNAMICS) S.D.=  2.34059676051376E-02
DEBUG_STATS_RL:                  Gv (DYNAMICS)  min= -1.01090867762231E-01
DEBUG_STATS_RL:                  Gv (DYNAMICS)  max=  1.44753685425666E-01
DEBUG_STATS_RL:                  Gv (DYNAMICS) mean=  3.56448687375023E-03
DEBUG_STATS_RL:                  Gv (DYNAMICS) S.D.=  1.66715303466156E-02
DEBUG_STATS_RL:               GuNm1 (DYNAMICS)  min= -9.74161887348284E-06
DEBUG_STATS_RL:               GuNm1 (DYNAMICS)  max=  9.35922097154264E-06
DEBUG_STATS_RL:               GuNm1 (DYNAMICS) mean=  7.80741476106101E-09
DEBUG_STATS_RL:               GuNm1 (DYNAMICS) S.D.=  1.20100320807933E-06
DEBUG_STATS_RL:               GvNm1 (DYNAMICS)  min= -9.64173834480821E-06
DEBUG_STATS_RL:               GvNm1 (DYNAMICS)  max=  1.60950559343960E-05
DEBUG_STATS_RL:               GvNm1 (DYNAMICS) mean=  7.44410134897259E-07
DEBUG_STATS_RL:               GvNm1 (DYNAMICS) S.D.=  2.64441914096326E-06
DEBUG_STATS_RL:               GtNm1 (DYNAMICS)  min= -3.23223138618491E-06
DEBUG_STATS_RL:               GtNm1 (DYNAMICS)  max=  2.32411817169280E-06
DEBUG_STATS_RL:               GtNm1 (DYNAMICS) mean=  3.20300505587305E-09
DEBUG_STATS_RL:               GtNm1 (DYNAMICS) S.D.=  1.82010131182363E-07
DEBUG_STATS_RL:               GsNm1 (DYNAMICS)  min= -4.14119847597557E-07
DEBUG_STATS_RL:               GsNm1 (DYNAMICS)  max=  2.74045817981685E-07
DEBUG_STATS_RL:               GsNm1 (DYNAMICS) mean= -4.28741031604250E-10
DEBUG_STATS_RL:               GsNm1 (DYNAMICS) S.D.=  1.83348368888635E-08
DEBUG_STATS_RL:    cg2d_b (SOLVE_FOR_PRESSURE)  min= -1.98493771754819E+04
DEBUG_STATS_RL:    cg2d_b (SOLVE_FOR_PRESSURE)  max=  2.55927689827486E+04
DEBUG_STATS_RL:    cg2d_b (SOLVE_FOR_PRESSURE) mean=  4.15240226346963E+00
DEBUG_STATS_RL:    cg2d_b (SOLVE_FOR_PRESSURE) S.D.=  3.90617612649590E+03
 cg2d: Sum(rhs),rhsMax =   3.75606533486588E-01  1.68100158952464E+00
(PID.TID 0000.0001)  cg2d: iter=     1 ; resid.=  1.70500726814664E-01
(PID.TID 0000.0001)  cg2d: iter=     2 ; resid.=  1.42711128344818E-01
(PID.TID 0000.0001)  cg2d: iter=     3 ; resid.=  1.24448949006583E-01
(PID.TID 0000.0001)  cg2d: iter=     4 ; resid.=  1.11814200373420E-01
(PID.TID 0000.0001)  cg2d: iter=     5 ; resid.=  9.49045764332065E-02
(PID.TID 0000.0001)  cg2d: iter=     6 ; resid.=  7.73421429111751E-02
(PID.TID 0000.0001)  cg2d: iter=     7 ; resid.=  6.91713540938195E-02
(PID.TID 0000.0001)  cg2d: iter=     8 ; resid.=  5.71486429768748E-02
(PID.TID 0000.0001)  cg2d: iter=     9 ; resid.=  4.65195711727235E-02
(PID.TID 0000.0001)  cg2d: iter=    10 ; resid.=  4.17955533760022E-02
(PID.TID 0000.0001)  cg2d: iter=    11 ; resid.=  3.83822049281826E-02
(PID.TID 0000.0001)  cg2d: iter=    12 ; resid.=  3.07596385509564E-02
(PID.TID 0000.0001)  cg2d: iter=    13 ; resid.=  2.42376061175405E-02
(PID.TID 0000.0001)  cg2d: iter=    14 ; resid.=  1.94082593716611E-02
(PID.TID 0000.0001)  cg2d: iter=    15 ; resid.=  1.62387699924471E-02
(PID.TID 0000.0001)  cg2d: iter=    16 ; resid.=  1.44291733276545E-02
(PID.TID 0000.0001)  cg2d: iter=    17 ; resid.=  1.25719353115732E-02
(PID.TID 0000.0001)  cg2d: iter=    18 ; resid.=  1.13322864921847E-02
(PID.TID 0000.0001)  cg2d: iter=    19 ; resid.=  8.88678637019684E-03
(PID.TID 0000.0001)  cg2d: iter=    20 ; resid.=  7.26491391101230E-03
(PID.TID 0000.0001)  cg2d: iter=    21 ; resid.=  6.14615008471389E-03
(PID.TID 0000.0001)  cg2d: iter=    22 ; resid.=  5.40436002373003E-03
(PID.TID 0000.0001)  cg2d: iter=    23 ; resid.=  4.43953586885317E-03
(PID.TID 0000.0001)  cg2d: iter=    24 ; resid.=  3.86345067483386E-03
(PID.TID 0000.0001)  cg2d: iter=    25 ; resid.=  3.01614072172583E-03
(PID.TID 0000.0001)  cg2d: iter=    26 ; resid.=  2.46052661221920E-03
(PID.TID 0000.0001)  cg2d: iter=    27 ; resid.=  2.11468221086069E-03
(PID.TID 0000.0001)  cg2d: iter=    28 ; resid.=  1.77995570291089E-03
(PID.TID 0000.0001)  cg2d: iter=    29 ; resid.=  1.50763234605871E-03
(PID.TID 0000.0001)  cg2d: iter=    30 ; resid.=  1.22484863982476E-03
(PID.TID 0000.0001)  cg2d: iter=    31 ; resid.=  1.02451093606174E-03
(PID.TID 0000.0001)  cg2d: iter=    32 ; resid.=  7.97963470016213E-04
(PID.TID 0000.0001)  cg2d: iter=    33 ; resid.=  6.80419999844713E-04
(PID.TID 0000.0001)  cg2d: iter=    34 ; resid.=  6.00266172698018E-04
(PID.TID 0000.0001)  cg2d: iter=    35 ; resid.=  5.01103145955745E-04
(PID.TID 0000.0001)  cg2d: iter=    36 ; resid.=  4.34142925057961E-04
(PID.TID 0000.0001)  cg2d: iter=    37 ; resid.=  3.54069735029086E-04
(PID.TID 0000.0001)  cg2d: iter=    38 ; resid.=  3.08101009236401E-04
(PID.TID 0000.0001)  cg2d: iter=    39 ; resid.=  2.68662117408772E-04
(PID.TID 0000.0001)  cg2d: iter=    40 ; resid.=  2.42400199328058E-04
(PID.TID 0000.0001)  cg2d: iter=    41 ; resid.=  2.17742853248325E-04
(PID.TID 0000.0001)  cg2d: iter=    42 ; resid.=  1.89229573043003E-04
(PID.TID 0000.0001)  cg2d: iter=    43 ; resid.=  1.49451310746459E-04
(PID.TID 0000.0001)  cg2d: iter=    44 ; resid.=  1.07952202067359E-04
(PID.TID 0000.0001)  cg2d: iter=    45 ; resid.=  7.72209836298580E-05
(PID.TID 0000.0001)  cg2d: iter=    46 ; resid.=  5.96842632821774E-05
(PID.TID 0000.0001)  cg2d: iter=    47 ; resid.=  4.83590853872372E-05
(PID.TID 0000.0001)  cg2d: iter=    48 ; resid.=  3.95411135432047E-05
(PID.TID 0000.0001)  cg2d: iter=    49 ; resid.=  3.10242123726195E-05
(PID.TID 0000.0001)  cg2d: iter=    50 ; resid.=  2.41653750316451E-05
(PID.TID 0000.0001)  cg2d: iter=    51 ; resid.=  1.97629821591691E-05
(PID.TID 0000.0001)  cg2d: iter=    52 ; resid.=  1.61241825607983E-05
(PID.TID 0000.0001)  cg2d: iter=    53 ; resid.=  1.39553850646287E-05
(PID.TID 0000.0001)  cg2d: iter=    54 ; resid.=  1.18076015234897E-05
(PID.TID 0000.0001)  cg2d: iter=    55 ; resid.=  1.06291465518296E-05
(PID.TID 0000.0001)  cg2d: iter=    56 ; resid.=  9.67805390610715E-06
(PID.TID 0000.0001)  cg2d: iter=    57 ; resid.=  8.01433387685038E-06
(PID.TID 0000.0001)  cg2d: iter=    58 ; resid.=  6.23836478073999E-06
(PID.TID 0000.0001)  cg2d: iter=    59 ; resid.=  5.04295915904543E-06
(PID.TID 0000.0001)  cg2d: iter=    60 ; resid.=  3.89484601300524E-06
(PID.TID 0000.0001)  cg2d: iter=    61 ; resid.=  3.26308154252114E-06
(PID.TID 0000.0001)  cg2d: iter=    62 ; resid.=  2.85734596332158E-06
(PID.TID 0000.0001)  cg2d: iter=    63 ; resid.=  2.41156698471211E-06
(PID.TID 0000.0001)  cg2d: iter=    64 ; resid.=  1.92293967638834E-06
(PID.TID 0000.0001)  cg2d: iter=    65 ; resid.=  1.53067345812383E-06
(PID.TID 0000.0001)  cg2d: iter=    66 ; resid.=  1.29543870414195E-06
(PID.TID 0000.0001)  cg2d: iter=    67 ; resid.=  1.15016617706256E-06
(PID.TID 0000.0001)  cg2d: iter=    68 ; resid.=  8.98021428312980E-07
(PID.TID 0000.0001)  cg2d: iter=    69 ; resid.=  7.25581461614800E-07
(PID.TID 0000.0001)  cg2d: iter=    70 ; resid.=  5.67970803229368E-07
(PID.TID 0000.0001)  cg2d: iter=    71 ; resid.=  4.85397520109384E-07
(PID.TID 0000.0001)  cg2d: iter=    72 ; resid.=  4.05885445880344E-07
(PID.TID 0000.0001)  cg2d: iter=    73 ; resid.=  3.48128251997038E-07
(PID.TID 0000.0001)  cg2d: iter=    74 ; resid.=  2.73798624442457E-07
(PID.TID 0000.0001)  cg2d: iter=    75 ; resid.=  2.18469846830954E-07
(PID.TID 0000.0001)  cg2d: iter=    76 ; resid.=  1.85188127904594E-07
(PID.TID 0000.0001)  cg2d: iter=    77 ; resid.=  1.63966608337559E-07
(PID.TID 0000.0001)  cg2d: iter=    78 ; resid.=  1.45421829657737E-07
(PID.TID 0000.0001)  cg2d: iter=    79 ; resid.=  1.23982526514097E-07
(PID.TID 0000.0001)  cg2d: iter=    80 ; resid.=  9.88652928532368E-08
(PID.TID 0000.0001)  cg2d: iter=    81 ; resid.=  7.61276788525963E-08
(PID.TID 0000.0001)  cg2d: iter=    82 ; resid.=  5.85227796724881E-08
(PID.TID 0000.0001)  cg2d: iter=    83 ; resid.=  4.08925794352478E-08
(PID.TID 0000.0001)  cg2d: iter=    84 ; resid.=  2.83483295553979E-08
(PID.TID 0000.0001)  cg2d: iter=    85 ; resid.=  2.01719220357519E-08
(PID.TID 0000.0001)  cg2d: iter=    86 ; resid.=  1.56301826593657E-08
(PID.TID 0000.0001)  cg2d: iter=    87 ; resid.=  1.29282552467753E-08
(PID.TID 0000.0001)  cg2d: iter=    88 ; resid.=  9.82130116313313E-09
(PID.TID 0000.0001)  cg2d: iter=    89 ; resid.=  7.85464768653779E-09
(PID.TID 0000.0001)  cg2d: iter=    90 ; resid.=  6.40702900999399E-09
(PID.TID 0000.0001)  cg2d: iter=    91 ; resid.=  4.68777688578212E-09
(PID.TID 0000.0001)  cg2d: iter=    92 ; resid.=  3.37276233692059E-09
(PID.TID 0000.0001)  cg2d: iter=    93 ; resid.=  2.71648450368826E-09
(PID.TID 0000.0001)  cg2d: iter=    94 ; resid.=  2.20723272004782E-09
(PID.TID 0000.0001)  cg2d: iter=    95 ; resid.=  1.94873192828767E-09
(PID.TID 0000.0001)  cg2d: iter=    96 ; resid.=  1.46576965733573E-09
(PID.TID 0000.0001)  cg2d: iter=    97 ; resid.=  1.05673299290811E-09
(PID.TID 0000.0001)  cg2d: iter=    98 ; resid.=  8.32862820115146E-10
(PID.TID 0000.0001)  cg2d: iter=    99 ; resid.=  6.78029835889087E-10
(PID.TID 0000.0001)  cg2d: iter=   100 ; resid.=  6.26096781846702E-10
(PID.TID 0000.0001)  cg2d: iter=   101 ; resid.=  5.14783741195981E-10
(PID.TID 0000.0001)  cg2d: iter=   102 ; resid.=  4.24819076378742E-10
(PID.TID 0000.0001)  cg2d: iter=   103 ; resid.=  3.35107613057560E-10
(PID.TID 0000.0001)  cg2d: iter=   104 ; resid.=  2.67078979606484E-10
(PID.TID 0000.0001)  cg2d: iter=   105 ; resid.=  2.15549875595216E-10
(PID.TID 0000.0001)  cg2d: iter=   106 ; resid.=  1.80371257733105E-10
(PID.TID 0000.0001)  cg2d: iter=   107 ; resid.=  1.44749847605520E-10
(PID.TID 0000.0001)  cg2d: iter=   108 ; resid.=  1.20020530962579E-10
(PID.TID 0000.0001)  cg2d: iter=   109 ; resid.=  9.38422105537567E-11
(PID.TID 0000.0001)  cg2d: iter=   110 ; resid.=  7.68127329089227E-11
(PID.TID 0000.0001)  cg2d: iter=   111 ; resid.=  6.47435101696621E-11
(PID.TID 0000.0001)  cg2d: iter=   112 ; resid.=  4.73433759768691E-11
(PID.TID 0000.0001)  cg2d: iter=   113 ; resid.=  3.57946716494534E-11
(PID.TID 0000.0001)  cg2d: iter=   114 ; resid.=  2.82046970478728E-11
(PID.TID 0000.0001)  cg2d: iter=   115 ; resid.=  2.15319502699805E-11
(PID.TID 0000.0001)  cg2d: iter=   116 ; resid.=  1.61569744883851E-11
(PID.TID 0000.0001)  cg2d: iter=   117 ; resid.=  1.26396774956709E-11
(PID.TID 0000.0001)  cg2d: iter=   118 ; resid.=  1.04737510935453E-11
(PID.TID 0000.0001)  cg2d: iter=   119 ; resid.=  7.73201359793793E-12
(PID.TID 0000.0001)  cg2d: iter=   120 ; resid.=  5.97811806895515E-12
(PID.TID 0000.0001)  cg2d: iter=   121 ; resid.=  4.63565227892769E-12
(PID.TID 0000.0001)  cg2d: iter=   122 ; resid.=  3.82813007037887E-12
(PID.TID 0000.0001)  cg2d: iter=   123 ; resid.=  2.87261258086378E-12
(PID.TID 0000.0001)  cg2d: iter=   124 ; resid.=  2.02492281702356E-12
(PID.TID 0000.0001)  cg2d: iter=   125 ; resid.=  1.47044751905411E-12
(PID.TID 0000.0001)  cg2d: iter=   126 ; resid.=  1.02163490843782E-12
(PID.TID 0000.0001)  cg2d: iter=   127 ; resid.=  7.96826856133925E-13
(PID.TID 0000.0001)  cg2d: iter=   128 ; resid.=  5.64523507762020E-13
(PID.TID 0000.0001)  cg2d: iter=   129 ; resid.=  3.88192185343632E-13
(PID.TID 0000.0001)  cg2d: iter=   130 ; resid.=  2.78175374924786E-13
(PID.TID 0000.0001)  cg2d: iter=   131 ; resid.=  1.88155711307983E-13
(PID.TID 0000.0001)  cg2d: iter=   132 ; resid.=  1.31595207707832E-13
(PID.TID 0000.0001)  cg2d: iter=   133 ; resid.=  1.01076868210416E-13
(PID.TID 0000.0001)  cg2d: iter=   134 ; resid.=  8.25226070803202E-14
DEBUG_STATS_RL:    cg2d_x (SOLVE_FOR_PRESSURE)  min= -1.86958505020929E+01
DEBUG_STATS_RL:    cg2d_x (SOLVE_FOR_PRESSURE)  max=  7.98676489046436E+00
DEBUG_STATS_RL:    cg2d_x (SOLVE_FOR_PRESSURE) mean= -1.65456256512672E+00
DEBUG_STATS_RL:    cg2d_x (SOLVE_FOR_PRESSURE) S.D.=  6.55627994076147E+00
(PID.TID 0000.0001)      cg2d_init_res =   3.27979293645254E-01
(PID.TID 0000.0001)      cg2d_iters(min,last) =      -1     134
(PID.TID 0000.0001)      cg2d_last_res =   8.25226070803202E-14
(PID.TID 0000.0001) // =======================================================
(PID.TID 0000.0001) // Begin MONITOR dynamic field statistics
(PID.TID 0000.0001) // =======================================================
(PID.TID 0000.0001) %MON time_tsnumber                =                    58
(PID.TID 0000.0001) %MON time_secondsf                =   5.0112000000000E+06
(PID.TID 0000.0001) %MON dynstat_eta_max              =   8.1414524877310E-01
(PID.TID 0000.0001) %MON dynstat_eta_min              =  -1.9057951582153E+00
(PID.TID 0000.0001) %MON dynstat_eta_mean             =  -4.3325168810481E-03
(PID.TID 0000.0001) %MON dynstat_eta_sd               =   5.6902042547864E-01
(PID.TID 0000.0001) %MON dynstat_eta_del2             =   2.3843814392972E-03
(PID.TID 0000.0001) %MON dynstat_uvel_max             =   1.3628293797231E-01
(PID.TID 0000.0001) %MON dynstat_uvel_min             =  -1.3828236918092E-01
(PID.TID 0000.0001) %MON dynstat_uvel_mean            =   1.6985629812943E-03
(PID.TID 0000.0001) %MON dynstat_uvel_sd              =   1.6543625050120E-02
(PID.TID 0000.0001) %MON dynstat_uvel_del2            =   1.0156364216477E-04
(PID.TID 0000.0001) %MON dynstat_vvel_max             =   1.4237543648666E-01
(PID.TID 0000.0001) %MON dynstat_vvel_min             =  -9.8911136451717E-02
(PID.TID 0000.0001) %MON dynstat_vvel_mean            =   1.7924807554280E-04
(PID.TID 0000.0001) %MON dynstat_vvel_sd              =   1.0080266570474E-02
(PID.TID 0000.0001) %MON dynstat_vvel_del2            =   8.0784896249045E-05
(PID.TID 0000.0001) %MON dynstat_wvel_max             =   1.3050613384032E-04
(PID.TID 0000.0001) %MON dynstat_wvel_min             =  -9.5947665409860E-05
(PID.TID 0000.0001) %MON dynstat_wvel_mean            =  -5.6470704138621E-23
(PID.TID 0000.0001) %MON dynstat_wvel_sd              =   1.4273354383803E-05
(PID.TID 0000.0001) %MON dynstat_wvel_del2            =   1.4136183172043E-07
(PID.TID 0000.0001) %MON dynstat_theta_max            =   3.0544587387459E+01
(PID.TID 0000.0001) %MON dynstat_theta_min            =  -1.9700449448640E+00
(PID.TID 0000.0001) %MON dynstat_theta_mean           =   3.6430797509560E+00
(PID.TID 0000.0001) %MON dynstat_theta_sd             =   4.4233903081076E+00
(PID.TID 0000.0001) %MON dynstat_theta_del2           =   4.8929163222566E-03
(PID.TID 0000.0001) %MON dynstat_salt_max             =   3.7485631978145E+01
(PID.TID 0000.0001) %MON dynstat_salt_min             =   2.9886758152587E+01
(PID.TID 0000.0001) %MON dynstat_salt_mean            =   3.4737962753467E+01
(PID.TID 0000.0001) %MON dynstat_salt_sd              =   2.9638239790130E-01
(PID.TID 0000.0001) %MON dynstat_salt_del2            =   9.8991620073460E-04
(PID.TID 0000.0001) %MON dynstat_sst_max              =   3.0544587387459E+01
(PID.TID 0000.0001) %MON dynstat_sst_min              =  -1.9700449448640E+00
(PID.TID 0000.0001) %MON dynstat_sst_mean             =   1.8997613396740E+01
(PID.TID 0000.0001) %MON dynstat_sst_sd               =   9.0549243935136E+00
(PID.TID 0000.0001) %MON dynstat_sst_del2             =   2.7861098247258E-02
(PID.TID 0000.0001) %MON dynstat_sss_max              =   3.7461723946079E+01
(PID.TID 0000.0001) %MON dynstat_sss_min              =   2.9886758152587E+01
(PID.TID 0000.0001) %MON dynstat_sss_mean             =   3.4861296488017E+01
(PID.TID 0000.0001) %MON dynstat_sss_sd               =   9.7993932590032E-01
(PID.TID 0000.0001) %MON dynstat_sss_del2             =   7.9735368663209E-03
(PID.TID 0000.0001) %MON forcing_qnet_max             =   3.2487442016602E+02
(PID.TID 0000.0001) %MON forcing_qnet_min             =  -1.6924261779785E+02
(PID.TID 0000.0001) %MON forcing_qnet_mean            =  -1.1285176983424E+01
(PID.TID 0000.0001) %MON forcing_qnet_sd              =   6.3449695075861E+01
(PID.TID 0000.0001) %MON forcing_qnet_del2            =   8.9174766139185E-01
(PID.TID 0000.0001) %MON forcing_qsw_max              =   0.0000000000000E+00
(PID.TID 0000.0001) %MON forcing_qsw_min              =   0.0000000000000E+00
(PID.TID 0000.0001) %MON forcing_qsw_mean             =   0.0000000000000E+00
(PID.TID 0000.0001) %MON forcing_qsw_sd               =   0.0000000000000E+00
(PID.TID 0000.0001) %MON forcing_qsw_del2             =   0.0000000000000E+00
(PID.TID 0000.0001) %MON forcing_empmr_max            =   6.9212435960253E-05
(PID.TID 0000.0001) %MON forcing_empmr_min            =  -7.6079184907485E-05
(PID.TID 0000.0001) %MON forcing_empmr_mean           =   7.8632980941711E-07
(PID.TID 0000.0001) %MON forcing_empmr_sd             =   2.7052915154374E-05
(PID.TID 0000.0001) %MON forcing_empmr_del2           =   3.5339969316782E-07
(PID.TID 0000.0001) %MON forcing_fu_max               =   3.2260591387749E-01
(PID.TID 0000.0001) %MON forcing_fu_min               =  -2.8034790456295E-01
(PID.TID 0000.0001) %MON forcing_fu_mean              =   1.8761136690137E-02
(PID.TID 0000.0001) %MON forcing_fu_sd                =   9.4487425263087E-02
(PID.TID 0000.0001) %MON forcing_fu_del2              =   7.0683773160572E-04
(PID.TID 0000.0001) %MON forcing_fv_max               =   1.5618582963943E-01
(PID.TID 0000.0001) %MON forcing_fv_min               =  -1.8184682130814E-01
(PID.TID 0000.0001) %MON forcing_fv_mean              =  -7.3418651405940E-03
(PID.TID 0000.0001) %MON forcing_fv_sd                =   4.2230357499442E-02
(PID.TID 0000.0001) %MON forcing_fv_del2              =   4.7453329375474E-04
(PID.TID 0000.0001) %MON trAdv_CFL_u_max              =   3.8758273773971E-02
(PID.TID 0000.0001) %MON trAdv_CFL_v_max              =   2.7565407004186E-02
(PID.TID 0000.0001) %MON trAdv_CFL_w_max              =   3.4049785241287E-02
(PID.TID 0000.0001) %MON advcfl_uvel_max              =   3.9935343556941E-02
(PID.TID 0000.0001) %MON advcfl_vvel_max              =   2.7661263881885E-02
(PID.TID 0000.0001) %MON advcfl_wvel_max              =   4.0557442284931E-02
(PID.TID 0000.0001) %MON advcfl_W_hf_max              =   4.9248322774559E-02
(PID.TID 0000.0001) %MON pe_b_mean                    =   4.1434498698885E-04
(PID.TID 0000.0001) %MON ke_max                       =   1.6333375151758E-02
(PID.TID 0000.0001) %MON ke_mean                      =   1.7128536000648E-04
(PID.TID 0000.0001) %MON ke_vol                       =   1.3226782436723E+18
(PID.TID 0000.0001) %MON vort_r_min                   =  -4.4527116669560E-07
(PID.TID 0000.0001) %MON vort_r_max                   =   5.3143232986087E-07
(PID.TID 0000.0001) %MON vort_a_mean                  =  -2.5274807722708E-05
(PID.TID 0000.0001) %MON vort_a_sd                    =   7.3604479593435E-05
(PID.TID 0000.0001) %MON vort_p_mean                  =  -3.1845656209288E-05
(PID.TID 0000.0001) %MON vort_p_sd                    =   1.3162398652483E-04
(PID.TID 0000.0001) %MON surfExpan_theta_mean         =  -9.6536098763599E-08
(PID.TID 0000.0001) %MON surfExpan_salt_mean          =   1.1928011854196E-07
(PID.TID 0000.0001) // =======================================================
(PID.TID 0000.0001) // End MONITOR dynamic field statistics
(PID.TID 0000.0001) // =======================================================
 EXTERNAL_FIELDS_LOAD,        58 : iP,iLd,i0,i1=    2    3    2    3 ; Wght=  0.5666666667  0.4333333333
 EXTERNAL_FIELDS_LOAD: (fu0,1),fu,fv= -1.4435E-02 -2.7199E-02 -1.9966E-02 -1.0244E-02
 EXTERNAL_FIELDS_LOAD: SST,SSS,Q,E-P= -3.8108E-01  3.4490E+01  2.2961E+02  8.6821E-06
DEBUG_STATS_RL:          Uvel (THERMODYNAMICS)  min= -1.38282369180918E-01
DEBUG_STATS_RL:          Uvel (THERMODYNAMICS)  max=  1.36282937972307E-01
DEBUG_STATS_RL:          Uvel (THERMODYNAMICS) mean=  5.33406759517694E-03
DEBUG_STATS_RL:          Uvel (THERMODYNAMICS) S.D.=  2.30925396555310E-02
DEBUG_STATS_RL:          Vvel (THERMODYNAMICS)  min= -9.89111364517168E-02
DEBUG_STATS_RL:          Vvel (THERMODYNAMICS)  max=  1.42375436486665E-01
DEBUG_STATS_RL:          Vvel (THERMODYNAMICS) mean=  1.13564443919635E-03
DEBUG_STATS_RL:          Vvel (THERMODYNAMICS) S.D.=  1.52357927268073E-02
DEBUG_STATS_RL:          Wvel (THERMODYNAMICS)  min= -9.59476654098595E-05
DEBUG_STATS_RL:          Wvel (THERMODYNAMICS)  max=  1.30506133840324E-04
DEBUG_STATS_RL:          Wvel (THERMODYNAMICS) mean= -6.27712054355284E-08
DEBUG_STATS_RL:          Wvel (THERMODYNAMICS) S.D.=  1.23906257339877E-05
DEBUG_STATS_RL:         Theta (THERMODYNAMICS)  min= -1.96838025770467E+00
DEBUG_STATS_RL:         Theta (THERMODYNAMICS)  max=  3.05700003175597E+01
DEBUG_STATS_RL:         Theta (THERMODYNAMICS) mean=  3.23923761077791E+00
DEBUG_STATS_RL:         Theta (THERMODYNAMICS) S.D.=  5.87680707181713E+00
DEBUG_STATS_RL:          Salt (THERMODYNAMICS)  min=  2.00000000000000E-02
DEBUG_STATS_RL:          Salt (THERMODYNAMICS)  max=  3.74859830429404E+01
DEBUG_STATS_RL:          Salt (THERMODYNAMICS) mean=  1.88648394332616E+01
DEBUG_STATS_RL:          Salt (THERMODYNAMICS) S.D.=  1.73003669622021E+01
DEBUG_STATS_RL:         GtNm1 (THERMODYNAMICS)  min= -3.45903147355934E-06
DEBUG_STATS_RL:         GtNm1 (THERMODYNAMICS)  max=  2.22146605219239E-06
DEBUG_STATS_RL:         GtNm1 (THERMODYNAMICS) mean=  3.25734728218931E-09
DEBUG_STATS_RL:         GtNm1 (THERMODYNAMICS) S.D.=  1.79416808104598E-07
DEBUG_STATS_RL:         GsNm1 (THERMODYNAMICS)  min= -4.09567080651347E-07
DEBUG_STATS_RL:         GsNm1 (THERMODYNAMICS)  max=  2.89965575284132E-07
DEBUG_STATS_RL:         GsNm1 (THERMODYNAMICS) mean= -4.42892800395640E-10
DEBUG_STATS_RL:         GsNm1 (THERMODYNAMICS) S.D.=  1.81987968371631E-08
DEBUG_STATS_RL:                EtaN (DYNAMICS)  min= -1.90579515821530E+00
DEBUG_STATS_RL:                EtaN (DYNAMICS)  max=  8.14145248773099E-01
DEBUG_STATS_RL:                EtaN (DYNAMICS) mean= -1.68660811939523E-01
DEBUG_STATS_RL:                EtaN (DYNAMICS) S.D.=  6.68326191718797E-01
DEBUG_STATS_RL:                Uvel (DYNAMICS)  min= -1.38282369180918E-01
DEBUG_STATS_RL:                Uvel (DYNAMICS)  max=  1.36282937972307E-01
DEBUG_STATS_RL:                Uvel (DYNAMICS) mean=  5.33406759517694E-03
DEBUG_STATS_RL:                Uvel (DYNAMICS) S.D.=  2.30925396555310E-02
DEBUG_STATS_RL:                Vvel (DYNAMICS)  min= -9.89111364517168E-02
DEBUG_STATS_RL:                Vvel (DYNAMICS)  max=  1.42375436486665E-01
DEBUG_STATS_RL:                Vvel (DYNAMICS) mean=  1.13564443919635E-03
DEBUG_STATS_RL:                Vvel (DYNAMICS) S.D.=  1.52357927268073E-02
DEBUG_STATS_RL:                Wvel (DYNAMICS)  min= -9.59476654098595E-05
DEBUG_STATS_RL:                Wvel (DYNAMICS)  max=  1.30506133840324E-04
DEBUG_STATS_RL:                Wvel (DYNAMICS) mean= -6.27712054355284E-08
DEBUG_STATS_RL:                Wvel (DYNAMICS) S.D.=  1.23906257339877E-05
DEBUG_STATS_RL:               Theta (DYNAMICS)  min= -1.96838025770467E+00
DEBUG_STATS_RL:               Theta (DYNAMICS)  max=  3.05700003175597E+01
DEBUG_STATS_RL:               Theta (DYNAMICS) mean=  3.23923761077791E+00
DEBUG_STATS_RL:               Theta (DYNAMICS) S.D.=  5.87680707181713E+00
DEBUG_STATS_RL:                Salt (DYNAMICS)  min=  2.00000000000000E-02
DEBUG_STATS_RL:                Salt (DYNAMICS)  max=  3.74859830429404E+01
DEBUG_STATS_RL:                Salt (DYNAMICS) mean=  1.88648394332616E+01
DEBUG_STATS_RL:                Salt (DYNAMICS) S.D.=  1.73003669622021E+01
DEBUG_STATS_RL:                  Gu (DYNAMICS)  min= -1.34322522631418E-01
DEBUG_STATS_RL:                  Gu (DYNAMICS)  max=  1.30148467383630E-01
DEBUG_STATS_RL:                  Gu (DYNAMICS) mean=  5.41951967345283E-03
DEBUG_STATS_RL:                  Gu (DYNAMICS) S.D.=  2.33613031116739E-02
DEBUG_STATS_RL:                  Gv (DYNAMICS)  min= -1.02191180469175E-01
DEBUG_STATS_RL:                  Gv (DYNAMICS)  max=  1.44107053082412E-01
DEBUG_STATS_RL:                  Gv (DYNAMICS) mean=  3.50531312109538E-03
DEBUG_STATS_RL:                  Gv (DYNAMICS) S.D.=  1.65751820706057E-02
DEBUG_STATS_RL:               GuNm1 (DYNAMICS)  min= -9.77344845706818E-06
DEBUG_STATS_RL:               GuNm1 (DYNAMICS)  max=  9.38694407131364E-06
DEBUG_STATS_RL:               GuNm1 (DYNAMICS) mean=  8.06817409537482E-09
DEBUG_STATS_RL:               GuNm1 (DYNAMICS) S.D.=  1.20171846222323E-06
DEBUG_STATS_RL:               GvNm1 (DYNAMICS)  min= -9.73702619501953E-06
DEBUG_STATS_RL:               GvNm1 (DYNAMICS)  max=  1.60299834137501E-05
DEBUG_STATS_RL:               GvNm1 (DYNAMICS) mean=  7.44269221898277E-07
DEBUG_STATS_RL:               GvNm1 (DYNAMICS) S.D.=  2.64748055603985E-06
DEBUG_STATS_RL:               GtNm1 (DYNAMICS)  min= -3.45903147355934E-06
DEBUG_STATS_RL:               GtNm1 (DYNAMICS)  max=  2.22146605219239E-06
DEBUG_STATS_RL:               GtNm1 (DYNAMICS) mean=  3.25734728218931E-09
DEBUG_STATS_RL:               GtNm1 (DYNAMICS) S.D.=  1.79416808104598E-07
DEBUG_STATS_RL:               GsNm1 (DYNAMICS)  min= -4.09567080651347E-07
DEBUG_STATS_RL:               GsNm1 (DYNAMICS)  max=  2.89965575284132E-07
DEBUG_STATS_RL:               GsNm1 (DYNAMICS) mean= -4.42892800395640E-10
DEBUG_STATS_RL:               GsNm1 (DYNAMICS) S.D.=  1.81987968371631E-08
DEBUG_STATS_RL:    cg2d_b (SOLVE_FOR_PRESSURE)  min= -1.97576412758642E+04
DEBUG_STATS_RL:    cg2d_b (SOLVE_FOR_PRESSURE)  max=  2.57377685575999E+04
DEBUG_STATS_RL:    cg2d_b (SOLVE_FOR_PRESSURE) mean=  4.21426751630475E+00
DEBUG_STATS_RL:    cg2d_b (SOLVE_FOR_PRESSURE) S.D.=  3.91945494787584E+03
 cg2d: Sum(rhs),rhsMax =   3.79054978228280E-01  1.69052554982646E+00
(PID.TID 0000.0001)  cg2d: iter=     1 ; resid.=  1.61150102469580E-01
(PID.TID 0000.0001)  cg2d: iter=     2 ; resid.=  1.29165989776328E-01
(PID.TID 0000.0001)  cg2d: iter=     3 ; resid.=  1.10104340307357E-01
(PID.TID 0000.0001)  cg2d: iter=     4 ; resid.=  9.71660934718257E-02
(PID.TID 0000.0001)  cg2d: iter=     5 ; resid.=  7.72257508823223E-02
(PID.TID 0000.0001)  cg2d: iter=     6 ; resid.=  5.98216048379572E-02
(PID.TID 0000.0001)  cg2d: iter=     7 ; resid.=  5.28220752781508E-02
(PID.TID 0000.0001)  cg2d: iter=     8 ; resid.=  4.55924628407928E-02
(PID.TID 0000.0001)  cg2d: iter=     9 ; resid.=  3.78586439878973E-02
(PID.TID 0000.0001)  cg2d: iter=    10 ; resid.=  3.46757170996867E-02
(PID.TID 0000.0001)  cg2d: iter=    11 ; resid.=  3.23562336420390E-02
(PID.TID 0000.0001)  cg2d: iter=    12 ; resid.=  2.66406085603608E-02
(PID.TID 0000.0001)  cg2d: iter=    13 ; resid.=  2.13029908761473E-02
(PID.TID 0000.0001)  cg2d: iter=    14 ; resid.=  1.73772298066749E-02
(PID.TID 0000.0001)  cg2d: iter=    15 ; resid.=  1.48740697852120E-02
(PID.TID 0000.0001)  cg2d: iter=    16 ; resid.=  1.29805107898970E-02
(PID.TID 0000.0001)  cg2d: iter=    17 ; resid.=  1.12296173782571E-02
(PID.TID 0000.0001)  cg2d: iter=    18 ; resid.=  9.81872498436179E-03
(PID.TID 0000.0001)  cg2d: iter=    19 ; resid.=  7.82401420833138E-03
(PID.TID 0000.0001)  cg2d: iter=    20 ; resid.=  6.51863534364241E-03
(PID.TID 0000.0001)  cg2d: iter=    21 ; resid.=  5.55712384428856E-03
(PID.TID 0000.0001)  cg2d: iter=    22 ; resid.=  4.84557086314063E-03
(PID.TID 0000.0001)  cg2d: iter=    23 ; resid.=  3.92145392667735E-03
(PID.TID 0000.0001)  cg2d: iter=    24 ; resid.=  3.35695455279398E-03
(PID.TID 0000.0001)  cg2d: iter=    25 ; resid.=  2.61551071308220E-03
(PID.TID 0000.0001)  cg2d: iter=    26 ; resid.=  2.12491222806399E-03
(PID.TID 0000.0001)  cg2d: iter=    27 ; resid.=  1.84587473412791E-03
(PID.TID 0000.0001)  cg2d: iter=    28 ; resid.=  1.58412652865973E-03
(PID.TID 0000.0001)  cg2d: iter=    29 ; resid.=  1.36332255932068E-03
(PID.TID 0000.0001)  cg2d: iter=    30 ; resid.=  1.09709792987549E-03
(PID.TID 0000.0001)  cg2d: iter=    31 ; resid.=  9.18235624210798E-04
(PID.TID 0000.0001)  cg2d: iter=    32 ; resid.=  7.15106202669346E-04
(PID.TID 0000.0001)  cg2d: iter=    33 ; resid.=  6.17357630952884E-04
(PID.TID 0000.0001)  cg2d: iter=    34 ; resid.=  5.43648254132463E-04
(PID.TID 0000.0001)  cg2d: iter=    35 ; resid.=  4.46242371242369E-04
(PID.TID 0000.0001)  cg2d: iter=    36 ; resid.=  3.74491720544975E-04
(PID.TID 0000.0001)  cg2d: iter=    37 ; resid.=  2.95859611681816E-04
(PID.TID 0000.0001)  cg2d: iter=    38 ; resid.=  2.44816616830587E-04
(PID.TID 0000.0001)  cg2d: iter=    39 ; resid.=  2.11528428231239E-04
(PID.TID 0000.0001)  cg2d: iter=    40 ; resid.=  1.89020554263569E-04
(PID.TID 0000.0001)  cg2d: iter=    41 ; resid.=  1.72178065490866E-04
(PID.TID 0000.0001)  cg2d: iter=    42 ; resid.=  1.54781987066263E-04
(PID.TID 0000.0001)  cg2d: iter=    43 ; resid.=  1.26010034181062E-04
(PID.TID 0000.0001)  cg2d: iter=    44 ; resid.=  9.35304023334869E-05
(PID.TID 0000.0001)  cg2d: iter=    45 ; resid.=  6.80353617504504E-05
(PID.TID 0000.0001)  cg2d: iter=    46 ; resid.=  5.28349812175154E-05
(PID.TID 0000.0001)  cg2d: iter=    47 ; resid.=  4.23069168862955E-05
(PID.TID 0000.0001)  cg2d: iter=    48 ; resid.=  3.45720922775633E-05
(PID.TID 0000.0001)  cg2d: iter=    49 ; resid.=  2.62152106713321E-05
(PID.TID 0000.0001)  cg2d: iter=    50 ; resid.=  1.94116362423041E-05
(PID.TID 0000.0001)  cg2d: iter=    51 ; resid.=  1.47432283033386E-05
(PID.TID 0000.0001)  cg2d: iter=    52 ; resid.=  1.11289611800030E-05
(PID.TID 0000.0001)  cg2d: iter=    53 ; resid.=  9.11244058061719E-06
(PID.TID 0000.0001)  cg2d: iter=    54 ; resid.=  7.38445039571793E-06
(PID.TID 0000.0001)  cg2d: iter=    55 ; resid.=  6.37040272731699E-06
(PID.TID 0000.0001)  cg2d: iter=    56 ; resid.=  5.70596200265016E-06
(PID.TID 0000.0001)  cg2d: iter=    57 ; resid.=  4.85294206005078E-06
(PID.TID 0000.0001)  cg2d: iter=    58 ; resid.=  3.90054192892872E-06
(PID.TID 0000.0001)  cg2d: iter=    59 ; resid.=  3.20510737744862E-06
(PID.TID 0000.0001)  cg2d: iter=    60 ; resid.=  2.53727356993292E-06
(PID.TID 0000.0001)  cg2d: iter=    61 ; resid.=  2.10388332368795E-06
(PID.TID 0000.0001)  cg2d: iter=    62 ; resid.=  1.83009635903903E-06
(PID.TID 0000.0001)  cg2d: iter=    63 ; resid.=  1.56548260950925E-06
(PID.TID 0000.0001)  cg2d: iter=    64 ; resid.=  1.28439464890574E-06
(PID.TID 0000.0001)  cg2d: iter=    65 ; resid.=  1.05738164859759E-06
(PID.TID 0000.0001)  cg2d: iter=    66 ; resid.=  9.18344510396230E-07
(PID.TID 0000.0001)  cg2d: iter=    67 ; resid.=  8.47003954919385E-07
(PID.TID 0000.0001)  cg2d: iter=    68 ; resid.=  6.82083463191458E-07
(PID.TID 0000.0001)  cg2d: iter=    69 ; resid.=  5.42136508473432E-07
(PID.TID 0000.0001)  cg2d: iter=    70 ; resid.=  4.07551513798808E-07
(PID.TID 0000.0001)  cg2d: iter=    71 ; resid.=  3.40747236547854E-07
(PID.TID 0000.0001)  cg2d: iter=    72 ; resid.=  2.81514165874803E-07
(PID.TID 0000.0001)  cg2d: iter=    73 ; resid.=  2.35124120808389E-07
(PID.TID 0000.0001)  cg2d: iter=    74 ; resid.=  1.82488032427164E-07
(PID.TID 0000.0001)  cg2d: iter=    75 ; resid.=  1.36619006463799E-07
(PID.TID 0000.0001)  cg2d: iter=    76 ; resid.=  1.07678553687232E-07
(PID.TID 0000.0001)  cg2d: iter=    77 ; resid.=  9.23467306613714E-08
(PID.TID 0000.0001)  cg2d: iter=    78 ; resid.=  8.27438505879891E-08
(PID.TID 0000.0001)  cg2d: iter=    79 ; resid.=  7.90263893646237E-08
(PID.TID 0000.0001)  cg2d: iter=    80 ; resid.=  7.05690291800962E-08
(PID.TID 0000.0001)  cg2d: iter=    81 ; resid.=  5.84526267259790E-08
(PID.TID 0000.0001)  cg2d: iter=    82 ; resid.=  4.76355638958353E-08
(PID.TID 0000.0001)  cg2d: iter=    83 ; resid.=  3.51326400818699E-08
(PID.TID 0000.0001)  cg2d: iter=    84 ; resid.=  2.55472366616920E-08
(PID.TID 0000.0001)  cg2d: iter=    85 ; resid.=  1.83824373459657E-08
(PID.TID 0000.0001)  cg2d: iter=    86 ; resid.=  1.45101700274901E-08
(PID.TID 0000.0001)  cg2d: iter=    87 ; resid.=  1.18452279370422E-08
(PID.TID 0000.0001)  cg2d: iter=    88 ; resid.=  9.00516340612100E-09
(PID.TID 0000.0001)  cg2d: iter=    89 ; resid.=  7.16042839281917E-09
(PID.TID 0000.0001)  cg2d: iter=    90 ; resid.=  6.12939421347163E-09
(PID.TID 0000.0001)  cg2d: iter=    91 ; resid.=  4.75895008792406E-09
(PID.TID 0000.0001)  cg2d: iter=    92 ; resid.=  3.57301667868194E-09
(PID.TID 0000.0001)  cg2d: iter=    93 ; resid.=  2.81511206156067E-09
(PID.TID 0000.0001)  cg2d: iter=    94 ; resid.=  2.19339404386391E-09
(PID.TID 0000.0001)  cg2d: iter=    95 ; resid.=  1.85058663517146E-09
(PID.TID 0000.0001)  cg2d: iter=    96 ; resid.=  1.33340864340255E-09
(PID.TID 0000.0001)  cg2d: iter=    97 ; resid.=  9.06919419395765E-10
(PID.TID 0000.0001)  cg2d: iter=    98 ; resid.=  6.48586491234501E-10
(PID.TID 0000.0001)  cg2d: iter=    99 ; resid.=  4.83695398399644E-10
(PID.TID 0000.0001)  cg2d: iter=   100 ; resid.=  4.03930554586163E-10
(PID.TID 0000.0001)  cg2d: iter=   101 ; resid.=  3.09772500223125E-10
(PID.TID 0000.0001)  cg2d: iter=   102 ; resid.=  2.35382120420487E-10
(PID.TID 0000.0001)  cg2d: iter=   103 ; resid.=  1.76777995082588E-10
(PID.TID 0000.0001)  cg2d: iter=   104 ; resid.=  1.36163134288431E-10
(PID.TID 0000.0001)  cg2d: iter=   105 ; resid.=  1.04422733146130E-10
(PID.TID 0000.0001)  cg2d: iter=   106 ; resid.=  8.25660369725510E-11
(PID.TID 0000.0001)  cg2d: iter=   107 ; resid.=  5.97749552450444E-11
(PID.TID 0000.0001)  cg2d: iter=   108 ; resid.=  4.59313356889413E-11
(PID.TID 0000.0001)  cg2d: iter=   109 ; resid.=  3.32807900534961E-11
(PID.TID 0000.0001)  cg2d: iter=   110 ; resid.=  2.44754530242616E-11
(PID.TID 0000.0001)  cg2d: iter=   111 ; resid.=  1.98202808531807E-11
(PID.TID 0000.0001)  cg2d: iter=   112 ; resid.=  1.52067313346584E-11
(PID.TID 0000.0001)  cg2d: iter=   113 ; resid.=  1.15119071929457E-11
(PID.TID 0000.0001)  cg2d: iter=   114 ; resid.=  9.12845222563520E-12
(PID.TID 0000.0001)  cg2d: iter=   115 ; resid.=  7.16057378417317E-12
(PID.TID 0000.0001)  cg2d: iter=   116 ; resid.=  5.41542561687405E-12
(PID.TID 0000.0001)  cg2d: iter=   117 ; resid.=  4.21001244483809E-12
(PID.TID 0000.0001)  cg2d: iter=   118 ; resid.=  3.49812990348050E-12
(PID.TID 0000.0001)  cg2d: iter=   119 ; resid.=  2.73329489359087E-12
(PID.TID 0000.0001)  cg2d: iter=   120 ; resid.=  2.20141665188372E-12
(PID.TID 0000.0001)  cg2d: iter=   121 ; resid.=  1.74782669940395E-12
(PID.TID 0000.0001)  cg2d: iter=   122 ; resid.=  1.55012841928903E-12
(PID.TID 0000.0001)  cg2d: iter=   123 ; resid.=  1.38828261179833E-12
(PID.TID 0000.0001)  cg2d: iter=   124 ; resid.=  1.14366306415292E-12
(PID.TID 0000.0001)  cg2d: iter=   125 ; resid.=  9.68297925239326E-13
(PID.TID 0000.0001)  cg2d: iter=   126 ; resid.=  7.54900974625966E-13
(PID.TID 0000.0001)  cg2d: iter=   127 ; resid.=  6.34440722173360E-13
(PID.TID 0000.0001)  cg2d: iter=   128 ; resid.=  4.84911239332978E-13
(PID.TID 0000.0001)  cg2d: iter=   129 ; resid.=  3.48249202964641E-13
(PID.TID 0000.0001)  cg2d: iter=   130 ; resid.=  2.66787975308658E-13
(PID.TID 0000.0001)  cg2d: iter=   131 ; resid.=  1.95703608989488E-13
(PID.TID 0000.0001)  cg2d: iter=   132 ; resid.=  1.45933040604331E-13
(PID.TID 0000.0001)  cg2d: iter=   133 ; resid.=  1.14100827827413E-13
(PID.TID 0000.0001)  cg2d: iter=   134 ; resid.=  9.14868554583616E-14
DEBUG_STATS_RL:    cg2d_x (SOLVE_FOR_PRESSURE)  min= -1.90347112196966E+01
DEBUG_STATS_RL:    cg2d_x (SOLVE_FOR_PRESSURE)  max=  8.27235952223696E+00
DEBUG_STATS_RL:    cg2d_x (SOLVE_FOR_PRESSURE) mean= -1.64789887466487E+00
DEBUG_STATS_RL:    cg2d_x (SOLVE_FOR_PRESSURE) S.D.=  6.62643053983922E+00
(PID.TID 0000.0001)      cg2d_init_res =   3.19929935256009E-01
(PID.TID 0000.0001)      cg2d_iters(min,last) =      -1     134
(PID.TID 0000.0001)      cg2d_last_res =   9.14868554583616E-14
(PID.TID 0000.0001) // =======================================================
(PID.TID 0000.0001) // Begin MONITOR dynamic field statistics
(PID.TID 0000.0001) // =======================================================
(PID.TID 0000.0001) %MON time_tsnumber                =                    59
(PID.TID 0000.0001) %MON time_secondsf                =   5.0976000000000E+06
(PID.TID 0000.0001) %MON dynstat_eta_max              =   8.4325785140026E-01
(PID.TID 0000.0001) %MON dynstat_eta_min              =  -1.9403375351372E+00
(PID.TID 0000.0001) %MON dynstat_eta_mean             =  -4.3970656013438E-03
(PID.TID 0000.0001) %MON dynstat_eta_sd               =   5.7503435506324E-01
(PID.TID 0000.0001) %MON dynstat_eta_del2             =   2.3880938906883E-03
(PID.TID 0000.0001) %MON dynstat_uvel_max             =   1.3168718044717E-01
(PID.TID 0000.0001) %MON dynstat_uvel_min             =  -1.3545128836676E-01
(PID.TID 0000.0001) %MON dynstat_uvel_mean            =   1.8513602551711E-03
(PID.TID 0000.0001) %MON dynstat_uvel_sd              =   1.6506348407442E-02
(PID.TID 0000.0001) %MON dynstat_uvel_del2            =   1.0162703996738E-04
(PID.TID 0000.0001) %MON dynstat_vvel_max             =   1.4151168235962E-01
(PID.TID 0000.0001) %MON dynstat_vvel_min             =  -9.9568376050976E-02
(PID.TID 0000.0001) %MON dynstat_vvel_mean            =   1.8298528744907E-04
(PID.TID 0000.0001) %MON dynstat_vvel_sd              =   1.0059312326686E-02
(PID.TID 0000.0001) %MON dynstat_vvel_del2            =   8.0613523786048E-05
(PID.TID 0000.0001) %MON dynstat_wvel_max             =   1.1084511054854E-04
(PID.TID 0000.0001) %MON dynstat_wvel_min             =  -8.7642318205605E-05
(PID.TID 0000.0001) %MON dynstat_wvel_mean            =  -2.5932485011830E-22
(PID.TID 0000.0001) %MON dynstat_wvel_sd              =   1.4115943121275E-05
(PID.TID 0000.0001) %MON dynstat_wvel_del2            =   1.3988494294135E-07
(PID.TID 0000.0001) %MON dynstat_theta_max            =   3.0570000317560E+01
(PID.TID 0000.0001) %MON dynstat_theta_min            =  -1.9683802577047E+00
(PID.TID 0000.0001) %MON dynstat_theta_mean           =   3.6431428405312E+00
(PID.TID 0000.0001) %MON dynstat_theta_sd             =   4.4236153265010E+00
(PID.TID 0000.0001) %MON dynstat_theta_del2           =   4.9007742274231E-03
(PID.TID 0000.0001) %MON dynstat_salt_max             =   3.7485983042940E+01
(PID.TID 0000.0001) %MON dynstat_salt_min             =   2.9890525116406E+01
(PID.TID 0000.0001) %MON dynstat_salt_mean            =   3.4737961468022E+01
(PID.TID 0000.0001) %MON dynstat_salt_sd              =   2.9638398702041E-01
(PID.TID 0000.0001) %MON dynstat_salt_del2            =   9.9005277941393E-04
(PID.TID 0000.0001) %MON dynstat_sst_max              =   3.0570000317560E+01
(PID.TID 0000.0001) %MON dynstat_sst_min              =  -1.9683802577047E+00
(PID.TID 0000.0001) %MON dynstat_sst_mean             =   1.9003239419219E+01
(PID.TID 0000.0001) %MON dynstat_sst_sd               =   9.0591576538286E+00
(PID.TID 0000.0001) %MON dynstat_sst_del2             =   2.7912828756394E-02
(PID.TID 0000.0001) %MON dynstat_sss_max              =   3.7462614733870E+01
(PID.TID 0000.0001) %MON dynstat_sss_min              =   2.9890525116406E+01
(PID.TID 0000.0001) %MON dynstat_sss_mean             =   3.4860924836716E+01
(PID.TID 0000.0001) %MON dynstat_sss_sd               =   9.8024273737811E-01
(PID.TID 0000.0001) %MON dynstat_sss_del2             =   7.9835477075934E-03
(PID.TID 0000.0001) %MON forcing_qnet_max             =   3.2207626851400E+02
(PID.TID 0000.0001) %MON forcing_qnet_min             =  -1.6894333852132E+02
(PID.TID 0000.0001) %MON forcing_qnet_mean            =  -1.1061837483797E+01
(PID.TID 0000.0001) %MON forcing_qnet_sd              =   6.2224367755894E+01
(PID.TID 0000.0001) %MON forcing_qnet_del2            =   8.8801072466035E-01
(PID.TID 0000.0001) %MON forcing_qsw_max              =   0.0000000000000E+00
(PID.TID 0000.0001) %MON forcing_qsw_min              =   0.0000000000000E+00
(PID.TID 0000.0001) %MON forcing_qsw_mean             =   0.0000000000000E+00
(PID.TID 0000.0001) %MON forcing_qsw_sd               =   0.0000000000000E+00
(PID.TID 0000.0001) %MON forcing_qsw_del2             =   0.0000000000000E+00
(PID.TID 0000.0001) %MON forcing_empmr_max            =   6.9206679616703E-05
(PID.TID 0000.0001) %MON forcing_empmr_min            =  -7.6478364500569E-05
(PID.TID 0000.0001) %MON forcing_empmr_mean           =   7.7323987854276E-07
(PID.TID 0000.0001) %MON forcing_empmr_sd             =   2.6990094911657E-05
(PID.TID 0000.0001) %MON forcing_empmr_del2           =   3.5359407078538E-07
(PID.TID 0000.0001) %MON forcing_fu_max               =   3.2454732954502E-01
(PID.TID 0000.0001) %MON forcing_fu_min               =  -2.8573253403107E-01
(PID.TID 0000.0001) %MON forcing_fu_mean              =   1.8855336279595E-02
(PID.TID 0000.0001) %MON forcing_fu_sd                =   9.4747636482451E-02
(PID.TID 0000.0001) %MON forcing_fu_del2              =   7.0862449984251E-04
(PID.TID 0000.0001) %MON forcing_fv_max               =   1.5510848760605E-01
(PID.TID 0000.0001) %MON forcing_fv_min               =  -1.8036078512669E-01
(PID.TID 0000.0001) %MON forcing_fv_mean              =  -7.3522934905635E-03
(PID.TID 0000.0001) %MON forcing_fv_sd                =   4.2103479761575E-02
(PID.TID 0000.0001) %MON forcing_fv_del2              =   4.7196348005752E-04
(PID.TID 0000.0001) %MON trAdv_CFL_u_max              =   3.9943454710839E-02
(PID.TID 0000.0001) %MON trAdv_CFL_v_max              =   2.7479773840047E-02
(PID.TID 0000.0001) %MON trAdv_CFL_w_max              =   3.4473825942191E-02
(PID.TID 0000.0001) %MON advcfl_uvel_max              =   4.0796383097775E-02
(PID.TID 0000.0001) %MON advcfl_vvel_max              =   2.7493450307950E-02
(PID.TID 0000.0001) %MON advcfl_wvel_max              =   4.0283265686258E-02
(PID.TID 0000.0001) %MON advcfl_W_hf_max              =   4.8915394047599E-02
(PID.TID 0000.0001) %MON pe_b_mean                    =   4.2314983625972E-04
(PID.TID 0000.0001) %MON ke_max                       =   1.6185985052357E-02
(PID.TID 0000.0001) %MON ke_mean                      =   1.7078322547302E-04
(PID.TID 0000.0001) %MON ke_vol                       =   1.3226782436723E+18
(PID.TID 0000.0001) %MON vort_r_min                   =  -4.3147392150743E-07
(PID.TID 0000.0001) %MON vort_r_max                   =   5.1711177244822E-07
(PID.TID 0000.0001) %MON vort_a_mean                  =  -2.5274807738051E-05
(PID.TID 0000.0001) %MON vort_a_sd                    =   7.3604507885597E-05
(PID.TID 0000.0001) %MON vort_p_mean                  =  -3.1845656228620E-05
(PID.TID 0000.0001) %MON vort_p_sd                    =   1.3162400120428E-04
(PID.TID 0000.0001) %MON surfExpan_theta_mean         =  -9.6855916361073E-09
(PID.TID 0000.0001) %MON surfExpan_salt_mean          =   7.5935487543505E-08
(PID.TID 0000.0001) // =======================================================
(PID.TID 0000.0001) // End MONITOR dynamic field statistics
(PID.TID 0000.0001) // =======================================================
 EXTERNAL_FIELDS_LOAD,        59 : iP,iLd,i0,i1=    2    3    2    3 ; Wght=  0.5333333333  0.4666666667
 EXTERNAL_FIELDS_LOAD: (fu0,1),fu,fv= -1.4435E-02 -2.7199E-02 -2.0391E-02 -9.6754E-03
 EXTERNAL_FIELDS_LOAD: SST,SSS,Q,E-P= -3.6948E-01  3.4495E+01  2.2877E+02  8.7055E-06
DEBUG_STATS_RL:          Uvel (THERMODYNAMICS)  min= -1.35451288366760E-01
DEBUG_STATS_RL:          Uvel (THERMODYNAMICS)  max=  1.31687180447175E-01
DEBUG_STATS_RL:          Uvel (THERMODYNAMICS) mean=  5.50449962940373E-03
DEBUG_STATS_RL:          Uvel (THERMODYNAMICS) S.D.=  2.30449927541380E-02
DEBUG_STATS_RL:          Vvel (THERMODYNAMICS)  min= -9.95683760509759E-02
DEBUG_STATS_RL:          Vvel (THERMODYNAMICS)  max=  1.41511682359615E-01
DEBUG_STATS_RL:          Vvel (THERMODYNAMICS) mean=  1.01815211032051E-03
DEBUG_STATS_RL:          Vvel (THERMODYNAMICS) S.D.=  1.51849871223375E-02
DEBUG_STATS_RL:          Wvel (THERMODYNAMICS)  min= -8.76423182056052E-05
DEBUG_STATS_RL:          Wvel (THERMODYNAMICS)  max=  1.10845110548537E-04
DEBUG_STATS_RL:          Wvel (THERMODYNAMICS) mean= -8.51128923218380E-08
DEBUG_STATS_RL:          Wvel (THERMODYNAMICS) S.D.=  1.22402589761283E-05
DEBUG_STATS_RL:         Theta (THERMODYNAMICS)  min= -1.96674926529942E+00
DEBUG_STATS_RL:         Theta (THERMODYNAMICS)  max=  3.05943514553871E+01
DEBUG_STATS_RL:         Theta (THERMODYNAMICS) mean=  3.23938875233915E+00
DEBUG_STATS_RL:         Theta (THERMODYNAMICS) S.D.=  5.87732704884805E+00
DEBUG_STATS_RL:          Salt (THERMODYNAMICS)  min=  2.00000000000000E-02
DEBUG_STATS_RL:          Salt (THERMODYNAMICS)  max=  3.74862899156614E+01
DEBUG_STATS_RL:          Salt (THERMODYNAMICS) mean=  1.88648238022580E+01
DEBUG_STATS_RL:          Salt (THERMODYNAMICS) S.D.=  1.73003530866717E+01
DEBUG_STATS_RL:         GtNm1 (THERMODYNAMICS)  min= -3.08865762404806E-06
DEBUG_STATS_RL:         GtNm1 (THERMODYNAMICS)  max=  2.11520494539735E-06
DEBUG_STATS_RL:         GtNm1 (THERMODYNAMICS) mean=  3.36647815426879E-09
DEBUG_STATS_RL:         GtNm1 (THERMODYNAMICS) S.D.=  1.76731834075797E-07
DEBUG_STATS_RL:         GsNm1 (THERMODYNAMICS)  min= -4.01537939153110E-07
DEBUG_STATS_RL:         GsNm1 (THERMODYNAMICS)  max=  2.74308502769391E-07
DEBUG_STATS_RL:         GsNm1 (THERMODYNAMICS) mean= -4.42228068986268E-10
DEBUG_STATS_RL:         GsNm1 (THERMODYNAMICS) S.D.=  1.77530422963209E-08
DEBUG_STATS_RL:                EtaN (DYNAMICS)  min= -1.94033753513722E+00
DEBUG_STATS_RL:                EtaN (DYNAMICS)  max=  8.43257851400259E-01
DEBUG_STATS_RL:                EtaN (DYNAMICS) mean= -1.67981536663087E-01
DEBUG_STATS_RL:                EtaN (DYNAMICS) S.D.=  6.75477119249659E-01
DEBUG_STATS_RL:                Uvel (DYNAMICS)  min= -1.35451288366760E-01
DEBUG_STATS_RL:                Uvel (DYNAMICS)  max=  1.31687180447175E-01
DEBUG_STATS_RL:                Uvel (DYNAMICS) mean=  5.50449962940373E-03
DEBUG_STATS_RL:                Uvel (DYNAMICS) S.D.=  2.30449927541380E-02
DEBUG_STATS_RL:                Vvel (DYNAMICS)  min= -9.95683760509759E-02
DEBUG_STATS_RL:                Vvel (DYNAMICS)  max=  1.41511682359615E-01
DEBUG_STATS_RL:                Vvel (DYNAMICS) mean=  1.01815211032051E-03
DEBUG_STATS_RL:                Vvel (DYNAMICS) S.D.=  1.51849871223375E-02
DEBUG_STATS_RL:                Wvel (DYNAMICS)  min= -8.76423182056052E-05
DEBUG_STATS_RL:                Wvel (DYNAMICS)  max=  1.10845110548537E-04
DEBUG_STATS_RL:                Wvel (DYNAMICS) mean= -8.51128923218380E-08
DEBUG_STATS_RL:                Wvel (DYNAMICS) S.D.=  1.22402589761283E-05
DEBUG_STATS_RL:               Theta (DYNAMICS)  min= -1.96674926529942E+00
DEBUG_STATS_RL:               Theta (DYNAMICS)  max=  3.05943514553871E+01
DEBUG_STATS_RL:               Theta (DYNAMICS) mean=  3.23938875233915E+00
DEBUG_STATS_RL:               Theta (DYNAMICS) S.D.=  5.87732704884805E+00
DEBUG_STATS_RL:                Salt (DYNAMICS)  min=  2.00000000000000E-02
DEBUG_STATS_RL:                Salt (DYNAMICS)  max=  3.74862899156614E+01
DEBUG_STATS_RL:                Salt (DYNAMICS) mean=  1.88648238022580E+01
DEBUG_STATS_RL:                Salt (DYNAMICS) S.D.=  1.73003530866717E+01
DEBUG_STATS_RL:                  Gu (DYNAMICS)  min= -1.33093149746211E-01
DEBUG_STATS_RL:                  Gu (DYNAMICS)  max=  1.32989521035035E-01
DEBUG_STATS_RL:                  Gu (DYNAMICS) mean=  5.56046506627703E-03
DEBUG_STATS_RL:                  Gu (DYNAMICS) S.D.=  2.33717109325570E-02
DEBUG_STATS_RL:                  Gv (DYNAMICS)  min= -1.02578911091237E-01
DEBUG_STATS_RL:                  Gv (DYNAMICS)  max=  1.43051037617840E-01
DEBUG_STATS_RL:                  Gv (DYNAMICS) mean=  3.44510608932673E-03
DEBUG_STATS_RL:                  Gv (DYNAMICS) S.D.=  1.64672043343095E-02
DEBUG_STATS_RL:               GuNm1 (DYNAMICS)  min= -9.81002606508402E-06
DEBUG_STATS_RL:               GuNm1 (DYNAMICS)  max=  9.40682702063743E-06
DEBUG_STATS_RL:               GuNm1 (DYNAMICS) mean=  8.21752829970781E-09
DEBUG_STATS_RL:               GuNm1 (DYNAMICS) S.D.=  1.20222588045681E-06
DEBUG_STATS_RL:               GvNm1 (DYNAMICS)  min= -9.83331063253463E-06
DEBUG_STATS_RL:               GvNm1 (DYNAMICS)  max=  1.59667345762608E-05
DEBUG_STATS_RL:               GvNm1 (DYNAMICS) mean=  7.44095554524536E-07
DEBUG_STATS_RL:               GvNm1 (DYNAMICS) S.D.=  2.64990775855325E-06
DEBUG_STATS_RL:               GtNm1 (DYNAMICS)  min= -3.08865762404806E-06
DEBUG_STATS_RL:               GtNm1 (DYNAMICS)  max=  2.11520494539735E-06
DEBUG_STATS_RL:               GtNm1 (DYNAMICS) mean=  3.36647815426879E-09
DEBUG_STATS_RL:               GtNm1 (DYNAMICS) S.D.=  1.76731834075797E-07
DEBUG_STATS_RL:               GsNm1 (DYNAMICS)  min= -4.01537939153110E-07
DEBUG_STATS_RL:               GsNm1 (DYNAMICS)  max=  2.74308502769391E-07
DEBUG_STATS_RL:               GsNm1 (DYNAMICS) mean= -4.42228068986268E-10
DEBUG_STATS_RL:               GsNm1 (DYNAMICS) S.D.=  1.77530422963209E-08
DEBUG_STATS_RL:    cg2d_b (SOLVE_FOR_PRESSURE)  min= -1.96669830546495E+04
DEBUG_STATS_RL:    cg2d_b (SOLVE_FOR_PRESSURE)  max=  2.58240910544347E+04
DEBUG_STATS_RL:    cg2d_b (SOLVE_FOR_PRESSURE) mean=  4.27508547204020E+00
DEBUG_STATS_RL:    cg2d_b (SOLVE_FOR_PRESSURE) S.D.=  3.93089714965757E+03
 cg2d: Sum(rhs),rhsMax =   3.83239930765087E-01  1.69619544254064E+00
(PID.TID 0000.0001)  cg2d: iter=     1 ; resid.=  1.55217131888409E-01
(PID.TID 0000.0001)  cg2d: iter=     2 ; resid.=  1.22557667306492E-01
(PID.TID 0000.0001)  cg2d: iter=     3 ; resid.=  1.03500977140125E-01
(PID.TID 0000.0001)  cg2d: iter=     4 ; resid.=  9.03656748339690E-02
(PID.TID 0000.0001)  cg2d: iter=     5 ; resid.=  6.84299204726963E-02
(PID.TID 0000.0001)  cg2d: iter=     6 ; resid.=  5.06556547913860E-02
(PID.TID 0000.0001)  cg2d: iter=     7 ; resid.=  4.35910761511375E-02
(PID.TID 0000.0001)  cg2d: iter=     8 ; resid.=  3.88264007182297E-02
(PID.TID 0000.0001)  cg2d: iter=     9 ; resid.=  3.27127280062607E-02
(PID.TID 0000.0001)  cg2d: iter=    10 ; resid.=  3.02103738396333E-02
(PID.TID 0000.0001)  cg2d: iter=    11 ; resid.=  2.82746184359795E-02
(PID.TID 0000.0001)  cg2d: iter=    12 ; resid.=  2.41094884731084E-02
(PID.TID 0000.0001)  cg2d: iter=    13 ; resid.=  1.98048406382144E-02
(PID.TID 0000.0001)  cg2d: iter=    14 ; resid.=  1.65548778727335E-02
(PID.TID 0000.0001)  cg2d: iter=    15 ; resid.=  1.44104084044763E-02
(PID.TID 0000.0001)  cg2d: iter=    16 ; resid.=  1.22812796743001E-02
(PID.TID 0000.0001)  cg2d: iter=    17 ; resid.=  1.04708803379754E-02
(PID.TID 0000.0001)  cg2d: iter=    18 ; resid.=  8.79533552528283E-03
(PID.TID 0000.0001)  cg2d: iter=    19 ; resid.=  7.04820890508773E-03
(PID.TID 0000.0001)  cg2d: iter=    20 ; resid.=  5.91445807417344E-03
(PID.TID 0000.0001)  cg2d: iter=    21 ; resid.=  5.05070756926189E-03
(PID.TID 0000.0001)  cg2d: iter=    22 ; resid.=  4.33515797091820E-03
(PID.TID 0000.0001)  cg2d: iter=    23 ; resid.=  3.44095164076359E-03
(PID.TID 0000.0001)  cg2d: iter=    24 ; resid.=  2.90659383705216E-03
(PID.TID 0000.0001)  cg2d: iter=    25 ; resid.=  2.29515783342567E-03
(PID.TID 0000.0001)  cg2d: iter=    26 ; resid.=  1.84868048490481E-03
(PID.TID 0000.0001)  cg2d: iter=    27 ; resid.=  1.61927326901872E-03
(PID.TID 0000.0001)  cg2d: iter=    28 ; resid.=  1.40586671356047E-03
(PID.TID 0000.0001)  cg2d: iter=    29 ; resid.=  1.23325861739024E-03
(PID.TID 0000.0001)  cg2d: iter=    30 ; resid.=  9.95359078694621E-04
(PID.TID 0000.0001)  cg2d: iter=    31 ; resid.=  8.36803478740389E-04
(PID.TID 0000.0001)  cg2d: iter=    32 ; resid.=  6.55323791156540E-04
(PID.TID 0000.0001)  cg2d: iter=    33 ; resid.=  5.72716524941342E-04
(PID.TID 0000.0001)  cg2d: iter=    34 ; resid.=  5.01616043859732E-04
(PID.TID 0000.0001)  cg2d: iter=    35 ; resid.=  4.05165067772055E-04
(PID.TID 0000.0001)  cg2d: iter=    36 ; resid.=  3.25326862671862E-04
(PID.TID 0000.0001)  cg2d: iter=    37 ; resid.=  2.47456367773168E-04
(PID.TID 0000.0001)  cg2d: iter=    38 ; resid.=  1.90825573768186E-04
(PID.TID 0000.0001)  cg2d: iter=    39 ; resid.=  1.56627681258067E-04
(PID.TID 0000.0001)  cg2d: iter=    40 ; resid.=  1.32427678097481E-04
(PID.TID 0000.0001)  cg2d: iter=    41 ; resid.=  1.18310584575134E-04
(PID.TID 0000.0001)  cg2d: iter=    42 ; resid.=  1.09326899549285E-04
(PID.TID 0000.0001)  cg2d: iter=    43 ; resid.=  9.42243679196243E-05
(PID.TID 0000.0001)  cg2d: iter=    44 ; resid.=  7.47196708348659E-05
(PID.TID 0000.0001)  cg2d: iter=    45 ; resid.=  5.81466716844393E-05
(PID.TID 0000.0001)  cg2d: iter=    46 ; resid.=  4.77148788700822E-05
(PID.TID 0000.0001)  cg2d: iter=    47 ; resid.=  3.96460120627650E-05
(PID.TID 0000.0001)  cg2d: iter=    48 ; resid.=  3.36340445126793E-05
(PID.TID 0000.0001)  cg2d: iter=    49 ; resid.=  2.61819839661667E-05
(PID.TID 0000.0001)  cg2d: iter=    50 ; resid.=  1.99373737645300E-05
(PID.TID 0000.0001)  cg2d: iter=    51 ; resid.=  1.52683588367365E-05
(PID.TID 0000.0001)  cg2d: iter=    52 ; resid.=  1.15681240452561E-05
(PID.TID 0000.0001)  cg2d: iter=    53 ; resid.=  9.85074431864946E-06
(PID.TID 0000.0001)  cg2d: iter=    54 ; resid.=  8.24312626612318E-06
(PID.TID 0000.0001)  cg2d: iter=    55 ; resid.=  7.22614271158225E-06
(PID.TID 0000.0001)  cg2d: iter=    56 ; resid.=  6.24762252637545E-06
(PID.TID 0000.0001)  cg2d: iter=    57 ; resid.=  5.19809264416756E-06
(PID.TID 0000.0001)  cg2d: iter=    58 ; resid.=  4.12996485252452E-06
(PID.TID 0000.0001)  cg2d: iter=    59 ; resid.=  3.28713276040524E-06
(PID.TID 0000.0001)  cg2d: iter=    60 ; resid.=  2.54974992958753E-06
(PID.TID 0000.0001)  cg2d: iter=    61 ; resid.=  2.02637543671293E-06
(PID.TID 0000.0001)  cg2d: iter=    62 ; resid.=  1.63937084784447E-06
(PID.TID 0000.0001)  cg2d: iter=    63 ; resid.=  1.33009908743370E-06
(PID.TID 0000.0001)  cg2d: iter=    64 ; resid.=  1.03841223265893E-06
(PID.TID 0000.0001)  cg2d: iter=    65 ; resid.=  8.39856768005593E-07
(PID.TID 0000.0001)  cg2d: iter=    66 ; resid.=  7.08869152380460E-07
(PID.TID 0000.0001)  cg2d: iter=    67 ; resid.=  6.54836254206213E-07
(PID.TID 0000.0001)  cg2d: iter=    68 ; resid.=  5.45877408936047E-07
(PID.TID 0000.0001)  cg2d: iter=    69 ; resid.=  4.42283374984955E-07
(PID.TID 0000.0001)  cg2d: iter=    70 ; resid.=  3.41178031323794E-07
(PID.TID 0000.0001)  cg2d: iter=    71 ; resid.=  2.95688567454666E-07
(PID.TID 0000.0001)  cg2d: iter=    72 ; resid.=  2.55173799812602E-07
(PID.TID 0000.0001)  cg2d: iter=    73 ; resid.=  2.16289310069000E-07
(PID.TID 0000.0001)  cg2d: iter=    74 ; resid.=  1.70064263787186E-07
(PID.TID 0000.0001)  cg2d: iter=    75 ; resid.=  1.28873213531270E-07
(PID.TID 0000.0001)  cg2d: iter=    76 ; resid.=  1.03536525148492E-07
(PID.TID 0000.0001)  cg2d: iter=    77 ; resid.=  9.00960671030951E-08
(PID.TID 0000.0001)  cg2d: iter=    78 ; resid.=  8.05450612385071E-08
(PID.TID 0000.0001)  cg2d: iter=    79 ; resid.=  7.73777410249949E-08
(PID.TID 0000.0001)  cg2d: iter=    80 ; resid.=  7.03102467892127E-08
(PID.TID 0000.0001)  cg2d: iter=    81 ; resid.=  5.78993094025746E-08
(PID.TID 0000.0001)  cg2d: iter=    82 ; resid.=  4.62583830281156E-08
(PID.TID 0000.0001)  cg2d: iter=    83 ; resid.=  3.41323955638007E-08
(PID.TID 0000.0001)  cg2d: iter=    84 ; resid.=  2.53001046863799E-08
(PID.TID 0000.0001)  cg2d: iter=    85 ; resid.=  1.77901455594751E-08
(PID.TID 0000.0001)  cg2d: iter=    86 ; resid.=  1.37342587901062E-08
(PID.TID 0000.0001)  cg2d: iter=    87 ; resid.=  1.05766581237939E-08
(PID.TID 0000.0001)  cg2d: iter=    88 ; resid.=  7.85613134539406E-09
(PID.TID 0000.0001)  cg2d: iter=    89 ; resid.=  6.18535400175187E-09
(PID.TID 0000.0001)  cg2d: iter=    90 ; resid.=  5.57031909958242E-09
(PID.TID 0000.0001)  cg2d: iter=    91 ; resid.=  4.57156542772225E-09
(PID.TID 0000.0001)  cg2d: iter=    92 ; resid.=  3.58481833309949E-09
(PID.TID 0000.0001)  cg2d: iter=    93 ; resid.=  2.78678880411247E-09
(PID.TID 0000.0001)  cg2d: iter=    94 ; resid.=  2.14892534902514E-09
(PID.TID 0000.0001)  cg2d: iter=    95 ; resid.=  1.79617842024689E-09
(PID.TID 0000.0001)  cg2d: iter=    96 ; resid.=  1.29996955900485E-09
(PID.TID 0000.0001)  cg2d: iter=    97 ; resid.=  8.88072868593285E-10
(PID.TID 0000.0001)  cg2d: iter=    98 ; resid.=  6.13099574496634E-10
(PID.TID 0000.0001)  cg2d: iter=    99 ; resid.=  4.53642161547491E-10
(PID.TID 0000.0001)  cg2d: iter=   100 ; resid.=  3.74019701675430E-10
(PID.TID 0000.0001)  cg2d: iter=   101 ; resid.=  2.95972767229094E-10
(PID.TID 0000.0001)  cg2d: iter=   102 ; resid.=  2.37332210388815E-10
(PID.TID 0000.0001)  cg2d: iter=   103 ; resid.=  1.97903256408095E-10
(PID.TID 0000.0001)  cg2d: iter=   104 ; resid.=  1.79388318599471E-10
(PID.TID 0000.0001)  cg2d: iter=   105 ; resid.=  1.62884456290698E-10
(PID.TID 0000.0001)  cg2d: iter=   106 ; resid.=  1.45435896945031E-10
(PID.TID 0000.0001)  cg2d: iter=   107 ; resid.=  1.13560136934410E-10
(PID.TID 0000.0001)  cg2d: iter=   108 ; resid.=  9.29363163545932E-11
(PID.TID 0000.0001)  cg2d: iter=   109 ; resid.=  6.94734981422543E-11
(PID.TID 0000.0001)  cg2d: iter=   110 ; resid.=  5.14576420488762E-11
(PID.TID 0000.0001)  cg2d: iter=   111 ; resid.=  4.07584620111268E-11
(PID.TID 0000.0001)  cg2d: iter=   112 ; resid.=  3.01170464267223E-11
(PID.TID 0000.0001)  cg2d: iter=   113 ; resid.=  2.29150372158857E-11
(PID.TID 0000.0001)  cg2d: iter=   114 ; resid.=  1.85226094454853E-11
(PID.TID 0000.0001)  cg2d: iter=   115 ; resid.=  1.46249466093950E-11
(PID.TID 0000.0001)  cg2d: iter=   116 ; resid.=  1.14289784845481E-11
(PID.TID 0000.0001)  cg2d: iter=   117 ; resid.=  9.28140841939888E-12
(PID.TID 0000.0001)  cg2d: iter=   118 ; resid.=  7.55926464968607E-12
(PID.TID 0000.0001)  cg2d: iter=   119 ; resid.=  5.75149965786023E-12
(PID.TID 0000.0001)  cg2d: iter=   120 ; resid.=  4.38018428142140E-12
(PID.TID 0000.0001)  cg2d: iter=   121 ; resid.=  3.10146198052795E-12
(PID.TID 0000.0001)  cg2d: iter=   122 ; resid.=  2.41071650017645E-12
(PID.TID 0000.0001)  cg2d: iter=   123 ; resid.=  1.87281094710043E-12
(PID.TID 0000.0001)  cg2d: iter=   124 ; resid.=  1.36634109471390E-12
(PID.TID 0000.0001)  cg2d: iter=   125 ; resid.=  1.02967135438846E-12
(PID.TID 0000.0001)  cg2d: iter=   126 ; resid.=  7.11173783667346E-13
(PID.TID 0000.0001)  cg2d: iter=   127 ; resid.=  5.26436578697483E-13
(PID.TID 0000.0001)  cg2d: iter=   128 ; resid.=  3.79276475418744E-13
(PID.TID 0000.0001)  cg2d: iter=   129 ; resid.=  2.57469800235174E-13
(PID.TID 0000.0001)  cg2d: iter=   130 ; resid.=  1.97764374874060E-13
(PID.TID 0000.0001)  cg2d: iter=   131 ; resid.=  1.48880197402192E-13
(PID.TID 0000.0001)  cg2d: iter=   132 ; resid.=  1.13213964942644E-13
(PID.TID 0000.0001)  cg2d: iter=   133 ; resid.=  8.60408741195156E-14
DEBUG_STATS_RL:    cg2d_x (SOLVE_FOR_PRESSURE)  min= -1.92845046891792E+01
DEBUG_STATS_RL:    cg2d_x (SOLVE_FOR_PRESSURE)  max=  8.38305380607858E+00
DEBUG_STATS_RL:    cg2d_x (SOLVE_FOR_PRESSURE) mean= -1.64631473138622E+00
DEBUG_STATS_RL:    cg2d_x (SOLVE_FOR_PRESSURE) S.D.=  6.69795049923508E+00
(PID.TID 0000.0001)      cg2d_init_res =   3.14104158569155E-01
(PID.TID 0000.0001)      cg2d_iters(min,last) =      -1     133
(PID.TID 0000.0001)      cg2d_last_res =   8.60408741195156E-14
(PID.TID 0000.0001) // =======================================================
(PID.TID 0000.0001) // Begin MONITOR dynamic field statistics
(PID.TID 0000.0001) // =======================================================
(PID.TID 0000.0001) %MON time_tsnumber                =                    60
(PID.TID 0000.0001) %MON time_secondsf                =   5.1840000000000E+06
(PID.TID 0000.0001) %MON dynstat_eta_max              =   8.5454167238318E-01
(PID.TID 0000.0001) %MON dynstat_eta_min              =  -1.9658006818735E+00
(PID.TID 0000.0001) %MON dynstat_eta_mean             =  -4.4605215969747E-03
(PID.TID 0000.0001) %MON dynstat_eta_sd               =   5.8088662892881E-01
(PID.TID 0000.0001) %MON dynstat_eta_del2             =   2.3908045747541E-03
(PID.TID 0000.0001) %MON dynstat_uvel_max             =   1.3178873391637E-01
(PID.TID 0000.0001) %MON dynstat_uvel_min             =  -1.3318263053804E-01
(PID.TID 0000.0001) %MON dynstat_uvel_mean            =   1.9864385297702E-03
(PID.TID 0000.0001) %MON dynstat_uvel_sd              =   1.6500561965628E-02
(PID.TID 0000.0001) %MON dynstat_uvel_del2            =   1.0201015581067E-04
(PID.TID 0000.0001) %MON dynstat_vvel_max             =   1.4022814244699E-01
(PID.TID 0000.0001) %MON dynstat_vvel_min             =  -9.9488814763584E-02
(PID.TID 0000.0001) %MON dynstat_vvel_mean            =   1.7936682753140E-04
(PID.TID 0000.0001) %MON dynstat_vvel_sd              =   1.0033510218276E-02
(PID.TID 0000.0001) %MON dynstat_vvel_del2            =   8.0599289380006E-05
(PID.TID 0000.0001) %MON dynstat_wvel_max             =   9.3920084459461E-05
(PID.TID 0000.0001) %MON dynstat_wvel_min             =  -8.7928714037318E-05
(PID.TID 0000.0001) %MON dynstat_wvel_mean            =  -2.8581699604848E-22
(PID.TID 0000.0001) %MON dynstat_wvel_sd              =   1.3968261124692E-05
(PID.TID 0000.0001) %MON dynstat_wvel_del2            =   1.3859331038541E-07
(PID.TID 0000.0001) %MON dynstat_theta_max            =   3.0594351455387E+01
(PID.TID 0000.0001) %MON dynstat_theta_min            =  -1.9667492652994E+00
(PID.TID 0000.0001) %MON dynstat_theta_mean           =   3.6432025109243E+00
(PID.TID 0000.0001) %MON dynstat_theta_sd             =   4.4238308874167E+00
(PID.TID 0000.0001) %MON dynstat_theta_del2           =   4.9092034012183E-03
(PID.TID 0000.0001) %MON dynstat_salt_max             =   3.7486289915661E+01
(PID.TID 0000.0001) %MON dynstat_salt_min             =   2.9894220293300E+01
(PID.TID 0000.0001) %MON dynstat_salt_mean            =   3.4737961187950E+01
(PID.TID 0000.0001) %MON dynstat_salt_sd              =   2.9638657882782E-01
(PID.TID 0000.0001) %MON dynstat_salt_del2            =   9.9138868487252E-04
(PID.TID 0000.0001) %MON dynstat_sst_max              =   3.0594351455387E+01
(PID.TID 0000.0001) %MON dynstat_sst_min              =  -1.9667492652994E+00
(PID.TID 0000.0001) %MON dynstat_sst_mean             =   1.9008920856277E+01
(PID.TID 0000.0001) %MON dynstat_sst_sd               =   9.0633911187335E+00
(PID.TID 0000.0001) %MON dynstat_sst_del2             =   2.7999556819222E-02
(PID.TID 0000.0001) %MON dynstat_sss_max              =   3.7463508252971E+01
(PID.TID 0000.0001) %MON dynstat_sss_min              =   2.9894220293300E+01
(PID.TID 0000.0001) %MON dynstat_sss_mean             =   3.4860605425973E+01
(PID.TID 0000.0001) %MON dynstat_sss_sd               =   9.8059124495907E-01
(PID.TID 0000.0001) %MON dynstat_sss_del2             =   8.0057457390643E-03
(PID.TID 0000.0001) %MON forcing_qnet_max             =   3.1927811686198E+02
(PID.TID 0000.0001) %MON forcing_qnet_min             =  -1.6864405924479E+02
(PID.TID 0000.0001) %MON forcing_qnet_mean            =  -1.0838497984171E+01
(PID.TID 0000.0001) %MON forcing_qnet_sd              =   6.1023027857854E+01
(PID.TID 0000.0001) %MON forcing_qnet_del2            =   8.8444669970173E-01
(PID.TID 0000.0001) %MON forcing_qsw_max              =   0.0000000000000E+00
(PID.TID 0000.0001) %MON forcing_qsw_min              =   0.0000000000000E+00
(PID.TID 0000.0001) %MON forcing_qsw_mean             =   0.0000000000000E+00
(PID.TID 0000.0001) %MON forcing_qsw_sd               =   0.0000000000000E+00
(PID.TID 0000.0001) %MON forcing_qsw_del2             =   0.0000000000000E+00
(PID.TID 0000.0001) %MON forcing_empmr_max            =   6.9200923273153E-05
(PID.TID 0000.0001) %MON forcing_empmr_min            =  -7.6877544093653E-05
(PID.TID 0000.0001) %MON forcing_empmr_mean           =   7.6014994766839E-07
(PID.TID 0000.0001) %MON forcing_empmr_sd             =   2.6929596826470E-05
(PID.TID 0000.0001) %MON forcing_empmr_del2           =   3.5385255820596E-07
(PID.TID 0000.0001) %MON forcing_fu_max               =   3.2648874521255E-01
(PID.TID 0000.0001) %MON forcing_fu_min               =  -2.9111716349920E-01
(PID.TID 0000.0001) %MON forcing_fu_mean              =   1.8949535869053E-02
(PID.TID 0000.0001) %MON forcing_fu_sd                =   9.5028365431322E-02
(PID.TID 0000.0001) %MON forcing_fu_del2              =   7.1121052638075E-04
(PID.TID 0000.0001) %MON forcing_fv_max               =   1.5403114557266E-01
(PID.TID 0000.0001) %MON forcing_fv_min               =  -1.7887474894524E-01
(PID.TID 0000.0001) %MON forcing_fv_mean              =  -7.3627218405330E-03
(PID.TID 0000.0001) %MON forcing_fv_sd                =   4.1994212761373E-02
(PID.TID 0000.0001) %MON forcing_fv_del2              =   4.6991047524395E-04
(PID.TID 0000.0001) %MON trAdv_CFL_u_max              =   4.0804669134963E-02
(PID.TID 0000.0001) %MON trAdv_CFL_v_max              =   2.7313061318207E-02
(PID.TID 0000.0001) %MON trAdv_CFL_w_max              =   3.4240775833319E-02
(PID.TID 0000.0001) %MON advcfl_uvel_max              =   4.1290633932529E-02
(PID.TID 0000.0001) %MON advcfl_vvel_max              =   2.7244079088431E-02
(PID.TID 0000.0001) %MON advcfl_wvel_max              =   3.9239231459363E-02
(PID.TID 0000.0001) %MON advcfl_W_hf_max              =   4.7647638200656E-02
(PID.TID 0000.0001) %MON pe_b_mean                    =   4.3180688917711E-04
(PID.TID 0000.0001) %MON ke_max                       =   1.5997281694323E-02
(PID.TID 0000.0001) %MON ke_mean                      =   1.7069863527768E-04
(PID.TID 0000.0001) %MON ke_vol                       =   1.3226782436723E+18
(PID.TID 0000.0001) %MON vort_r_min                   =  -4.1708509712881E-07
(PID.TID 0000.0001) %MON vort_r_max                   =   4.9755246986745E-07
(PID.TID 0000.0001) %MON vort_a_mean                  =  -2.5274807723079E-05
(PID.TID 0000.0001) %MON vort_a_sd                    =   7.3604535313604E-05
(PID.TID 0000.0001) %MON vort_p_mean                  =  -3.1845656209756E-05
(PID.TID 0000.0001) %MON vort_p_sd                    =   1.3162401783905E-04
(PID.TID 0000.0001) %MON surfExpan_theta_mean         =   8.8526249476024E-08
(PID.TID 0000.0001) %MON surfExpan_salt_mean          =   3.1251497236606E-08
(PID.TID 0000.0001) // =======================================================
(PID.TID 0000.0001) // End MONITOR dynamic field statistics
(PID.TID 0000.0001) // =======================================================
(PID.TID 0000.0001) // =======================================================
(PID.TID 0000.0001) // Field Current uVel   at iteration         60
(PID.TID 0000.0001) // CMIN =         -1.331826305380370E-01
(PID.TID 0000.0001) // CMAX =          1.272716356948987E-01
(PID.TID 0000.0001) // CINT =          9.646454304923543E-03
(PID.TID 0000.0001) // SYMBOLS (CMIN->CMAX): -abcdefghijklmnopqrstuvwxyz+
(PID.TID 0000.0001) //                  0.0: .
(PID.TID 0000.0001) // RANGE I (Lo:Hi:Step):(     1:    90:     1)
(PID.TID 0000.0001) // RANGE J (Lo:Hi:Step):(    40:     1:    -1)
(PID.TID 0000.0001) // RANGE K (Lo:Hi:Step):(   1:   1:   1)
(PID.TID 0000.0001) // =======================================================
(PID.TID 0000.0001) K =   1
(PID.TID 0000.0001)                I=10      I=20      I=30      I=40      I=50      I=60      I=70      I=80      I=90
(PID.TID 0000.0001) |--J--|123456789|123456789|123456789|123456789|123456789|123456789|123456789|123456789|123456789|
(PID.TID 0000.0001)     40 nnnnn..nmmmmnnnnnnn...................................................................mnnn
(PID.TID 0000.0001)     39 mnnmnnoooooopo....n......................................................nnn.........lkjkm
(PID.TID 0000.0001)     38 nooonnnnnnnon............................................................nnnn.......lkkklm
(PID.TID 0000.0001)     37 opp...................................................................n....lm....lllm..noo
(PID.TID 0000.0001)     36 rq..........................................llm.....................nmmlllkkkl..kjlmnopqqr
(PID.TID 0000.0001)     35 qo..................................mmm...mmlmnn....llmn............nn.....nmlmkjmooppqrqp
(PID.TID 0000.0001)     34 ....................................mnm..lnonopp..nllmmnn...................ppoooppqqqqp..
(PID.TID 0000.0001)     33 .....................................nkikmopppqqpopqqqponoo..................rsrrrrrqqppo.
(PID.TID 0000.0001)     32 .....................................nmmmnoqrrrrrrrsssrqqpo.................svvssrrqponon.
(PID.TID 0000.0001)     31 .....................................qppqqrrssssttstuuttsqp...............pw+ywutsrqonmn..
(PID.TID 0000.0001)     30 ....................................tuuuuvvvvuuuuuuvvvvtsqo.............rvwwwwvutsrponmm..
(PID.TID 0000.0001)     29 ..................................rwwvwxxxxxxwvuttttuutrqpoo............tuvusrpoooonlllm..
(PID.TID 0000.0001)     28 ................................oqtttrstuttttsrqpppqqqponnnoo..........qrqponnmmmllkkkmn..
(PID.TID 0000.0001)     27 ...............n...............nqppoonnpppppooonnnnooponnnnnnn....mmo..pponnoonnmmmlll....
(PID.TID 0000.0001)     26 ...............oo............lmpsrqonmnponooooonnnoppppppppoooon..nnnnoqqrppqqqqppppon....
(PID.TID 0000.0001)     25 ...............ppo....on....oppputrpnnnoonnnnooooopppppqqppooooon....nppssrrqqrrqpppon....
(PID.TID 0000.0001)     24 .............pommno..pom....op..nmljijijjjjijkkklmnmmllkkkkkllllmlmn..mjllmmllnnnlkkln....
(PID.TID 0000.0001)     23 .............hfffhk..jhi....kn...eedbb-bcddbcdffhiiiiijihiihhhhggghjm.....jidfghhgghjo....
(PID.TID 0000.0001)     22 m............a---bddccdg....m..habfdba-bcccbcdeghiiikknonmlkjjiiihihjj.......jieddgikoprpm
(PID.TID 0000.0001)     21 nnn.........geecbaddehllo......jhnokhigghijiiijkkkjillmnonlllmnnnmmkik.........jfdilmoqooo
(PID.TID 0000.0001)     20 nno........kkmnlkjkjlorpn.........pponimmoppooonmnlilkkklkijkmnmnmljij..........jeiklmnllm
(PID.TID 0000.0001)     19 mpp........iilmlnoollnomkno....mp......qnqtsrrqpoonllkiiihffffffghhgfh............jhhjjiij
(PID.TID 0000.0001)     18 ino........gdeedfijjjijjikmnnnmln....prqmpsrprqonoonmkjiihgedccbdfeedfk...........kihhhhgg
(PID.TID 0000.0001)     17 gjl..........hgfgghkmmkkkmmmmnl......qonmoponqqomllmmmljiiihfffeegggfeg..........omjhgffff
(PID.TID 0000.0001)     16 ijk.......n..mjjjhjknqmklnoonn........mmmoonnorpnlllmmmmkkkkkjjijkjkkjkk.........onkjihiii
(PID.TID 0000.0001)     15 llkk.....on..pnmmlllnonmmoqpp..........nnonoppqrqnmnnonmmllmllmnmmmmnmmmm.......nnmmlllkll
(PID.TID 0000.0001)     14 llji.....omppqqpooqpponmmnono..........oonopprrsrppqrqppppponmoponnnonmmm......qqpooonmllm
(PID.TID 0000.0001)     13 nmji.....onnopqpoprrqonnnnmll..........pqqqrqrrrrrrsssrrstssrrqqppppponmn.....opqqpqqqpooo
(PID.TID 0000.0001)     12 rpmljjjoqrrrqqqpppqqqppqqonmmnoooo.....prsqnopopqrrqqqqqrsttttsrppqqqonm......nqrsssttttsr
(PID.TID 0000.0001)     11 srqqpnortvwwwvutssstsrrrrqpooooponn...oopqp..nnoooooooooopqqqrqqpopqqpnm.....npsttuuuuutss
(PID.TID 0000.0001)     10 srrrrsuvwxz+zyxwvvwvtsstsrqqpppponmm..ooonk..onmmlmmnnnmmlmnnoopoooooonn...mmoprstuuuutttt
(PID.TID 0000.0001)      9 tsssttuuwyzywwvvuuuutssttssrrrqqppponnoonn..knnnnnnnnnnnnmmnnnoooonnnonk..lnpqrrsssstttuuu
(PID.TID 0000.0001)      8 tuuvvusstuvuutsstustuuttttuutsstttuvvuusrrwutrqqrrrrrqqqqqqqqppqppppppom..strrstsrrrrsttut
(PID.TID 0000.0001)      7 tuuutsrrrsssssrrttrsutsssttttttuuvxyyxwwwwxxvuuuuvvwwwvuutsssssssssssssttuwvuuuutsrrqqrrst
(PID.TID 0000.0001)      6 rrqqqqqrrrrrqqqqrssrrrqrrrrsstuuuuvvuuvvwxxxwvvwwwwwxxxwvutttuuuuuuvvuvvwxxyyyxvusrqqqqqqr
(PID.TID 0000.0001)      5 nnnnooppppoooonopqqqpppoooppqrrrqqrrrrstuvwwwwvwwwvvvutttttttuuuuuuuuvvvvuuuvuttrqqppppoon
(PID.TID 0000.0001)      4 lllllmmnnnnnnnnnnooonnnmmmlmmmmmmmnnnoopqqrrssssssrrqppppqrsssssssrrrrrrqo...noooonnnnnmml
(PID.TID 0000.0001)      3 mlllllllmm.............................mmnnnooooonnnmmmnnoppppppppoonnnnn...noonmmmmnnonmm
(PID.TID 0000.0001)      2 ...........................................mmmmmmmmllllmmmnnnnnn...mmm......nmllmmmmmnn...
(PID.TID 0000.0001)      1 ..........................................................................................
(PID.TID 0000.0001) // =======================================================
(PID.TID 0000.0001) // END OF FIELD                                          =
(PID.TID 0000.0001) // =======================================================
(PID.TID 0000.0001) 
(PID.TID 0000.0001) // =======================================================
(PID.TID 0000.0001) // Field Current vVel   at iteration         60
(PID.TID 0000.0001) // CMIN =         -9.948881476358394E-02
(PID.TID 0000.0001) // CMAX =          1.402281424469860E-01
(PID.TID 0000.0001) // CINT =          8.878405822613702E-03
(PID.TID 0000.0001) // SYMBOLS (CMIN->CMAX): -abcdefghijklmnopqrstuvwxyz+
(PID.TID 0000.0001) //                  0.0: .
(PID.TID 0000.0001) // RANGE I (Lo:Hi:Step):(     1:    90:     1)
(PID.TID 0000.0001) // RANGE J (Lo:Hi:Step):(    40:     1:    -1)
(PID.TID 0000.0001) // RANGE K (Lo:Hi:Step):(   1:   1:   1)
(PID.TID 0000.0001) // =======================================================
(PID.TID 0000.0001) K =   1
(PID.TID 0000.0001)                I=10      I=20      I=30      I=40      I=50      I=60      I=70      I=80      I=90
(PID.TID 0000.0001) |--J--|123456789|123456789|123456789|123456789|123456789|123456789|123456789|123456789|123456789|
(PID.TID 0000.0001)     40 jkmmk.kjjkkllm...kk..................................................................llllk
(PID.TID 0000.0001)     39 kllmlkjjkkkll...........................................................kkll........hkkklk
(PID.TID 0000.0001)     38 lmm.......................................................................klk......ki.llkk
(PID.TID 0000.0001)     37 mo...................................................................kl...klj...hlnmk.llkk
(PID.TID 0000.0001)     36 mm.........................................mmmm....................jkj....hhjk.ehlonmkjkkj
(PID.TID 0000.0001)     35 ...................................kkll..lmnnnnl...hjmnm...................eijiikmmmllml..
(PID.TID 0000.0001)     34 ....................................jkm.kmmmmmmk.ijkklmlk...................ggijjllmlklj..
(PID.TID 0000.0001)     33 ....................................jhhjlllkllkjjjiiiijiiii.................kfhjjjijihgij.
(PID.TID 0000.0001)     32 ....................................lhgijiihhihgggfffgggggi................tnffhggghgggi..
(PID.TID 0000.0001)     31 ....................................lgeeeeeeefeeeedeefffffh..............jhhedeeffggghhi..
(PID.TID 0000.0001)     30 ...................................miecbcccbdeeeeeefghhhgfg............plhggffffggghihij..
(PID.TID 0000.0001)     29 .................................nlkifddfgffghhhhhijkkkjihgh...........oljijiiiiihhiiijk..
(PID.TID 0000.0001)     28 ...............................monnmlkijkllkllkklllmmmlkkjiii.........knmmmmmkkkkjjjjk....
(PID.TID 0000.0001)     27 ..............kl..............lmmmmnnmlmnnmmmlklllllllllkkkkjj...klno.kmmllllkjjkkkjkl....
(PID.TID 0000.0001)     26 ..............lmm...........jlnnnnonmmmnmmmmmlllllkklmmnnnnmmlkk....oomnllmmmmmmmnmmno....
(PID.TID 0000.0001)     25 ..............pppl...kjk...nnn.qrsssrrssrrqqqqqqppppqrstuuusronml....pppprrsssstssrsrp....
(PID.TID 0000.0001)     24 ............otutrmh.mljk...nml..rtwxyy++zxwwvvvwwwwwxxxz+zxvtrponoon.....tvuwxyyxwvvuo....
(PID.TID 0000.0001)     23 ............mqstrol.imoq...km...ekruwxyzzxwvuvvuuuuvvvvuvvusqonnnnnon.......rsuvvutttp....
(PID.TID 0000.0001)     22 k...........hlopqonljmoq......hgccfjlmoqrqqooonnnoprsstvvvvtqnmmmmmmnm........oprttrpoklnm
(PID.TID 0000.0001)     21 lji........lmoponmlkjlnoo......g.-bcdgmkkkllllmnpopppqsuuuutrqoonnmlki.........jmttsponnnm
(PID.TID 0000.0001)     20 hfh.......mostspliijjklkh......f......qmkkkkklmoppoooopqpooqqqpoomlllj...........vsqpppolj
(PID.TID 0000.0001)     19 fei.......knttohcbdeegggfgi...ihj.....mllkjjkkllmllmonmlkiijjihhihijjj...........qnkklkjhg
(PID.TID 0000.0001)     18 egh.......g.srkd-bdeddfffgjmmlg.....lmoommlkkjiijllmnljhhgffeeeeefghiil..........lkiiifdee
(PID.TID 0000.0001)     17 fhj.......k.lqkhhihjigghijklmk.......nnnmljiilkjkmmnnmljjhhhggffeffghgi.........jmkihhfcde
(PID.TID 0000.0001)     16 jkl......kl.iljiifhkiiikkkjik.........jjiihhijkjkllmmmlkjklkjjjihhiiijkm........fkkjjjjiii
(PID.TID 0000.0001)     15 mopn....lnk.ghgfffhljggjllljj.........hhgfefhghhhiiiiiihhiiijklkjjkklmnom......ihjjhijjkll
(PID.TID 0000.0001)     14 mopp....kiigeeeedcgjjggjmmllj.........iffffeffggghgfefffggghjlkkjjkllmool.....ljhhhgfhikll
(PID.TID 0000.0001)     13 nnno....hgigfggggfghhghknmlkj.........kghghigghiihhfffgggghijlkkmmmmmmnm.....llkjjihhijkmm
(PID.TID 0000.0001)     12 ppnmnkijhjmmkknnmlllkkmoponnmkkkji....lkjhg.kijkkkiiiijjjjklllkmppoonnnk.....kmmnonllllmop
(PID.TID 0000.0001)     11 srqqonoonnqrpprssrppppqqqrrqpoonmml..jlnmhg.jgjkllkkkkklmmnnnmmprsrqponk....imqqqqqpoooprs
(PID.TID 0000.0001)     10 srrssrqppqrttrrstspoprsrrrrrqppponop.knonf..ffikmmmmmmlmoppponoqstsrqpmi..jmkostsrqqpoqqrs
(PID.TID 0000.0001)      9 pppqsrpnoppqrrqopplkmoqqqpppppoonlnpommnmg.jjijklmllmmmnnoppnnopssqqqoie.hlmmorsqpppnnopqp
(PID.TID 0000.0001)      8 nnooppononnnoonljmnlmnoooonnnnnnmlmnmkjiigkmlkkllkjijjkmmmnnmmmnppoonmhg.pnopprtrpnmmmnnoo
(PID.TID 0000.0001)      7 nnmllmnnnmmnnmmlkloponnnnmmmmnnnmmooljiggilmmllmmllkjiikllmmmlmmmnnmllkknomnppppponllmmmmn
(PID.TID 0000.0001)      6 nmlkllmnmlllllkklmnoonmmlkkkllmllklmlkjihjklllmmmlmmlkiijjkmmlllmmmlklllnonnnnnmllllklmmmm
(PID.TID 0000.0001)      5 lkkkkkkkkkjjjjjjkkklllllllkkkkkjjjjjkkkjjkkkjkmnmlmmlkkjjjklmlkkllmllllllm..mlllkklkllllll
(PID.TID 0000.0001)      4 jihiiihhii............................kjkklkkklmmlllkjjkkllllkkjkkllkkjkk...mllkkkkkkkkkjj
(PID.TID 0000.0001)      3 ..........................................klllkkkkkjjjjkkllkkjjk..kjjj.....lmllkjjjjkkk...
(PID.TID 0000.0001)      2 ..........................................................................................
(PID.TID 0000.0001)      1 ..........................................................................................
(PID.TID 0000.0001) // =======================================================
(PID.TID 0000.0001) // END OF FIELD                                          =
(PID.TID 0000.0001) // =======================================================
(PID.TID 0000.0001) 
(PID.TID 0000.0001) // =======================================================
(PID.TID 0000.0001) // Field Current theta  at iteration         60
(PID.TID 0000.0001) // CMIN =         -1.966749265299421E+00
(PID.TID 0000.0001) // CMAX =          3.059435145538710E+01
(PID.TID 0000.0001) // CINT =          1.205966693358760E+00
(PID.TID 0000.0001) // SYMBOLS (CMIN->CMAX): -abcdefghijklmnopqrstuvwxyz+
(PID.TID 0000.0001) //                  0.0: .
(PID.TID 0000.0001) // RANGE I (Lo:Hi:Step):(     1:    90:     1)
(PID.TID 0000.0001) // RANGE J (Lo:Hi:Step):(    40:     1:    -1)
(PID.TID 0000.0001) // RANGE K (Lo:Hi:Step):(   1:   1:   1)
(PID.TID 0000.0001) // =======================================================
(PID.TID 0000.0001) K =   1
(PID.TID 0000.0001)                I=10      I=20      I=30      I=40      I=50      I=60      I=70      I=80      I=90
(PID.TID 0000.0001) |--J--|123456789|123456789|123456789|123456789|123456789|123456789|123456789|123456789|123456789|
(PID.TID 0000.0001)     40 -bcccba-------abdddbbbbbbbbbbbbbbbbbbbbbbbbbbbbbbbbbbbbbbbbbbbbbbbbbbbbbbbbbbbbbbbbbbaaa--
(PID.TID 0000.0001)     39 bbcccccbaa----bbbddbbbbbbbbbbbbbbbbbbbbbbbbbbbbbbbbbbbbbbbbbbbbbbbbbbbbb----bbbbbbbbbaaaab
(PID.TID 0000.0001)     38 deeeeecccbba-bbbbbbbbbbbbbbbbbbbbbbbbbbbbbbbbbbbbbbbbbbbbbbbbbbbbbbbbbbb-----bbbbbbb---bcd
(PID.TID 0000.0001)     37 fggbbbbbbbbbbbbbbbbbbbbbbbbbbbbbbbbbbbbbbbbbbbbbbbbbbbbbbbbbbbbbbbbbbbbbbba-bbbbcbdeebcdde
(PID.TID 0000.0001)     36 ggbbbbbbbbbbbbbbbbbbbbbbbbbbbbbbbbbbbbbbbbbba--bbbbbbbbbbbbbbbbbbbbccccbababbdbcefgghhhggg
(PID.TID 0000.0001)     35 ffbbbbbbbbbbbbbbbbbbbbbbbbbbbbbbbbb----bbbbbccb-bbbdddefbbbbbbbbbbbbbbbbbbbbdedeefghhiiihg
(PID.TID 0000.0001)     34 bbbbbbbbbbbbbbbbbbbbbbbbbbbbbbbbbbb----bacccccddbcceeefffbbbbbbbbbbbbbbbbbbbabdeffghijjibb
(PID.TID 0000.0001)     33 bbbbbbbbbbbbbbbbbbbbbbbbbbbbbbbbbbbb--abbcddccddeeeeefffgghbbbbbbbbbbbbbbbbbaacghijjkkkjjb
(PID.TID 0000.0001)     32 bbbbbbbbbbbbbbbbbbbbbbbbbbbbbbbbbbbb-abbccddddeefggggghhhhibbbbbbbbbbbbbbbbdcabiklllllkkjb
(PID.TID 0000.0001)     31 bbbbbbbbbbbbbbbbbbbbbbbbbbbbbbbbbbbbdeffgghhiiiiiiiiijjkkjjbbbbbbbbbbbbbbhjlkhjmmnmmmmllbb
(PID.TID 0000.0001)     30 bbbbbbbbbbbbbbbbbbbbbbbbbbbbbbbbbbbkkjkkkkklllkkkllllmmmmllbbbbbbbbbbbbmnnoppoopoooonnnnbb
(PID.TID 0000.0001)     29 bbbbbbbbbbbbbbbbbbbbbbbbbbbbbbbbbnonnnnnnnnnnnnnnnnnooooonmmbbbbbbbbbbbpqqqqqqqpppppoooobb
(PID.TID 0000.0001)     28 bbbbbbbbbbbbbbbbbbbbbbbbbbbbbbbnppppppppppppppqppqqpqqqqpoonnbbbbbbbbbrrrrrrrrqqqqqqppppbb
(PID.TID 0000.0001)     27 bbbbbbbbbbbbbbuubbbbbbbbbbbbbbqqrrrrsrrrssssssssssssssrrrqppppbbbrrssbttttttttssssrrrqbbbb
(PID.TID 0000.0001)     26 bbbbbbbbbbbbbbuttbbbbbbbbbbbtstttttuuuuuuuuuuuuuuuuttssssrqqqrsubttuvvuuuuuuuuuutssrrqbbbb
(PID.TID 0000.0001)     25 bbbbbbbbbbbbbbuuvvbbbwvwbbbuuvvvvvwwwwwwwwvvvvvvvvvuuutttsssttuvwbbbwvvvvvvuuuuuttsrqpbbbb
(PID.TID 0000.0001)     24 bbbbbbbbbbbbvvvvwxybwwwxbbbwwvbxwwxxxwwwwwwvwwvvvvvvvvvvvvvvvvwwwvvvbwvvvvvvvvuuutttssbbbb
(PID.TID 0000.0001)     23 bbbbbbbbbbbbwvwxxyybwwxxbbbxwwbbxxxxxxxxxxxwwwwwwwwwwxwwwwwwwwwwwwwwvbbbbwwvvvwvvvvvvvbbbb
(PID.TID 0000.0001)     22 wbbbbbbbbbbbwwwxxxyyxxyybbbxxbyyyyyyyyyyyyyxxxxxxxxxxxxwwwwwwwwwwwwvvwbbbbbbxwwwwwxxxxxxxw
(PID.TID 0000.0001)     21 wwvbbbbbbbbxxxxxyyyyyzz++bbbbbyzzzzzzzzzzzzyyyyyyyyyyyxxxwxxxxxwwwwvvvbbbbbbbbyxxyyyyzyyxw
(PID.TID 0000.0001)     20 wwvbbbbbbbyyyyyyyzzzzzzz+bbbbbbzbzzzzz+++++zzzzzzzyzyyyyxxxyxxxxxxxwwvbbbbbbbbbyyyyyyyyxxx
(PID.TID 0000.0001)     19 wwvbbbbbbbzzzzyzzyyzzzzyzzybbbzyzbbbbb++zz++zzzzzzzzyyyyxxxxxwwwwwwwvvbbbbbbbbbbbyxxxwwwww
(PID.TID 0000.0001)     18 vutbbbbbbbzzyyxxxxyyyyyyyyzyzz+zzbbb++zzzz+zzzzzzzzzzyyyxxxxwwwvvvvvvuubbbbbbbbbbyxxxwwwww
(PID.TID 0000.0001)     17 uusbbbbbbbzbyxxxxxxyyyyyyyyyyzzbbbbbzzzzzz+zzzzzzzzzzyyyyyxxwwwvuvvuttvbbbbbbbbbxyyxxwuvvu
(PID.TID 0000.0001)     16 utsbbbbbbyzbyyxxxxxxxxxwwxxxyzbbbbbbbyyyyyzzzzzzyyyyyyyyxxxxxwwwvvvuutttbbbbbbbbyyyyxwvvvu
(PID.TID 0000.0001)     15 tsrrbbbbwyybxxxxxwwwwwwvvvvwxbbbbbbbbbwwxxxxxxxxxxxxyyxxxyyyxwwwwvvuttssrbbbbbbxxyxxyxxwvu
(PID.TID 0000.0001)     14 utrqbbbbwyxwwxwvwwwvvuuuttuuubbbbbbbbbwwwwwwwwwwwwxxxxxwxxxxxwwwvvvvtssssbbbbbwwxxxxxxwwvu
(PID.TID 0000.0001)     13 uttrbbbbwxwvwwvuvvvvvuuttttstbbbbbbbbbvvvvvvvvvvvvuvvvwvwwwxxwwvvuuuusssqbbbbvwwwwwwwwwvvu
(PID.TID 0000.0001)     12 tstsssrtuvutuutssssstutrrsssrqqrrqbbbbuuuutttttsststttttttuvuutttstttsrrbbbbbtvvvuuuuuuttt
(PID.TID 0000.0001)     11 qppqrrsssssrrsrrqqppqrrpqqqppqqqqqqbbsttsssbrrrrrrrrrrrrrrssrqrrrrrssrqpbbbbprstssrssrrrqq
(PID.TID 0000.0001)     10 mmmlnnopppppoponnnnnnnnmmmmmmnooopppbqrrrrqbpqqqqqqpppqpppppoopppooopppobboopppppoooopponn
(PID.TID 0000.0001)      9 jjiiijjjkjkkkkjjjijjjjjiiijjijkllnnmmnooopbnnoooooooooooonnmmmnnmmllmnnmbmnnnnmmmllkkllkjj
(PID.TID 0000.0001)      8 ggggggghgghhiihhhgghhihgghhhhiijjjkkkkllmmmllllllllmmmllllkkkkkkkkkkkklkblllkkjjiiihhhggff
(PID.TID 0000.0001)      7 eeeeeeffggfffggggfffffeeffggggghhhhhhiijkkkjjjkkkjjjiiiiiiiiiiiiiiiiijjjijjjiihhgfffffeeee
(PID.TID 0000.0001)      6 ddddeeeeeeeeeefeffeeeefffeeedeefffffggghhiiihhhiihgfffgggggggffghhhhhhhhhhhhhgffeeeedddddd
(PID.TID 0000.0001)      5 dddeeeeddeeeeeeeeeeeeeeedddeeeeefeeeeeffffggffffffeddeeeeeeeeeeffffffffffffeeeeddddddcdccd
(PID.TID 0000.0001)      4 dddddddccddcccccccdccccccbbcccccccccccdddddddddcddddddddddddddddddddddddddbbbbbcccdddccccd
(PID.TID 0000.0001)      3 ccccbbbaaabbbbbbbbbbbbbbbbbbbbbbbbbbbbbbbbbcccccccccccccbbbbbbbbbbbbbbbbbbbbbaaabbcccccbbb
(PID.TID 0000.0001)      2 bbbbbbbbbbbbbbbbbbbbbbbbbbbbbbbbbbbbbbbbbbbbccccbbbbbaaaaaaaaababbaaaabbbbbaaaaabbbbbbbbbb
(PID.TID 0000.0001)      1 bbbbbbbbbbbbbbbbbbbbbbbbbbbbbbbbbbbbbbbbbbbbbbbbbbbbbbbbbbbbbbbbbbbbbbbbbbbbbbbbbbbbbbbbbb
(PID.TID 0000.0001) // =======================================================
(PID.TID 0000.0001) // END OF FIELD                                          =
(PID.TID 0000.0001) // =======================================================
(PID.TID 0000.0001) 
(PID.TID 0000.0001) // =======================================================
(PID.TID 0000.0001) // Field Current etaN   at iteration         60
(PID.TID 0000.0001) // CMIN =         -1.965800681873457E+00
(PID.TID 0000.0001) // CMAX =          8.545416723831788E-01
(PID.TID 0000.0001) // CINT =          1.044571242317273E-01
(PID.TID 0000.0001) // SYMBOLS (CMIN->CMAX): -abcdefghijklmnopqrstuvwxyz+
(PID.TID 0000.0001) //                  0.0: .
(PID.TID 0000.0001) // RANGE I (Lo:Hi:Step):(    -1:    92:     1)
(PID.TID 0000.0001) // RANGE J (Lo:Hi:Step):(    42:    -1:    -1)
(PID.TID 0000.0001) // RANGE K (Lo:Hi:Step):(   1:   1:   1)
(PID.TID 0000.0001) // =======================================================
(PID.TID 0000.0001) K =   1
(PID.TID 0000.0001)                I=8       I=18      I=28      I=38      I=48      I=58      I=68      I=78      I=88
(PID.TID 0000.0001) |--J--|101234567|901234567|901234567|901234567|901234567|901234567|901234567|901234567|901234567|9012
(PID.TID 0000.0001)     42 ............................................-----aaabbbccccccccccd..dddd.....ccccdddeeeee.....
(PID.TID 0000.0001)     41 ..............................................................................................
(PID.TID 0000.0001)     40 tsssstt.qqqqqqqpppppp..................................................................ttttsss
(PID.TID 0000.0001)     39 ssrrrrssrrrrrrss...pp.....................................................jjjj........ttssssrr
(PID.TID 0000.0001)     38 rsssssssssssttu...........................................................jjkkk......tsrrrrsss
(PID.TID 0000.0001)     37 sssst..................................................................lm...lmm...ssrsr.rsssss
(PID.TID 0000.0001)     36 sttv.........................................mnnm....................mmnonnmlmmm.sppqrsssssttv
(PID.TID 0000.0001)     35 vuuu.................................ijji..lmmmnnn...sqrrs...........oop....mlklmmnopqrrstvuuu
(PID.TID 0000.0001)     34 .....................................kjjj.llmmmnno.pooppqrt..................lmllmmnpqrstw....
(PID.TID 0000.0001)     33 t.....................................kkjkllmmmnnoooooppqrrss.................onmnopqrstttt...
(PID.TID 0000.0001)     32 u.....................................lllklmmnnooopppppqrrrrr................jopoqrsstttttu...
(PID.TID 0000.0001)     31 ......................................mmmmmnnooppppqqqrrrssss..............rrrrrrssttttttt....
(PID.TID 0000.0001)     30 .....................................pppooopppqqqrrrrrsssttss............sutuvvvvvuuuuuuuu....
(PID.TID 0000.0001)     29 ...................................ststsssssssssssstssstttttsr...........vxxxxwwwvvvvuuuuu....
(PID.TID 0000.0001)     28 .................................stuvvvvuuuuuuuuuttttttttttttsr.........xyyxxxxwwvvvvuuuuu....
(PID.TID 0000.0001)     27 ................tt..............uuvwwwvvvvvvvvvvuuuuuuuuuttttssr...xxxx.yyyyxxxwwvvvuuut......
(PID.TID 0000.0001)     26 ................ttu...........uuvvwwwwwwwwwwwvvvvvvvvvvuuuttssssss.xxxyzzzzzyyxxwwvvvuuu......
(PID.TID 0000.0001)     25 ................ttuv...wvv...uuuuwwwwwwwwwwwwvvvvvvvvvuuuutttssssst...zz++zzyxxwwwvvvuuu......
(PID.TID 0000.0001)     24 ..............uuuuvww.wwww...vuu.xwvvvuuvvvvvvvuuuuuuuutttttstttttttts.zzzzyyxxwwwvvvuuu......
(PID.TID 0000.0001)     23 ..............vuuvvww.wwww...vvu..vvuuttuuuuuuuuuuuuuuutttttttttttsssss....yxwxwwwwvvvvv......
(PID.TID 0000.0001)     22 vvv...........vvvvvvvwwwww...vv.vwvvuuuuuvvvvvvvvvvvvvvuuuuuttttttsssstt......yxxwwwwwwwwvvvv.
(PID.TID 0000.0001)     21 vvvvu........vvvvvvvvwwwxxx.....vwwvvvvvvwwwwwwwwwvvvvvvvvuuuutttttsssst........xxxwwwwwwvvvvv
(PID.TID 0000.0001)     20 vvvvu.......xwwwwwwwwwxxwxx......w.vvwvwxwxwwwwwwwwvvvvvvvuuuuuttttsssss.........xxxwwwwvvvvvv
(PID.TID 0000.0001)     19 uuuuu.......xxwwwwwwwwwwwwwww...www.....wwwwwwwwwvvvvvvvuuuttttttsssssss...........xwwwvvvuuuu
(PID.TID 0000.0001)     18 uuuuu.......yxxwwvvvvwwwwwwwwwxxxwx...xxwwvvwvvvvvvvvvvvuuuuutttsssssssrr..........xwwvvuuuuuu
(PID.TID 0000.0001)     17 uuttt.......y.zxwwwwwxxwwwwwwwwxx.....xxwwvwwwvvvvvwwwwvvuuuuutttssssssrr.........yyxwvvuuuutt
(PID.TID 0000.0001)     16 uuutt......+z.zyxxxxxxxxwwwwwvww.......wwvvwwwwwwwwwwwwwvvvvvvvuuttttssrrr........xxxwwwvvuuut
(PID.TID 0000.0001)     15 wvuuts....yyx.yyyyxxxxwwwwvvuuv.........vvvvwwwwwwwwwwwwwwwwwwvvvuttttsrrqq......vwxxxxxwwwvuu
(PID.TID 0000.0001)     14 wwvvut....xyxwxxxxxxxwvvvvvuttt.........tuuuvvvvvvvvvvvwwwwwwwwvvuuuutssrqq.....vvwxxxxxxxwwvv
(PID.TID 0000.0001)     13 xwwvut....wyxxxxwwwwwvvvvvuttsr.........sttuuuuuuuuuuuuuvvvvvwwwvvuuutssrqq....vvwwwwxxxyyxwwv
(PID.TID 0000.0001)     12 xwwvvuuruvxyxwwxwwvvvvvvvvuttsrrqqqp....rsttttsttttsttttttuuuuvuuvutttsrrq.....wwwwwwwwwxxxwwv
(PID.TID 0000.0001)     11 vvuuuuuuvvwxxxwxwvvvvuuuuuttsrrrqqqpp..srrrst.rsssssssttttttttttuuutssrrqp....uvvvuvuuvvvvvvuu
(PID.TID 0000.0001)     10 ttssssrssssttsrstssrrrssrrrrqqpppppqqq.rrrqqr.qrrssssssttttssssttutsrqqqpp..ustutsrrrrssttttss
(PID.TID 0000.0001)      9 ppppppoonnoonnmmmnmmlnooooonoonnoooqqqpqqqpo.srqrrssssssttttsrrsssrqqppoon.ttsrsrqoonnoopppppp
(PID.TID 0000.0001)      8 kkkllkkjijjjjjjjijkjhjkkkkkjkkkklllmnnnnooppqpppppqqqrrrrrrrrqqqqrqppoonnq.qqpoonmkkkjkkkkkkkl
(PID.TID 0000.0001)      7 hhggggggggggggggghhihggfgggggghhhhhiihhhiklmmmmmmmmmmmnnooonnnnoooonnnmmmnonoonmlkihhhhhhhhhgg
(PID.TID 0000.0001)      6 eeedeeffffffffffffgggfeeeeeeeeeeeeeeeddefghijjjiiiiiihhhijkkkkkkklllkkkkkkkkjjiihgggffffffeeed
(PID.TID 0000.0001)      5 eddddeeeeeeeeeeeeeffeeeddcccccccbbbbcccbccdeeefffeeeedddeefghhhhhhhhhgggggffedddddeeeeeeeeeddd
(PID.TID 0000.0001)      4 eeeeeeeeeeeeffffeeeeeddddddccbbbbbbbaaabbbbbbbbccbbbbbbccddeeeeeeeeeeeedddee..cdddddddeeeeeeee
(PID.TID 0000.0001)      3 ffffffffffff............................aaaaaaaaaaaabbbbccccccccccdddddddee..eedddddeeeeeeffff
(PID.TID 0000.0001)      2 ............................................-----aaabbbccccccccccd..dddd.....ccccdddeeeee.....
(PID.TID 0000.0001)      1 ..............................................................................................
(PID.TID 0000.0001)      0 tsssstt.qqqqqqqpppppp..................................................................ttttsss
(PID.TID 0000.0001)     -1 ssrrrrssrrrrrrss...pp.....................................................jjjj........ttssssrr
(PID.TID 0000.0001) // =======================================================
(PID.TID 0000.0001) // END OF FIELD                                          =
(PID.TID 0000.0001) // =======================================================
(PID.TID 0000.0001) 
(PID.TID 0000.0001)  MDS_WRITE_FIELD: it,rec,kS,kL,kH=      60     1  15   1  15 file=U.0000000060
(PID.TID 0000.0001)  MDS_WRITE_FIELD: it,rec,kS,kL,kH=      60     1  15   1  15 file=V.0000000060
(PID.TID 0000.0001)  MDS_WRITE_FIELD: it,rec,kS,kL,kH=      60     1  15   1  15 file=T.0000000060
(PID.TID 0000.0001)  MDS_WRITE_FIELD: it,rec,kS,kL,kH=      60     1  15   1  15 file=S.0000000060
(PID.TID 0000.0001)  MDS_WRITE_FIELD: it,rec,kS,kL,kH=      60     1   1   1   1 file=Eta.0000000060
(PID.TID 0000.0001)  MDS_WRITE_FIELD: it,rec,kS,kL,kH=      60     1  15   1  15 file=W.0000000060
(PID.TID 0000.0001)  MDS_WRITE_FIELD: it,rec,kS,kL,kH=      60     1  15   1  15 file=PH.0000000060
(PID.TID 0000.0001)  MDS_WRITE_FIELD: it,rec,kS,kL,kH=      60     1   1   1   1 file=PHL.0000000060
(PID.TID 0000.0001)  MDS_WRITE_FIELD: it,rec,kS,kL,kH=      60     1   1   1   1 file=ETAtave.0000000060
(PID.TID 0000.0001)  MDS_WRITE_FIELD: it,rec,kS,kL,kH=      60     1  15   1  15 file=Ttave.0000000060
(PID.TID 0000.0001)  MDS_WRITE_FIELD: it,rec,kS,kL,kH=      60     1  15   1  15 file=Stave.0000000060
(PID.TID 0000.0001)  MDS_WRITE_FIELD: it,rec,kS,kL,kH=      60     1  15   1  15 file=uVeltave.0000000060
(PID.TID 0000.0001)  MDS_WRITE_FIELD: it,rec,kS,kL,kH=      60     1  15   1  15 file=vVeltave.0000000060
(PID.TID 0000.0001)  MDS_WRITE_FIELD: it,rec,kS,kL,kH=      60     1  15   1  15 file=wVeltave.0000000060
(PID.TID 0000.0001)  MDS_WRITE_FIELD: it,rec,kS,kL,kH=      60     1   1   1   1 file=Eta2tave.0000000060
(PID.TID 0000.0001)  MDS_WRITE_FIELD: it,rec,kS,kL,kH=      60     1  15   1  15 file=UTtave.0000000060
(PID.TID 0000.0001)  MDS_WRITE_FIELD: it,rec,kS,kL,kH=      60     1  15   1  15 file=VTtave.0000000060
(PID.TID 0000.0001)  MDS_WRITE_FIELD: it,rec,kS,kL,kH=      60     1  15   1  15 file=WTtave.0000000060
(PID.TID 0000.0001)  MDS_WRITE_FIELD: it,rec,kS,kL,kH=      60     1  15   1  15 file=UStave.0000000060
(PID.TID 0000.0001)  MDS_WRITE_FIELD: it,rec,kS,kL,kH=      60     1  15   1  15 file=VStave.0000000060
(PID.TID 0000.0001)  MDS_WRITE_FIELD: it,rec,kS,kL,kH=      60     1  15   1  15 file=WStave.0000000060
(PID.TID 0000.0001)  MDS_WRITE_FIELD: it,rec,kS,kL,kH=      60     1  15   1  15 file=TTtave.0000000060
(PID.TID 0000.0001)  MDS_WRITE_FIELD: it,rec,kS,kL,kH=      60     1  15   1  15 file=UUtave.0000000060
(PID.TID 0000.0001)  MDS_WRITE_FIELD: it,rec,kS,kL,kH=      60     1  15   1  15 file=VVtave.0000000060
(PID.TID 0000.0001)  MDS_WRITE_FIELD: it,rec,kS,kL,kH=      60     1  15   1  15 file=UVtave.0000000060
(PID.TID 0000.0001)  MDS_WRITE_FIELD: it,rec,kS,kL,kH=      60     1  15   1  15 file=Tdiftave.0000000060
(PID.TID 0000.0001)  MDS_WRITE_FIELD: it,rec,kS,kL,kH=      60     1  15   1  15 file=PhHytave.0000000060
(PID.TID 0000.0001)  MDS_WRITE_FIELD: it,rec,kS,kL,kH=      60     1   1   1   1 file=PHLtave.0000000060
(PID.TID 0000.0001)  MDS_WRITE_FIELD: it,rec,kS,kL,kH=      60     1   1   1   1 file=uFluxtave.0000000060
(PID.TID 0000.0001)  MDS_WRITE_FIELD: it,rec,kS,kL,kH=      60     1   1   1   1 file=vFluxtave.0000000060
(PID.TID 0000.0001)  MDS_WRITE_FIELD: it,rec,kS,kL,kH=      60     1   1   1   1 file=tFluxtave.0000000060
(PID.TID 0000.0001)  MDS_WRITE_FIELD: it,rec,kS,kL,kH=      60     1   1   1   1 file=sFluxtave.0000000060
(PID.TID 0000.0001)  MDS_WRITE_FIELD: it,rec,kS,kL,kH=      60     1   1   1   1 file=PHL2tave.0000000060
(PID.TID 0000.0001)  MDS_WRITE_FIELD: it,rec,kS,kL,kH=      60     1  15   1  15 file=Convtave.0000000060
(PID.TID 0000.0001) // Time-average data written, t-step        60
(PID.TID 0000.0001) 
(PID.TID 0000.0001)  MDS_WRITE_FIELD: it,rec,kS,kL,kH=      60     1  15   1  15 file=GM_Kwx-T.0000000060
(PID.TID 0000.0001)  MDS_WRITE_FIELD: it,rec,kS,kL,kH=      60     1  15   1  15 file=GM_Kwy-T.0000000060
(PID.TID 0000.0001)  MDS_WRITE_FIELD: it,rec,kS,kL,kH=      60     1  15   1  15 file=GM_Kwz-T.0000000060
(PID.TID 0000.0001)  MDS_WRITE_FIELD: it,rec,kS,kL,kH=      60     1  15   1  15 file=pickup_cd.0000000060
(PID.TID 0000.0001)  MDS_WRITE_FIELD: it,rec,kS,kL,kH=      60     2  15   1  15 file=pickup_cd.0000000060
(PID.TID 0000.0001)  MDS_WRITE_FIELD: it,rec,kS,kL,kH=      60     3  15   1  15 file=pickup_cd.0000000060
(PID.TID 0000.0001)  MDS_WRITE_FIELD: it,rec,kS,kL,kH=      60     4  15   1  15 file=pickup_cd.0000000060
(PID.TID 0000.0001)  MDS_WRITE_FIELD: it,rec,kS,kL,kH=      60    61   1   1   1 file=pickup_cd.0000000060
(PID.TID 0000.0001)  MDS_WRITE_FIELD: it,rec,kS,kL,kH=      60    -1  15   1  15 file=pickup.0000000060
(PID.TID 0000.0001)  MDS_WRITE_FIELD: it,rec,kS,kL,kH=      60    -2  15   1  15 file=pickup.0000000060
(PID.TID 0000.0001)  MDS_WRITE_FIELD: it,rec,kS,kL,kH=      60    -3  15   1  15 file=pickup.0000000060
(PID.TID 0000.0001)  MDS_WRITE_FIELD: it,rec,kS,kL,kH=      60    -4  15   1  15 file=pickup.0000000060
(PID.TID 0000.0001)  MDS_WRITE_FIELD: it,rec,kS,kL,kH=      60    -5  15   1  15 file=pickup.0000000060
(PID.TID 0000.0001)  MDS_WRITE_FIELD: it,rec,kS,kL,kH=      60    -6  15   1  15 file=pickup.0000000060
(PID.TID 0000.0001)  MDS_WRITE_FIELD: it,rec,kS,kL,kH=      60    -7  15   1  15 file=pickup.0000000060
(PID.TID 0000.0001)  MDS_WRITE_FIELD: it,rec,kS,kL,kH=      60    -8  15   1  15 file=pickup.0000000060
(PID.TID 0000.0001)  MDS_WRITE_FIELD: it,rec,kS,kL,kH=      60  -121   1   1   1 file=pickup.0000000060
(PID.TID 0000.0001)  MDS_WRITE_FIELD: it,rec,kS,kL,kH=      60  -122   1   1   1 file=pickup.0000000060
(PID.TID 0000.0001)  MDS_WRITE_FIELD: it,rec,kS,kL,kH=      60  -123   1   1   1 file=pickup.0000000060
(PID.TID 0000.0001) %CHECKPOINT        60 0000000060
 EXTERNAL_FIELDS_LOAD,        60 : iP,iLd,i0,i1=    2    3    2    3 ; Wght=  0.5000000000  0.5000000000
 EXTERNAL_FIELDS_LOAD: (fu0,1),fu,fv= -1.4435E-02 -2.7199E-02 -2.0817E-02 -9.1068E-03
 EXTERNAL_FIELDS_LOAD: SST,SSS,Q,E-P= -3.5788E-01  3.4500E+01  2.2794E+02  8.7290E-06
DEBUG_STATS_RL:          Uvel (THERMODYNAMICS)  min= -1.33182630538037E-01
DEBUG_STATS_RL:          Uvel (THERMODYNAMICS)  max=  1.31788733916368E-01
DEBUG_STATS_RL:          Uvel (THERMODYNAMICS) mean=  5.64946306019889E-03
DEBUG_STATS_RL:          Uvel (THERMODYNAMICS) S.D.=  2.30532058683771E-02
DEBUG_STATS_RL:          Vvel (THERMODYNAMICS)  min= -9.94888147635839E-02
DEBUG_STATS_RL:          Vvel (THERMODYNAMICS)  max=  1.40228142446986E-01
DEBUG_STATS_RL:          Vvel (THERMODYNAMICS) mean=  8.99559870584311E-04
DEBUG_STATS_RL:          Vvel (THERMODYNAMICS) S.D.=  1.51269314407436E-02
DEBUG_STATS_RL:          Wvel (THERMODYNAMICS)  min= -8.79287140373178E-05
DEBUG_STATS_RL:          Wvel (THERMODYNAMICS)  max=  9.39200844594611E-05
DEBUG_STATS_RL:          Wvel (THERMODYNAMICS) mean= -1.06193045596634E-07
DEBUG_STATS_RL:          Wvel (THERMODYNAMICS) S.D.=  1.21042786978325E-05
DEBUG_STATS_RL:         Theta (THERMODYNAMICS)  min= -1.96514894179458E+00
DEBUG_STATS_RL:         Theta (THERMODYNAMICS)  max=  3.06176951603823E+01
DEBUG_STATS_RL:         Theta (THERMODYNAMICS) mean=  3.23953590272874E+00
DEBUG_STATS_RL:         Theta (THERMODYNAMICS) S.D.=  5.87782037529280E+00
DEBUG_STATS_RL:          Salt (THERMODYNAMICS)  min=  2.00000000000000E-02
DEBUG_STATS_RL:          Salt (THERMODYNAMICS)  max=  3.74865535800166E+01
DEBUG_STATS_RL:          Salt (THERMODYNAMICS) mean=  1.88648067393626E+01
DEBUG_STATS_RL:          Salt (THERMODYNAMICS) S.D.=  1.73003378935488E+01
DEBUG_STATS_RL:         GtNm1 (THERMODYNAMICS)  min= -3.36726251459310E-06
DEBUG_STATS_RL:         GtNm1 (THERMODYNAMICS)  max=  2.08392501046424E-06
DEBUG_STATS_RL:         GtNm1 (THERMODYNAMICS) mean=  3.48163967062532E-09
DEBUG_STATS_RL:         GtNm1 (THERMODYNAMICS) S.D.=  1.75395482162351E-07
DEBUG_STATS_RL:         GsNm1 (THERMODYNAMICS)  min= -3.94013198225868E-07
DEBUG_STATS_RL:         GsNm1 (THERMODYNAMICS)  max=  2.70249370841450E-07
DEBUG_STATS_RL:         GsNm1 (THERMODYNAMICS) mean= -4.33848726444980E-10
DEBUG_STATS_RL:         GsNm1 (THERMODYNAMICS) S.D.=  1.76773425575387E-08
DEBUG_STATS_RL:                EtaN (DYNAMICS)  min= -1.96580068187346E+00
DEBUG_STATS_RL:                EtaN (DYNAMICS)  max=  8.54541672383179E-01
DEBUG_STATS_RL:                EtaN (DYNAMICS) mean= -1.67820054167810E-01
DEBUG_STATS_RL:                EtaN (DYNAMICS) S.D.=  6.82767634988278E-01
DEBUG_STATS_RL:                Uvel (DYNAMICS)  min= -1.33182630538037E-01
DEBUG_STATS_RL:                Uvel (DYNAMICS)  max=  1.31788733916368E-01
DEBUG_STATS_RL:                Uvel (DYNAMICS) mean=  5.64946306019889E-03
DEBUG_STATS_RL:                Uvel (DYNAMICS) S.D.=  2.30532058683771E-02
DEBUG_STATS_RL:                Vvel (DYNAMICS)  min= -9.94888147635839E-02
DEBUG_STATS_RL:                Vvel (DYNAMICS)  max=  1.40228142446986E-01
DEBUG_STATS_RL:                Vvel (DYNAMICS) mean=  8.99559870584311E-04
DEBUG_STATS_RL:                Vvel (DYNAMICS) S.D.=  1.51269314407436E-02
DEBUG_STATS_RL:                Wvel (DYNAMICS)  min= -8.79287140373178E-05
DEBUG_STATS_RL:                Wvel (DYNAMICS)  max=  9.39200844594611E-05
DEBUG_STATS_RL:                Wvel (DYNAMICS) mean= -1.06193045596634E-07
DEBUG_STATS_RL:                Wvel (DYNAMICS) S.D.=  1.21042786978325E-05
DEBUG_STATS_RL:               Theta (DYNAMICS)  min= -1.96514894179458E+00
DEBUG_STATS_RL:               Theta (DYNAMICS)  max=  3.06176951603823E+01
DEBUG_STATS_RL:               Theta (DYNAMICS) mean=  3.23953590272874E+00
DEBUG_STATS_RL:               Theta (DYNAMICS) S.D.=  5.87782037529280E+00
DEBUG_STATS_RL:                Salt (DYNAMICS)  min=  2.00000000000000E-02
DEBUG_STATS_RL:                Salt (DYNAMICS)  max=  3.74865535800166E+01
DEBUG_STATS_RL:                Salt (DYNAMICS) mean=  1.88648067393626E+01
DEBUG_STATS_RL:                Salt (DYNAMICS) S.D.=  1.73003378935488E+01
DEBUG_STATS_RL:                  Gu (DYNAMICS)  min= -1.32932245321671E-01
DEBUG_STATS_RL:                  Gu (DYNAMICS)  max=  1.34601195492881E-01
DEBUG_STATS_RL:                  Gu (DYNAMICS) mean=  5.67569728514203E-03
DEBUG_STATS_RL:                  Gu (DYNAMICS) S.D.=  2.34361489549722E-02
DEBUG_STATS_RL:                  Gv (DYNAMICS)  min= -1.02248431981027E-01
DEBUG_STATS_RL:                  Gv (DYNAMICS)  max=  1.41586526381784E-01
DEBUG_STATS_RL:                  Gv (DYNAMICS) mean=  3.38643360817187E-03
DEBUG_STATS_RL:                  Gv (DYNAMICS) S.D.=  1.63484008121057E-02
DEBUG_STATS_RL:               GuNm1 (DYNAMICS)  min= -9.85191915512837E-06
DEBUG_STATS_RL:               GuNm1 (DYNAMICS)  max=  9.41949015236074E-06
DEBUG_STATS_RL:               GuNm1 (DYNAMICS) mean=  8.27087523088052E-09
DEBUG_STATS_RL:               GuNm1 (DYNAMICS) S.D.=  1.20259131355212E-06
DEBUG_STATS_RL:               GvNm1 (DYNAMICS)  min= -9.92746298193768E-06
DEBUG_STATS_RL:               GvNm1 (DYNAMICS)  max=  1.59066223373059E-05
DEBUG_STATS_RL:               GvNm1 (DYNAMICS) mean=  7.43889465257809E-07
DEBUG_STATS_RL:               GvNm1 (DYNAMICS) S.D.=  2.65169758039342E-06
DEBUG_STATS_RL:               GtNm1 (DYNAMICS)  min= -3.36726251459310E-06
DEBUG_STATS_RL:               GtNm1 (DYNAMICS)  max=  2.08392501046424E-06
DEBUG_STATS_RL:               GtNm1 (DYNAMICS) mean=  3.48163967062532E-09
DEBUG_STATS_RL:               GtNm1 (DYNAMICS) S.D.=  1.75395482162351E-07
DEBUG_STATS_RL:               GsNm1 (DYNAMICS)  min= -3.94013198225868E-07
DEBUG_STATS_RL:               GsNm1 (DYNAMICS)  max=  2.70249370841450E-07
DEBUG_STATS_RL:               GsNm1 (DYNAMICS) mean= -4.33848726444980E-10
DEBUG_STATS_RL:               GsNm1 (DYNAMICS) S.D.=  1.76773425575387E-08
DEBUG_STATS_RL:    cg2d_b (SOLVE_FOR_PRESSURE)  min= -1.95765573328052E+04
DEBUG_STATS_RL:    cg2d_b (SOLVE_FOR_PRESSURE)  max=  2.58623518221088E+04
DEBUG_STATS_RL:    cg2d_b (SOLVE_FOR_PRESSURE) mean=  4.33485613067337E+00
DEBUG_STATS_RL:    cg2d_b (SOLVE_FOR_PRESSURE) S.D.=  3.94043808361302E+03
 cg2d: Sum(rhs),rhsMax =   3.88023177920308E-01  1.69870851220184E+00
(PID.TID 0000.0001)  cg2d: iter=     1 ; resid.=  1.53242574637024E-01
(PID.TID 0000.0001)  cg2d: iter=     2 ; resid.=  1.23299852199685E-01
(PID.TID 0000.0001)  cg2d: iter=     3 ; resid.=  1.06186500629286E-01
(PID.TID 0000.0001)  cg2d: iter=     4 ; resid.=  9.33632572943341E-02
(PID.TID 0000.0001)  cg2d: iter=     5 ; resid.=  6.98690191374234E-02
(PID.TID 0000.0001)  cg2d: iter=     6 ; resid.=  5.19926528572888E-02
(PID.TID 0000.0001)  cg2d: iter=     7 ; resid.=  4.55628282999669E-02
(PID.TID 0000.0001)  cg2d: iter=     8 ; resid.=  4.25411548923028E-02
(PID.TID 0000.0001)  cg2d: iter=     9 ; resid.=  3.63507640005397E-02
(PID.TID 0000.0001)  cg2d: iter=    10 ; resid.=  3.33065106309488E-02
(PID.TID 0000.0001)  cg2d: iter=    11 ; resid.=  3.01155938346309E-02
(PID.TID 0000.0001)  cg2d: iter=    12 ; resid.=  2.55688263829998E-02
(PID.TID 0000.0001)  cg2d: iter=    13 ; resid.=  2.09174908204965E-02
(PID.TID 0000.0001)  cg2d: iter=    14 ; resid.=  1.73327019569973E-02
(PID.TID 0000.0001)  cg2d: iter=    15 ; resid.=  1.48005759392232E-02
(PID.TID 0000.0001)  cg2d: iter=    16 ; resid.=  1.21016698205923E-02
(PID.TID 0000.0001)  cg2d: iter=    17 ; resid.=  1.01898819214354E-02
(PID.TID 0000.0001)  cg2d: iter=    18 ; resid.=  8.33406262154915E-03
(PID.TID 0000.0001)  cg2d: iter=    19 ; resid.=  6.77757758796676E-03
(PID.TID 0000.0001)  cg2d: iter=    20 ; resid.=  5.77962208800676E-03
(PID.TID 0000.0001)  cg2d: iter=    21 ; resid.=  5.03553619428045E-03
(PID.TID 0000.0001)  cg2d: iter=    22 ; resid.=  4.34934235090141E-03
(PID.TID 0000.0001)  cg2d: iter=    23 ; resid.=  3.47013880375126E-03
(PID.TID 0000.0001)  cg2d: iter=    24 ; resid.=  2.96605636999215E-03
(PID.TID 0000.0001)  cg2d: iter=    25 ; resid.=  2.42749915776346E-03
(PID.TID 0000.0001)  cg2d: iter=    26 ; resid.=  1.97886353105210E-03
(PID.TID 0000.0001)  cg2d: iter=    27 ; resid.=  1.74872297221566E-03
(PID.TID 0000.0001)  cg2d: iter=    28 ; resid.=  1.52832799404259E-03
(PID.TID 0000.0001)  cg2d: iter=    29 ; resid.=  1.33651301710577E-03
(PID.TID 0000.0001)  cg2d: iter=    30 ; resid.=  1.06772686792896E-03
(PID.TID 0000.0001)  cg2d: iter=    31 ; resid.=  8.81805639243405E-04
(PID.TID 0000.0001)  cg2d: iter=    32 ; resid.=  6.78542983223131E-04
(PID.TID 0000.0001)  cg2d: iter=    33 ; resid.=  5.89490895922979E-04
(PID.TID 0000.0001)  cg2d: iter=    34 ; resid.=  5.08917668214346E-04
(PID.TID 0000.0001)  cg2d: iter=    35 ; resid.=  4.05948805544923E-04
(PID.TID 0000.0001)  cg2d: iter=    36 ; resid.=  3.18378717164472E-04
(PID.TID 0000.0001)  cg2d: iter=    37 ; resid.=  2.42659917840980E-04
(PID.TID 0000.0001)  cg2d: iter=    38 ; resid.=  1.85941954201638E-04
(PID.TID 0000.0001)  cg2d: iter=    39 ; resid.=  1.53473231764818E-04
(PID.TID 0000.0001)  cg2d: iter=    40 ; resid.=  1.29565298703355E-04
(PID.TID 0000.0001)  cg2d: iter=    41 ; resid.=  1.16203431251069E-04
(PID.TID 0000.0001)  cg2d: iter=    42 ; resid.=  1.09781331758384E-04
(PID.TID 0000.0001)  cg2d: iter=    43 ; resid.=  9.87126627017129E-05
(PID.TID 0000.0001)  cg2d: iter=    44 ; resid.=  8.14647906946356E-05
(PID.TID 0000.0001)  cg2d: iter=    45 ; resid.=  6.79036112465778E-05
(PID.TID 0000.0001)  cg2d: iter=    46 ; resid.=  5.80934500700338E-05
(PID.TID 0000.0001)  cg2d: iter=    47 ; resid.=  4.92919018819608E-05
(PID.TID 0000.0001)  cg2d: iter=    48 ; resid.=  4.18608606931203E-05
(PID.TID 0000.0001)  cg2d: iter=    49 ; resid.=  3.28841730255997E-05
(PID.TID 0000.0001)  cg2d: iter=    50 ; resid.=  2.53402425248482E-05
(PID.TID 0000.0001)  cg2d: iter=    51 ; resid.=  1.93361980446564E-05
(PID.TID 0000.0001)  cg2d: iter=    52 ; resid.=  1.43810212407693E-05
(PID.TID 0000.0001)  cg2d: iter=    53 ; resid.=  1.21441928958312E-05
(PID.TID 0000.0001)  cg2d: iter=    54 ; resid.=  9.89800047396917E-06
(PID.TID 0000.0001)  cg2d: iter=    55 ; resid.=  8.47274038036668E-06
(PID.TID 0000.0001)  cg2d: iter=    56 ; resid.=  6.87653763924870E-06
(PID.TID 0000.0001)  cg2d: iter=    57 ; resid.=  5.39691805351457E-06
(PID.TID 0000.0001)  cg2d: iter=    58 ; resid.=  4.18481264439432E-06
(PID.TID 0000.0001)  cg2d: iter=    59 ; resid.=  3.22197410088101E-06
(PID.TID 0000.0001)  cg2d: iter=    60 ; resid.=  2.46050642371019E-06
(PID.TID 0000.0001)  cg2d: iter=    61 ; resid.=  1.93266757619504E-06
(PID.TID 0000.0001)  cg2d: iter=    62 ; resid.=  1.50052143702179E-06
(PID.TID 0000.0001)  cg2d: iter=    63 ; resid.=  1.18997209370768E-06
(PID.TID 0000.0001)  cg2d: iter=    64 ; resid.=  9.11563275416279E-07
(PID.TID 0000.0001)  cg2d: iter=    65 ; resid.=  7.48961113171759E-07
(PID.TID 0000.0001)  cg2d: iter=    66 ; resid.=  6.24195806633873E-07
(PID.TID 0000.0001)  cg2d: iter=    67 ; resid.=  5.91631343185152E-07
(PID.TID 0000.0001)  cg2d: iter=    68 ; resid.=  5.31536900233427E-07
(PID.TID 0000.0001)  cg2d: iter=    69 ; resid.=  4.56096045628016E-07
(PID.TID 0000.0001)  cg2d: iter=    70 ; resid.=  3.77994060320346E-07
(PID.TID 0000.0001)  cg2d: iter=    71 ; resid.=  3.39618456971073E-07
(PID.TID 0000.0001)  cg2d: iter=    72 ; resid.=  3.02140756658567E-07
(PID.TID 0000.0001)  cg2d: iter=    73 ; resid.=  2.46692128272578E-07
(PID.TID 0000.0001)  cg2d: iter=    74 ; resid.=  1.83255042497176E-07
(PID.TID 0000.0001)  cg2d: iter=    75 ; resid.=  1.33004121910857E-07
(PID.TID 0000.0001)  cg2d: iter=    76 ; resid.=  9.92813803943308E-08
(PID.TID 0000.0001)  cg2d: iter=    77 ; resid.=  7.54407848257505E-08
(PID.TID 0000.0001)  cg2d: iter=    78 ; resid.=  5.71529170765382E-08
(PID.TID 0000.0001)  cg2d: iter=    79 ; resid.=  4.73078372835663E-08
(PID.TID 0000.0001)  cg2d: iter=    80 ; resid.=  3.98029047201412E-08
(PID.TID 0000.0001)  cg2d: iter=    81 ; resid.=  3.24759368618503E-08
(PID.TID 0000.0001)  cg2d: iter=    82 ; resid.=  2.62441568426140E-08
(PID.TID 0000.0001)  cg2d: iter=    83 ; resid.=  2.02575829689716E-08
(PID.TID 0000.0001)  cg2d: iter=    84 ; resid.=  1.59665938623840E-08
(PID.TID 0000.0001)  cg2d: iter=    85 ; resid.=  1.14684981289482E-08
(PID.TID 0000.0001)  cg2d: iter=    86 ; resid.=  8.82347869569185E-09
(PID.TID 0000.0001)  cg2d: iter=    87 ; resid.=  6.41831744474007E-09
(PID.TID 0000.0001)  cg2d: iter=    88 ; resid.=  4.56659089732511E-09
(PID.TID 0000.0001)  cg2d: iter=    89 ; resid.=  3.40122448316508E-09
(PID.TID 0000.0001)  cg2d: iter=    90 ; resid.=  3.09343945279352E-09
(PID.TID 0000.0001)  cg2d: iter=    91 ; resid.=  2.61644355387732E-09
(PID.TID 0000.0001)  cg2d: iter=    92 ; resid.=  2.15019767131003E-09
(PID.TID 0000.0001)  cg2d: iter=    93 ; resid.=  1.73040369880757E-09
(PID.TID 0000.0001)  cg2d: iter=    94 ; resid.=  1.42235606845574E-09
(PID.TID 0000.0001)  cg2d: iter=    95 ; resid.=  1.28735295716874E-09
(PID.TID 0000.0001)  cg2d: iter=    96 ; resid.=  1.03141724318992E-09
(PID.TID 0000.0001)  cg2d: iter=    97 ; resid.=  7.57796092979673E-10
(PID.TID 0000.0001)  cg2d: iter=    98 ; resid.=  5.34686780597043E-10
(PID.TID 0000.0001)  cg2d: iter=    99 ; resid.=  4.06571096144444E-10
(PID.TID 0000.0001)  cg2d: iter=   100 ; resid.=  3.32890044264739E-10
(PID.TID 0000.0001)  cg2d: iter=   101 ; resid.=  2.57884281557382E-10
(PID.TID 0000.0001)  cg2d: iter=   102 ; resid.=  1.91834122617021E-10
(PID.TID 0000.0001)  cg2d: iter=   103 ; resid.=  1.41090560274433E-10
(PID.TID 0000.0001)  cg2d: iter=   104 ; resid.=  1.12602266970406E-10
(PID.TID 0000.0001)  cg2d: iter=   105 ; resid.=  9.16000018534769E-11
(PID.TID 0000.0001)  cg2d: iter=   106 ; resid.=  7.62686708317123E-11
(PID.TID 0000.0001)  cg2d: iter=   107 ; resid.=  5.80644893865251E-11
(PID.TID 0000.0001)  cg2d: iter=   108 ; resid.=  4.89516802756280E-11
(PID.TID 0000.0001)  cg2d: iter=   109 ; resid.=  4.01994957049466E-11
(PID.TID 0000.0001)  cg2d: iter=   110 ; resid.=  3.18802063843056E-11
(PID.TID 0000.0001)  cg2d: iter=   111 ; resid.=  2.72962518348080E-11
(PID.TID 0000.0001)  cg2d: iter=   112 ; resid.=  2.25748484595774E-11
(PID.TID 0000.0001)  cg2d: iter=   113 ; resid.=  1.88910099557442E-11
(PID.TID 0000.0001)  cg2d: iter=   114 ; resid.=  1.65427712669487E-11
(PID.TID 0000.0001)  cg2d: iter=   115 ; resid.=  1.33323014346631E-11
(PID.TID 0000.0001)  cg2d: iter=   116 ; resid.=  1.02761136503246E-11
(PID.TID 0000.0001)  cg2d: iter=   117 ; resid.=  8.15434386117230E-12
(PID.TID 0000.0001)  cg2d: iter=   118 ; resid.=  6.33363732920259E-12
(PID.TID 0000.0001)  cg2d: iter=   119 ; resid.=  4.77188629013445E-12
(PID.TID 0000.0001)  cg2d: iter=   120 ; resid.=  3.63107497867071E-12
(PID.TID 0000.0001)  cg2d: iter=   121 ; resid.=  2.57144890117410E-12
(PID.TID 0000.0001)  cg2d: iter=   122 ; resid.=  2.05549349549390E-12
(PID.TID 0000.0001)  cg2d: iter=   123 ; resid.=  1.74262408439106E-12
(PID.TID 0000.0001)  cg2d: iter=   124 ; resid.=  1.41934799367390E-12
(PID.TID 0000.0001)  cg2d: iter=   125 ; resid.=  1.16330093738526E-12
(PID.TID 0000.0001)  cg2d: iter=   126 ; resid.=  8.44484140561812E-13
(PID.TID 0000.0001)  cg2d: iter=   127 ; resid.=  6.32667172592088E-13
(PID.TID 0000.0001)  cg2d: iter=   128 ; resid.=  4.62678426820212E-13
(PID.TID 0000.0001)  cg2d: iter=   129 ; resid.=  3.20024161903686E-13
(PID.TID 0000.0001)  cg2d: iter=   130 ; resid.=  2.51600615180488E-13
(PID.TID 0000.0001)  cg2d: iter=   131 ; resid.=  1.91127488129407E-13
(PID.TID 0000.0001)  cg2d: iter=   132 ; resid.=  1.43025615623815E-13
(PID.TID 0000.0001)  cg2d: iter=   133 ; resid.=  1.03029960624274E-13
(PID.TID 0000.0001)  cg2d: iter=   134 ; resid.=  7.57432470378514E-14
DEBUG_STATS_RL:    cg2d_x (SOLVE_FOR_PRESSURE)  min= -1.94435275364956E+01
DEBUG_STATS_RL:    cg2d_x (SOLVE_FOR_PRESSURE)  max=  8.31275250218587E+00
DEBUG_STATS_RL:    cg2d_x (SOLVE_FOR_PRESSURE) mean= -1.65008351491302E+00
DEBUG_STATS_RL:    cg2d_x (SOLVE_FOR_PRESSURE) S.D.=  6.76705595447238E+00
(PID.TID 0000.0001)      cg2d_init_res =   3.10533523395810E-01
(PID.TID 0000.0001)      cg2d_iters(min,last) =      -1     134
(PID.TID 0000.0001)      cg2d_last_res =   7.57432470378514E-14
(PID.TID 0000.0001) // =======================================================
(PID.TID 0000.0001) // Begin MONITOR dynamic field statistics
(PID.TID 0000.0001) // =======================================================
(PID.TID 0000.0001) %MON time_tsnumber                =                    61
(PID.TID 0000.0001) %MON time_secondsf                =   5.2704000000000E+06
(PID.TID 0000.0001) %MON dynstat_eta_max              =   8.4737538248577E-01
(PID.TID 0000.0001) %MON dynstat_eta_min              =  -1.9820109619262E+00
(PID.TID 0000.0001) %MON dynstat_eta_mean             =  -4.5228848679426E-03
(PID.TID 0000.0001) %MON dynstat_eta_sd               =   5.8631809994988E-01
(PID.TID 0000.0001) %MON dynstat_eta_del2             =   2.3927418631755E-03
(PID.TID 0000.0001) %MON dynstat_uvel_max             =   1.3291583803747E-01
(PID.TID 0000.0001) %MON dynstat_uvel_min             =  -1.3311896638255E-01
(PID.TID 0000.0001) %MON dynstat_uvel_mean            =   2.1026901575751E-03
(PID.TID 0000.0001) %MON dynstat_uvel_sd              =   1.6525710816047E-02
(PID.TID 0000.0001) %MON dynstat_uvel_del2            =   1.0267999407576E-04
(PID.TID 0000.0001) %MON dynstat_vvel_max             =   1.3852849568829E-01
(PID.TID 0000.0001) %MON dynstat_vvel_min             =  -9.8673284273461E-02
(PID.TID 0000.0001) %MON dynstat_vvel_mean            =   1.6812007853823E-04
(PID.TID 0000.0001) %MON dynstat_vvel_sd              =   1.0000276338624E-02
(PID.TID 0000.0001) %MON dynstat_vvel_del2            =   8.0711989330717E-05
(PID.TID 0000.0001) %MON dynstat_wvel_max             =   1.0229453233893E-04
(PID.TID 0000.0001) %MON dynstat_wvel_min             =  -9.2742885660684E-05
(PID.TID 0000.0001) %MON dynstat_wvel_mean            =  -5.0828221109336E-23
(PID.TID 0000.0001) %MON dynstat_wvel_sd              =   1.3828346559112E-05
(PID.TID 0000.0001) %MON dynstat_wvel_del2            =   1.3741905915487E-07
(PID.TID 0000.0001) %MON dynstat_theta_max            =   3.0617695160382E+01
(PID.TID 0000.0001) %MON dynstat_theta_min            =  -1.9651489417946E+00
(PID.TID 0000.0001) %MON dynstat_theta_mean           =   3.6432585412173E+00
(PID.TID 0000.0001) %MON dynstat_theta_sd             =   4.4240381158125E+00
(PID.TID 0000.0001) %MON dynstat_theta_del2           =   4.9128292398668E-03
(PID.TID 0000.0001) %MON dynstat_salt_max             =   3.7486553580017E+01
(PID.TID 0000.0001) %MON dynstat_salt_min             =   2.9897753967086E+01
(PID.TID 0000.0001) %MON dynstat_salt_mean            =   3.4737961923162E+01
(PID.TID 0000.0001) %MON dynstat_salt_sd              =   2.9639184974607E-01
(PID.TID 0000.0001) %MON dynstat_salt_del2            =   9.9123432524808E-04
(PID.TID 0000.0001) %MON dynstat_sst_max              =   3.0617695160382E+01
(PID.TID 0000.0001) %MON dynstat_sst_min              =  -1.9651489417946E+00
(PID.TID 0000.0001) %MON dynstat_sst_mean             =   1.9014324373400E+01
(PID.TID 0000.0001) %MON dynstat_sst_sd               =   9.0677474026926E+00
(PID.TID 0000.0001) %MON dynstat_sst_del2             =   2.8039656229368E-02
(PID.TID 0000.0001) %MON dynstat_sss_max              =   3.7464405549274E+01
(PID.TID 0000.0001) %MON dynstat_sss_min              =   2.9897753967086E+01
(PID.TID 0000.0001) %MON dynstat_sss_mean             =   3.4860248009931E+01
(PID.TID 0000.0001) %MON dynstat_sss_sd               =   9.8091292040975E-01
(PID.TID 0000.0001) %MON dynstat_sss_del2             =   8.0135845718209E-03
(PID.TID 0000.0001) %MON forcing_qnet_max             =   3.1647996520996E+02
(PID.TID 0000.0001) %MON forcing_qnet_min             =  -1.6834477996826E+02
(PID.TID 0000.0001) %MON forcing_qnet_mean            =  -1.0615158484544E+01
(PID.TID 0000.0001) %MON forcing_qnet_sd              =   5.9847119932196E+01
(PID.TID 0000.0001) %MON forcing_qnet_del2            =   8.8105768488919E-01
(PID.TID 0000.0001) %MON forcing_qsw_max              =   0.0000000000000E+00
(PID.TID 0000.0001) %MON forcing_qsw_min              =   0.0000000000000E+00
(PID.TID 0000.0001) %MON forcing_qsw_mean             =   0.0000000000000E+00
(PID.TID 0000.0001) %MON forcing_qsw_sd               =   0.0000000000000E+00
(PID.TID 0000.0001) %MON forcing_qsw_del2             =   0.0000000000000E+00
(PID.TID 0000.0001) %MON forcing_empmr_max            =   6.9195166929603E-05
(PID.TID 0000.0001) %MON forcing_empmr_min            =  -7.7276723686737E-05
(PID.TID 0000.0001) %MON forcing_empmr_mean           =   7.4706001679403E-07
(PID.TID 0000.0001) %MON forcing_empmr_sd             =   2.6871436583064E-05
(PID.TID 0000.0001) %MON forcing_empmr_del2           =   3.5417501506189E-07
(PID.TID 0000.0001) %MON forcing_fu_max               =   3.2843016088009E-01
(PID.TID 0000.0001) %MON forcing_fu_min               =  -2.9650179296732E-01
(PID.TID 0000.0001) %MON forcing_fu_mean              =   1.9043735458512E-02
(PID.TID 0000.0001) %MON forcing_fu_sd                =   9.5329430846208E-02
(PID.TID 0000.0001) %MON forcing_fu_del2              =   7.1458713394150E-04
(PID.TID 0000.0001) %MON forcing_fv_max               =   1.5295380353928E-01
(PID.TID 0000.0001) %MON forcing_fv_min               =  -1.7738871276379E-01
(PID.TID 0000.0001) %MON forcing_fv_mean              =  -7.3731501905024E-03
(PID.TID 0000.0001) %MON forcing_fv_sd                =   4.1902694266275E-02
(PID.TID 0000.0001) %MON forcing_fv_del2              =   4.6838107518311E-04
(PID.TID 0000.0001) %MON trAdv_CFL_u_max              =   4.1299020355596E-02
(PID.TID 0000.0001) %MON trAdv_CFL_v_max              =   2.7065326263733E-02
(PID.TID 0000.0001) %MON trAdv_CFL_w_max              =   3.3353346740459E-02
(PID.TID 0000.0001) %MON advcfl_uvel_max              =   4.1394243403191E-02
(PID.TID 0000.0001) %MON advcfl_vvel_max              =   2.6913864982273E-02
(PID.TID 0000.0001) %MON advcfl_wvel_max              =   3.7437236120451E-02
(PID.TID 0000.0001) %MON advcfl_W_hf_max              =   4.5459501003404E-02
(PID.TID 0000.0001) %MON pe_b_mean                    =   4.3991993786559E-04
(PID.TID 0000.0001) %MON ke_max                       =   1.5766816778420E-02
(PID.TID 0000.0001) %MON ke_mean                      =   1.7099128235088E-04
(PID.TID 0000.0001) %MON ke_vol                       =   1.3226782436723E+18
(PID.TID 0000.0001) %MON vort_r_min                   =  -4.0227048169282E-07
(PID.TID 0000.0001) %MON vort_r_max                   =   4.7333360849367E-07
(PID.TID 0000.0001) %MON vort_a_mean                  =  -2.5274807678636E-05
(PID.TID 0000.0001) %MON vort_a_sd                    =   7.3604561385757E-05
(PID.TID 0000.0001) %MON vort_p_mean                  =  -3.1845656153759E-05
(PID.TID 0000.0001) %MON vort_p_sd                    =   1.3162404000523E-04
(PID.TID 0000.0001) %MON surfExpan_theta_mean         =   1.9537460478807E-07
(PID.TID 0000.0001) %MON surfExpan_salt_mean          =  -1.3221409116091E-08
(PID.TID 0000.0001) // =======================================================
(PID.TID 0000.0001) // End MONITOR dynamic field statistics
(PID.TID 0000.0001) // =======================================================
 EXTERNAL_FIELDS_LOAD,        61 : iP,iLd,i0,i1=    2    3    2    3 ; Wght=  0.4666666667  0.5333333333
 EXTERNAL_FIELDS_LOAD: (fu0,1),fu,fv= -1.4435E-02 -2.7199E-02 -2.1242E-02 -8.5382E-03
 EXTERNAL_FIELDS_LOAD: SST,SSS,Q,E-P= -3.4628E-01  3.4505E+01  2.2710E+02  8.7524E-06
DEBUG_STATS_RL:          Uvel (THERMODYNAMICS)  min= -1.33118966382546E-01
DEBUG_STATS_RL:          Uvel (THERMODYNAMICS)  max=  1.32915838037472E-01
DEBUG_STATS_RL:          Uvel (THERMODYNAMICS) mean=  5.76970642219308E-03
DEBUG_STATS_RL:          Uvel (THERMODYNAMICS) S.D.=  2.31157482034333E-02
DEBUG_STATS_RL:          Vvel (THERMODYNAMICS)  min= -9.86732842734613E-02
DEBUG_STATS_RL:          Vvel (THERMODYNAMICS)  max=  1.38528495688291E-01
DEBUG_STATS_RL:          Vvel (THERMODYNAMICS) mean=  7.83915098536274E-04
DEBUG_STATS_RL:          Vvel (THERMODYNAMICS) S.D.=  1.50594688757196E-02
DEBUG_STATS_RL:          Wvel (THERMODYNAMICS)  min= -9.27428856606839E-05
DEBUG_STATS_RL:          Wvel (THERMODYNAMICS)  max=  1.02294532338931E-04
DEBUG_STATS_RL:          Wvel (THERMODYNAMICS) mean= -1.25032027472493E-07
DEBUG_STATS_RL:          Wvel (THERMODYNAMICS) S.D.=  1.19802982341804E-05
DEBUG_STATS_RL:         Theta (THERMODYNAMICS)  min= -1.96357526183458E+00
DEBUG_STATS_RL:         Theta (THERMODYNAMICS)  max=  3.06401165328364E+01
DEBUG_STATS_RL:         Theta (THERMODYNAMICS) mean=  3.23968564050070E+00
DEBUG_STATS_RL:         Theta (THERMODYNAMICS) S.D.=  5.87830051826784E+00
DEBUG_STATS_RL:          Salt (THERMODYNAMICS)  min=  2.00000000000000E-02
DEBUG_STATS_RL:          Salt (THERMODYNAMICS)  max=  3.74867753609936E+01
DEBUG_STATS_RL:          Salt (THERMODYNAMICS) mean=  1.88647908588854E+01
DEBUG_STATS_RL:          Salt (THERMODYNAMICS) S.D.=  1.73003238462297E+01
DEBUG_STATS_RL:         GtNm1 (THERMODYNAMICS)  min= -3.02676026784807E-06
DEBUG_STATS_RL:         GtNm1 (THERMODYNAMICS)  max=  1.90352067544149E-06
DEBUG_STATS_RL:         GtNm1 (THERMODYNAMICS) mean=  3.54205915402209E-09
DEBUG_STATS_RL:         GtNm1 (THERMODYNAMICS) S.D.=  1.72380302050708E-07
DEBUG_STATS_RL:         GsNm1 (THERMODYNAMICS)  min= -3.90677093002497E-07
DEBUG_STATS_RL:         GsNm1 (THERMODYNAMICS)  max=  2.71774268093098E-07
DEBUG_STATS_RL:         GsNm1 (THERMODYNAMICS) mean= -4.18872370756945E-10
DEBUG_STATS_RL:         GsNm1 (THERMODYNAMICS) S.D.=  1.72040618223213E-08
DEBUG_STATS_RL:                EtaN (DYNAMICS)  min= -1.98201096192619E+00
DEBUG_STATS_RL:                EtaN (DYNAMICS)  max=  8.47375382485774E-01
DEBUG_STATS_RL:                EtaN (DYNAMICS) mean= -1.68204231897352E-01
DEBUG_STATS_RL:                EtaN (DYNAMICS) S.D.=  6.89812023901367E-01
DEBUG_STATS_RL:                Uvel (DYNAMICS)  min= -1.33118966382546E-01
DEBUG_STATS_RL:                Uvel (DYNAMICS)  max=  1.32915838037472E-01
DEBUG_STATS_RL:                Uvel (DYNAMICS) mean=  5.76970642219308E-03
DEBUG_STATS_RL:                Uvel (DYNAMICS) S.D.=  2.31157482034333E-02
DEBUG_STATS_RL:                Vvel (DYNAMICS)  min= -9.86732842734613E-02
DEBUG_STATS_RL:                Vvel (DYNAMICS)  max=  1.38528495688291E-01
DEBUG_STATS_RL:                Vvel (DYNAMICS) mean=  7.83915098536274E-04
DEBUG_STATS_RL:                Vvel (DYNAMICS) S.D.=  1.50594688757196E-02
DEBUG_STATS_RL:                Wvel (DYNAMICS)  min= -9.27428856606839E-05
DEBUG_STATS_RL:                Wvel (DYNAMICS)  max=  1.02294532338931E-04
DEBUG_STATS_RL:                Wvel (DYNAMICS) mean= -1.25032027472493E-07
DEBUG_STATS_RL:                Wvel (DYNAMICS) S.D.=  1.19802982341804E-05
DEBUG_STATS_RL:               Theta (DYNAMICS)  min= -1.96357526183458E+00
DEBUG_STATS_RL:               Theta (DYNAMICS)  max=  3.06401165328364E+01
DEBUG_STATS_RL:               Theta (DYNAMICS) mean=  3.23968564050070E+00
DEBUG_STATS_RL:               Theta (DYNAMICS) S.D.=  5.87830051826784E+00
DEBUG_STATS_RL:                Salt (DYNAMICS)  min=  2.00000000000000E-02
DEBUG_STATS_RL:                Salt (DYNAMICS)  max=  3.74867753609936E+01
DEBUG_STATS_RL:                Salt (DYNAMICS) mean=  1.88647908588854E+01
DEBUG_STATS_RL:                Salt (DYNAMICS) S.D.=  1.73003238462297E+01
DEBUG_STATS_RL:                  Gu (DYNAMICS)  min= -1.32700594684283E-01
DEBUG_STATS_RL:                  Gu (DYNAMICS)  max=  1.34873068742616E-01
DEBUG_STATS_RL:                  Gu (DYNAMICS) mean=  5.76758973648735E-03
DEBUG_STATS_RL:                  Gu (DYNAMICS) S.D.=  2.35495750330174E-02
DEBUG_STATS_RL:                  Gv (DYNAMICS)  min= -1.01202381961092E-01
DEBUG_STATS_RL:                  Gv (DYNAMICS)  max=  1.39717732202831E-01
DEBUG_STATS_RL:                  Gv (DYNAMICS) mean=  3.33183787353937E-03
DEBUG_STATS_RL:                  Gv (DYNAMICS) S.D.=  1.62202381370664E-02
DEBUG_STATS_RL:               GuNm1 (DYNAMICS)  min= -9.89955735866420E-06
DEBUG_STATS_RL:               GuNm1 (DYNAMICS)  max=  9.42590023815760E-06
DEBUG_STATS_RL:               GuNm1 (DYNAMICS) mean=  8.24771550715596E-09
DEBUG_STATS_RL:               GuNm1 (DYNAMICS) S.D.=  1.20289797573522E-06
DEBUG_STATS_RL:               GvNm1 (DYNAMICS)  min= -1.00165918158401E-05
DEBUG_STATS_RL:               GvNm1 (DYNAMICS)  max=  1.58507016052612E-05
DEBUG_STATS_RL:               GvNm1 (DYNAMICS) mean=  7.43669800283811E-07
DEBUG_STATS_RL:               GvNm1 (DYNAMICS) S.D.=  2.65282659383699E-06
DEBUG_STATS_RL:               GtNm1 (DYNAMICS)  min= -3.02676026784807E-06
DEBUG_STATS_RL:               GtNm1 (DYNAMICS)  max=  1.90352067544149E-06
DEBUG_STATS_RL:               GtNm1 (DYNAMICS) mean=  3.54205915402209E-09
DEBUG_STATS_RL:               GtNm1 (DYNAMICS) S.D.=  1.72380302050708E-07
DEBUG_STATS_RL:               GsNm1 (DYNAMICS)  min= -3.90677093002497E-07
DEBUG_STATS_RL:               GsNm1 (DYNAMICS)  max=  2.71774268093098E-07
DEBUG_STATS_RL:               GsNm1 (DYNAMICS) mean= -4.18872370756945E-10
DEBUG_STATS_RL:               GsNm1 (DYNAMICS) S.D.=  1.72040618223213E-08
DEBUG_STATS_RL:    cg2d_b (SOLVE_FOR_PRESSURE)  min= -1.94859773085019E+04
DEBUG_STATS_RL:    cg2d_b (SOLVE_FOR_PRESSURE)  max=  2.58634763593146E+04
DEBUG_STATS_RL:    cg2d_b (SOLVE_FOR_PRESSURE) mean=  4.39357949220581E+00
DEBUG_STATS_RL:    cg2d_b (SOLVE_FOR_PRESSURE) S.D.=  3.94796852095411E+03
 cg2d: Sum(rhs),rhsMax =   3.93262544568740E-01  1.69878237481638E+00
(PID.TID 0000.0001)  cg2d: iter=     1 ; resid.=  1.54979126125873E-01
(PID.TID 0000.0001)  cg2d: iter=     2 ; resid.=  1.30907458947129E-01
(PID.TID 0000.0001)  cg2d: iter=     3 ; resid.=  1.17450606448024E-01
(PID.TID 0000.0001)  cg2d: iter=     4 ; resid.=  1.04655144051180E-01
(PID.TID 0000.0001)  cg2d: iter=     5 ; resid.=  8.00851346102611E-02
(PID.TID 0000.0001)  cg2d: iter=     6 ; resid.=  6.23942869960976E-02
(PID.TID 0000.0001)  cg2d: iter=     7 ; resid.=  5.70581714180781E-02
(PID.TID 0000.0001)  cg2d: iter=     8 ; resid.=  5.44728335874862E-02
(PID.TID 0000.0001)  cg2d: iter=     9 ; resid.=  4.56403090328142E-02
(PID.TID 0000.0001)  cg2d: iter=    10 ; resid.=  4.03014172393358E-02
(PID.TID 0000.0001)  cg2d: iter=    11 ; resid.=  3.45558738884732E-02
(PID.TID 0000.0001)  cg2d: iter=    12 ; resid.=  2.87234512483948E-02
(PID.TID 0000.0001)  cg2d: iter=    13 ; resid.=  2.29476411751213E-02
(PID.TID 0000.0001)  cg2d: iter=    14 ; resid.=  1.85810254949380E-02
(PID.TID 0000.0001)  cg2d: iter=    15 ; resid.=  1.54352782216029E-02
(PID.TID 0000.0001)  cg2d: iter=    16 ; resid.=  1.23915304720350E-02
(PID.TID 0000.0001)  cg2d: iter=    17 ; resid.=  1.06096575605976E-02
(PID.TID 0000.0001)  cg2d: iter=    18 ; resid.=  8.67450609970571E-03
(PID.TID 0000.0001)  cg2d: iter=    19 ; resid.=  7.22726425398839E-03
(PID.TID 0000.0001)  cg2d: iter=    20 ; resid.=  6.29611027274388E-03
(PID.TID 0000.0001)  cg2d: iter=    21 ; resid.=  5.61304688915245E-03
(PID.TID 0000.0001)  cg2d: iter=    22 ; resid.=  4.87517754480119E-03
(PID.TID 0000.0001)  cg2d: iter=    23 ; resid.=  3.91056288682070E-03
(PID.TID 0000.0001)  cg2d: iter=    24 ; resid.=  3.32378637095375E-03
(PID.TID 0000.0001)  cg2d: iter=    25 ; resid.=  2.73693514339685E-03
(PID.TID 0000.0001)  cg2d: iter=    26 ; resid.=  2.21250066179405E-03
(PID.TID 0000.0001)  cg2d: iter=    27 ; resid.=  1.90448586287029E-03
(PID.TID 0000.0001)  cg2d: iter=    28 ; resid.=  1.64048903287908E-03
(PID.TID 0000.0001)  cg2d: iter=    29 ; resid.=  1.39755507276778E-03
(PID.TID 0000.0001)  cg2d: iter=    30 ; resid.=  1.10391036189214E-03
(PID.TID 0000.0001)  cg2d: iter=    31 ; resid.=  8.90393805107464E-04
(PID.TID 0000.0001)  cg2d: iter=    32 ; resid.=  6.78485390163783E-04
(PID.TID 0000.0001)  cg2d: iter=    33 ; resid.=  5.88256849711980E-04
(PID.TID 0000.0001)  cg2d: iter=    34 ; resid.=  5.15546439083493E-04
(PID.TID 0000.0001)  cg2d: iter=    35 ; resid.=  4.23144729338336E-04
(PID.TID 0000.0001)  cg2d: iter=    36 ; resid.=  3.39156253264757E-04
(PID.TID 0000.0001)  cg2d: iter=    37 ; resid.=  2.70127522778751E-04
(PID.TID 0000.0001)  cg2d: iter=    38 ; resid.=  2.19602009115754E-04
(PID.TID 0000.0001)  cg2d: iter=    39 ; resid.=  1.91351417362925E-04
(PID.TID 0000.0001)  cg2d: iter=    40 ; resid.=  1.66725370365025E-04
(PID.TID 0000.0001)  cg2d: iter=    41 ; resid.=  1.50818209463352E-04
(PID.TID 0000.0001)  cg2d: iter=    42 ; resid.=  1.41769122267534E-04
(PID.TID 0000.0001)  cg2d: iter=    43 ; resid.=  1.24345164226323E-04
(PID.TID 0000.0001)  cg2d: iter=    44 ; resid.=  9.94885831271588E-05
(PID.TID 0000.0001)  cg2d: iter=    45 ; resid.=  8.18676456807835E-05
(PID.TID 0000.0001)  cg2d: iter=    46 ; resid.=  6.78862505218104E-05
(PID.TID 0000.0001)  cg2d: iter=    47 ; resid.=  5.57995726488346E-05
(PID.TID 0000.0001)  cg2d: iter=    48 ; resid.=  4.61399516581420E-05
(PID.TID 0000.0001)  cg2d: iter=    49 ; resid.=  3.67933350734073E-05
(PID.TID 0000.0001)  cg2d: iter=    50 ; resid.=  2.92462874169990E-05
(PID.TID 0000.0001)  cg2d: iter=    51 ; resid.=  2.30851034696901E-05
(PID.TID 0000.0001)  cg2d: iter=    52 ; resid.=  1.77429424327767E-05
(PID.TID 0000.0001)  cg2d: iter=    53 ; resid.=  1.56470897553229E-05
(PID.TID 0000.0001)  cg2d: iter=    54 ; resid.=  1.31652328678797E-05
(PID.TID 0000.0001)  cg2d: iter=    55 ; resid.=  1.15717005192298E-05
(PID.TID 0000.0001)  cg2d: iter=    56 ; resid.=  9.24985812799312E-06
(PID.TID 0000.0001)  cg2d: iter=    57 ; resid.=  7.26847942405600E-06
(PID.TID 0000.0001)  cg2d: iter=    58 ; resid.=  5.72380735027729E-06
(PID.TID 0000.0001)  cg2d: iter=    59 ; resid.=  4.37312874153831E-06
(PID.TID 0000.0001)  cg2d: iter=    60 ; resid.=  3.41892497948062E-06
(PID.TID 0000.0001)  cg2d: iter=    61 ; resid.=  2.68180834040201E-06
(PID.TID 0000.0001)  cg2d: iter=    62 ; resid.=  2.05840741416420E-06
(PID.TID 0000.0001)  cg2d: iter=    63 ; resid.=  1.60819814613083E-06
(PID.TID 0000.0001)  cg2d: iter=    64 ; resid.=  1.21062352366367E-06
(PID.TID 0000.0001)  cg2d: iter=    65 ; resid.=  9.72273756859900E-07
(PID.TID 0000.0001)  cg2d: iter=    66 ; resid.=  7.52532394596806E-07
(PID.TID 0000.0001)  cg2d: iter=    67 ; resid.=  6.43619834324242E-07
(PID.TID 0000.0001)  cg2d: iter=    68 ; resid.=  5.28941233502448E-07
(PID.TID 0000.0001)  cg2d: iter=    69 ; resid.=  4.07977129664816E-07
(PID.TID 0000.0001)  cg2d: iter=    70 ; resid.=  3.02800231210950E-07
(PID.TID 0000.0001)  cg2d: iter=    71 ; resid.=  2.43884048567678E-07
(PID.TID 0000.0001)  cg2d: iter=    72 ; resid.=  2.01137882869371E-07
(PID.TID 0000.0001)  cg2d: iter=    73 ; resid.=  1.60170186642582E-07
(PID.TID 0000.0001)  cg2d: iter=    74 ; resid.=  1.19981720296398E-07
(PID.TID 0000.0001)  cg2d: iter=    75 ; resid.=  8.74975171837129E-08
(PID.TID 0000.0001)  cg2d: iter=    76 ; resid.=  6.55260654505030E-08
(PID.TID 0000.0001)  cg2d: iter=    77 ; resid.=  4.83010109932227E-08
(PID.TID 0000.0001)  cg2d: iter=    78 ; resid.=  3.45753403177454E-08
(PID.TID 0000.0001)  cg2d: iter=    79 ; resid.=  2.70468572288331E-08
(PID.TID 0000.0001)  cg2d: iter=    80 ; resid.=  2.25220173772411E-08
(PID.TID 0000.0001)  cg2d: iter=    81 ; resid.=  1.83892027465932E-08
(PID.TID 0000.0001)  cg2d: iter=    82 ; resid.=  1.50043251100148E-08
(PID.TID 0000.0001)  cg2d: iter=    83 ; resid.=  1.17472196127905E-08
(PID.TID 0000.0001)  cg2d: iter=    84 ; resid.=  9.82321938335564E-09
(PID.TID 0000.0001)  cg2d: iter=    85 ; resid.=  7.56410021061384E-09
(PID.TID 0000.0001)  cg2d: iter=    86 ; resid.=  6.18622615722136E-09
(PID.TID 0000.0001)  cg2d: iter=    87 ; resid.=  4.77954138847171E-09
(PID.TID 0000.0001)  cg2d: iter=    88 ; resid.=  3.65829442433815E-09
(PID.TID 0000.0001)  cg2d: iter=    89 ; resid.=  3.12273510515240E-09
(PID.TID 0000.0001)  cg2d: iter=    90 ; resid.=  3.24214907586773E-09
(PID.TID 0000.0001)  cg2d: iter=    91 ; resid.=  2.92342557274718E-09
(PID.TID 0000.0001)  cg2d: iter=    92 ; resid.=  2.45357760129124E-09
(PID.TID 0000.0001)  cg2d: iter=    93 ; resid.=  1.97401769045326E-09
(PID.TID 0000.0001)  cg2d: iter=    94 ; resid.=  1.66323432843695E-09
(PID.TID 0000.0001)  cg2d: iter=    95 ; resid.=  1.45602025075983E-09
(PID.TID 0000.0001)  cg2d: iter=    96 ; resid.=  1.12462674973040E-09
(PID.TID 0000.0001)  cg2d: iter=    97 ; resid.=  8.06017658700149E-10
(PID.TID 0000.0001)  cg2d: iter=    98 ; resid.=  5.73564044799107E-10
(PID.TID 0000.0001)  cg2d: iter=    99 ; resid.=  4.55820944299259E-10
(PID.TID 0000.0001)  cg2d: iter=   100 ; resid.=  3.82162651957660E-10
(PID.TID 0000.0001)  cg2d: iter=   101 ; resid.=  2.98083518400205E-10
(PID.TID 0000.0001)  cg2d: iter=   102 ; resid.=  2.18747260305871E-10
(PID.TID 0000.0001)  cg2d: iter=   103 ; resid.=  1.56301401150260E-10
(PID.TID 0000.0001)  cg2d: iter=   104 ; resid.=  1.24154558655869E-10
(PID.TID 0000.0001)  cg2d: iter=   105 ; resid.=  1.00484091561079E-10
(PID.TID 0000.0001)  cg2d: iter=   106 ; resid.=  8.22802122324274E-11
(PID.TID 0000.0001)  cg2d: iter=   107 ; resid.=  6.34490147415557E-11
(PID.TID 0000.0001)  cg2d: iter=   108 ; resid.=  5.45640379477955E-11
(PID.TID 0000.0001)  cg2d: iter=   109 ; resid.=  4.69605288737510E-11
(PID.TID 0000.0001)  cg2d: iter=   110 ; resid.=  3.83668516932053E-11
(PID.TID 0000.0001)  cg2d: iter=   111 ; resid.=  3.43191256606001E-11
(PID.TID 0000.0001)  cg2d: iter=   112 ; resid.=  2.95486437322623E-11
(PID.TID 0000.0001)  cg2d: iter=   113 ; resid.=  2.48231648988462E-11
(PID.TID 0000.0001)  cg2d: iter=   114 ; resid.=  2.10574749791255E-11
(PID.TID 0000.0001)  cg2d: iter=   115 ; resid.=  1.58335170247218E-11
(PID.TID 0000.0001)  cg2d: iter=   116 ; resid.=  1.17472356951601E-11
(PID.TID 0000.0001)  cg2d: iter=   117 ; resid.=  9.07321077072703E-12
(PID.TID 0000.0001)  cg2d: iter=   118 ; resid.=  6.74757586320039E-12
(PID.TID 0000.0001)  cg2d: iter=   119 ; resid.=  5.01093856735049E-12
(PID.TID 0000.0001)  cg2d: iter=   120 ; resid.=  3.74807940246030E-12
(PID.TID 0000.0001)  cg2d: iter=   121 ; resid.=  2.60189518854781E-12
(PID.TID 0000.0001)  cg2d: iter=   122 ; resid.=  2.03347507330868E-12
(PID.TID 0000.0001)  cg2d: iter=   123 ; resid.=  1.74792629051602E-12
(PID.TID 0000.0001)  cg2d: iter=   124 ; resid.=  1.44727894606562E-12
(PID.TID 0000.0001)  cg2d: iter=   125 ; resid.=  1.15891937236039E-12
(PID.TID 0000.0001)  cg2d: iter=   126 ; resid.=  8.10502717842668E-13
(PID.TID 0000.0001)  cg2d: iter=   127 ; resid.=  5.65764549292763E-13
(PID.TID 0000.0001)  cg2d: iter=   128 ; resid.=  3.95730282357762E-13
(PID.TID 0000.0001)  cg2d: iter=   129 ; resid.=  2.62448540797426E-13
(PID.TID 0000.0001)  cg2d: iter=   130 ; resid.=  1.96713942760947E-13
(PID.TID 0000.0001)  cg2d: iter=   131 ; resid.=  1.45347427061128E-13
(PID.TID 0000.0001)  cg2d: iter=   132 ; resid.=  1.06531079884249E-13
(PID.TID 0000.0001)  cg2d: iter=   133 ; resid.=  7.42606790125740E-14
DEBUG_STATS_RL:    cg2d_x (SOLVE_FOR_PRESSURE)  min= -1.95132546844321E+01
DEBUG_STATS_RL:    cg2d_x (SOLVE_FOR_PRESSURE)  max=  8.06132446306590E+00
DEBUG_STATS_RL:    cg2d_x (SOLVE_FOR_PRESSURE) mean= -1.65933056493102E+00
DEBUG_STATS_RL:    cg2d_x (SOLVE_FOR_PRESSURE) S.D.=  6.83318409526791E+00
(PID.TID 0000.0001)      cg2d_init_res =   3.08714581555696E-01
(PID.TID 0000.0001)      cg2d_iters(min,last) =      -1     133
(PID.TID 0000.0001)      cg2d_last_res =   7.42606790125740E-14
(PID.TID 0000.0001) // =======================================================
(PID.TID 0000.0001) // Begin MONITOR dynamic field statistics
(PID.TID 0000.0001) // =======================================================
(PID.TID 0000.0001) %MON time_tsnumber                =                    62
(PID.TID 0000.0001) %MON time_secondsf                =   5.3568000000000E+06
(PID.TID 0000.0001) %MON dynstat_eta_max              =   8.2174561295268E-01
(PID.TID 0000.0001) %MON dynstat_eta_min              =  -1.9891187242031E+00
(PID.TID 0000.0001) %MON dynstat_eta_mean             =  -4.5841554142455E-03
(PID.TID 0000.0001) %MON dynstat_eta_sd               =   5.9147516501419E-01
(PID.TID 0000.0001) %MON dynstat_eta_del2             =   2.3941927001912E-03
(PID.TID 0000.0001) %MON dynstat_uvel_max             =   1.3275327968428E-01
(PID.TID 0000.0001) %MON dynstat_uvel_min             =  -1.3325598897592E-01
(PID.TID 0000.0001) %MON dynstat_uvel_mean            =   2.1999799302423E-03
(PID.TID 0000.0001) %MON dynstat_uvel_sd              =   1.6578629510965E-02
(PID.TID 0000.0001) %MON dynstat_uvel_del2            =   1.0357268377041E-04
(PID.TID 0000.0001) %MON dynstat_vvel_max             =   1.4053311644644E-01
(PID.TID 0000.0001) %MON dynstat_vvel_min             =  -9.7255369368315E-02
(PID.TID 0000.0001) %MON dynstat_vvel_mean            =   1.4956196210321E-04
(PID.TID 0000.0001) %MON dynstat_vvel_sd              =   9.9574404129132E-03
(PID.TID 0000.0001) %MON dynstat_vvel_del2            =   8.0909301215653E-05
(PID.TID 0000.0001) %MON dynstat_wvel_max             =   1.0804702683447E-04
(PID.TID 0000.0001) %MON dynstat_wvel_min             =  -9.5540492569068E-05
(PID.TID 0000.0001) %MON dynstat_wvel_mean            =  -2.6749039466474E-22
(PID.TID 0000.0001) %MON dynstat_wvel_sd              =   1.3694462133871E-05
(PID.TID 0000.0001) %MON dynstat_wvel_del2            =   1.3628124890276E-07
(PID.TID 0000.0001) %MON dynstat_theta_max            =   3.0640116532836E+01
(PID.TID 0000.0001) %MON dynstat_theta_min            =  -1.9635752618346E+00
(PID.TID 0000.0001) %MON dynstat_theta_mean           =   3.6433108305453E+00
(PID.TID 0000.0001) %MON dynstat_theta_sd             =   4.4242358912118E+00
(PID.TID 0000.0001) %MON dynstat_theta_del2           =   4.9146288444124E-03
(PID.TID 0000.0001) %MON dynstat_salt_max             =   3.7486775360994E+01
(PID.TID 0000.0001) %MON dynstat_salt_min             =   2.9901044121526E+01
(PID.TID 0000.0001) %MON dynstat_salt_mean            =   3.4737963647922E+01
(PID.TID 0000.0001) %MON dynstat_salt_sd              =   2.9639902343491E-01
(PID.TID 0000.0001) %MON dynstat_salt_del2            =   9.9107334599962E-04
(PID.TID 0000.0001) %MON dynstat_sst_max              =   3.0640116532836E+01
(PID.TID 0000.0001) %MON dynstat_sst_min              =  -1.9635752618346E+00
(PID.TID 0000.0001) %MON dynstat_sst_mean             =   1.9019623165457E+01
(PID.TID 0000.0001) %MON dynstat_sst_sd               =   9.0721585946747E+00
(PID.TID 0000.0001) %MON dynstat_sst_del2             =   2.8072074792880E-02
(PID.TID 0000.0001) %MON dynstat_sss_max              =   3.7465306629017E+01
(PID.TID 0000.0001) %MON dynstat_sss_min              =   2.9901044121526E+01
(PID.TID 0000.0001) %MON dynstat_sss_mean             =   3.4859913973614E+01
(PID.TID 0000.0001) %MON dynstat_sss_sd               =   9.8124157599676E-01
(PID.TID 0000.0001) %MON dynstat_sss_del2             =   8.0216875072512E-03
(PID.TID 0000.0001) %MON forcing_qnet_max             =   3.1368181355794E+02
(PID.TID 0000.0001) %MON forcing_qnet_min             =  -1.6804550069173E+02
(PID.TID 0000.0001) %MON forcing_qnet_mean            =  -1.0391818984917E+01
(PID.TID 0000.0001) %MON forcing_qnet_sd              =   5.8698172444596E+01
(PID.TID 0000.0001) %MON forcing_qnet_del2            =   8.7784570715978E-01
(PID.TID 0000.0001) %MON forcing_qsw_max              =   0.0000000000000E+00
(PID.TID 0000.0001) %MON forcing_qsw_min              =   0.0000000000000E+00
(PID.TID 0000.0001) %MON forcing_qsw_mean             =   0.0000000000000E+00
(PID.TID 0000.0001) %MON forcing_qsw_sd               =   0.0000000000000E+00
(PID.TID 0000.0001) %MON forcing_qsw_del2             =   0.0000000000000E+00
(PID.TID 0000.0001) %MON forcing_empmr_max            =   6.9189410586053E-05
(PID.TID 0000.0001) %MON forcing_empmr_min            =  -7.7675903279821E-05
(PID.TID 0000.0001) %MON forcing_empmr_mean           =   7.3397008591968E-07
(PID.TID 0000.0001) %MON forcing_empmr_sd             =   2.6815629393034E-05
(PID.TID 0000.0001) %MON forcing_empmr_del2           =   3.5456126682160E-07
(PID.TID 0000.0001) %MON forcing_fu_max               =   3.3037157654762E-01
(PID.TID 0000.0001) %MON forcing_fu_min               =  -3.0188642243544E-01
(PID.TID 0000.0001) %MON forcing_fu_mean              =   1.9137935047970E-02
(PID.TID 0000.0001) %MON forcing_fu_sd                =   9.5650640697018E-02
(PID.TID 0000.0001) %MON forcing_fu_del2              =   7.1874318032025E-04
(PID.TID 0000.0001) %MON forcing_fv_max               =   1.5187646150589E-01
(PID.TID 0000.0001) %MON forcing_fv_min               =  -1.7590267658234E-01
(PID.TID 0000.0001) %MON forcing_fv_mean              =  -7.3835785404719E-03
(PID.TID 0000.0001) %MON forcing_fv_sd                =   4.1829040773244E-02
(PID.TID 0000.0001) %MON forcing_fv_del2              =   4.6738042004890E-04
(PID.TID 0000.0001) %MON trAdv_CFL_u_max              =   4.1402650870083E-02
(PID.TID 0000.0001) %MON trAdv_CFL_v_max              =   2.6737278745921E-02
(PID.TID 0000.0001) %MON trAdv_CFL_w_max              =   3.3215515008740E-02
(PID.TID 0000.0001) %MON advcfl_uvel_max              =   4.1103553565485E-02
(PID.TID 0000.0001) %MON advcfl_vvel_max              =   2.7303330645330E-02
(PID.TID 0000.0001) %MON advcfl_wvel_max              =   4.0446887400066E-02
(PID.TID 0000.0001) %MON advcfl_W_hf_max              =   4.5768846268496E-02
(PID.TID 0000.0001) %MON pe_b_mean                    =   4.4769301133790E-04
(PID.TID 0000.0001) %MON ke_max                       =   1.5494772924005E-02
(PID.TID 0000.0001) %MON ke_mean                      =   1.7159089588931E-04
(PID.TID 0000.0001) %MON ke_vol                       =   1.3226782436723E+18
(PID.TID 0000.0001) %MON vort_r_min                   =  -3.8719150098215E-07
(PID.TID 0000.0001) %MON vort_r_max                   =   4.4510641645619E-07
(PID.TID 0000.0001) %MON vort_a_mean                  =  -2.5274807607015E-05
(PID.TID 0000.0001) %MON vort_a_sd                    =   7.3604585688932E-05
(PID.TID 0000.0001) %MON vort_p_mean                  =  -3.1845656063518E-05
(PID.TID 0000.0001) %MON vort_p_sd                    =   1.3162407103958E-04
(PID.TID 0000.0001) %MON surfExpan_theta_mean         =   3.0717385408471E-07
(PID.TID 0000.0001) %MON surfExpan_salt_mean          =  -5.6023919547302E-08
(PID.TID 0000.0001) // =======================================================
(PID.TID 0000.0001) // End MONITOR dynamic field statistics
(PID.TID 0000.0001) // =======================================================
 EXTERNAL_FIELDS_LOAD,        62 : iP,iLd,i0,i1=    2    3    2    3 ; Wght=  0.4333333333  0.5666666667
 EXTERNAL_FIELDS_LOAD: (fu0,1),fu,fv= -1.4435E-02 -2.7199E-02 -2.1668E-02 -7.9696E-03
 EXTERNAL_FIELDS_LOAD: SST,SSS,Q,E-P= -3.3468E-01  3.4511E+01  2.2627E+02  8.7759E-06
DEBUG_STATS_RL:          Uvel (THERMODYNAMICS)  min= -1.33255988975917E-01
DEBUG_STATS_RL:          Uvel (THERMODYNAMICS)  max=  1.32753279684284E-01
DEBUG_STATS_RL:          Uvel (THERMODYNAMICS) mean=  5.86703168934453E-03
DEBUG_STATS_RL:          Uvel (THERMODYNAMICS) S.D.=  2.32270253626480E-02
DEBUG_STATS_RL:          Vvel (THERMODYNAMICS)  min= -9.72553693683149E-02
DEBUG_STATS_RL:          Vvel (THERMODYNAMICS)  max=  1.40533116446436E-01
DEBUG_STATS_RL:          Vvel (THERMODYNAMICS) mean=  6.75152175455336E-04
DEBUG_STATS_RL:          Vvel (THERMODYNAMICS) S.D.=  1.49812915209505E-02
DEBUG_STATS_RL:          Wvel (THERMODYNAMICS)  min= -9.55404925690683E-05
DEBUG_STATS_RL:          Wvel (THERMODYNAMICS)  max=  1.08047026834470E-04
DEBUG_STATS_RL:          Wvel (THERMODYNAMICS) mean= -1.40823356272139E-07
DEBUG_STATS_RL:          Wvel (THERMODYNAMICS) S.D.=  1.18653664767089E-05
DEBUG_STATS_RL:         Theta (THERMODYNAMICS)  min= -1.96202347556202E+00
DEBUG_STATS_RL:         Theta (THERMODYNAMICS)  max=  3.06617258861835E+01
DEBUG_STATS_RL:         Theta (THERMODYNAMICS) mean=  3.23983874736583E+00
DEBUG_STATS_RL:         Theta (THERMODYNAMICS) S.D.=  5.87877024029455E+00
DEBUG_STATS_RL:          Salt (THERMODYNAMICS)  min=  2.00000000000000E-02
DEBUG_STATS_RL:          Salt (THERMODYNAMICS)  max=  3.74869566097219E+01
DEBUG_STATS_RL:          Salt (THERMODYNAMICS) mean=  1.88647767250101E+01
DEBUG_STATS_RL:          Salt (THERMODYNAMICS) S.D.=  1.73003114599580E+01
DEBUG_STATS_RL:         GtNm1 (THERMODYNAMICS)  min= -3.27032092995584E-06
DEBUG_STATS_RL:         GtNm1 (THERMODYNAMICS)  max=  2.11059118025635E-06
DEBUG_STATS_RL:         GtNm1 (THERMODYNAMICS) mean=  3.63087554550847E-09
DEBUG_STATS_RL:         GtNm1 (THERMODYNAMICS) S.D.=  1.71226861644872E-07
DEBUG_STATS_RL:         GsNm1 (THERMODYNAMICS)  min= -3.84700001222318E-07
DEBUG_STATS_RL:         GsNm1 (THERMODYNAMICS)  max=  2.66441860844919E-07
DEBUG_STATS_RL:         GsNm1 (THERMODYNAMICS) mean= -3.90961768422807E-10
DEBUG_STATS_RL:         GsNm1 (THERMODYNAMICS) S.D.=  1.70234304115082E-08
DEBUG_STATS_RL:                EtaN (DYNAMICS)  min= -1.98911872420312E+00
DEBUG_STATS_RL:                EtaN (DYNAMICS)  max=  8.21745612952683E-01
DEBUG_STATS_RL:                EtaN (DYNAMICS) mean= -1.69146846578085E-01
DEBUG_STATS_RL:                EtaN (DYNAMICS) S.D.=  6.96552914910084E-01
DEBUG_STATS_RL:                Uvel (DYNAMICS)  min= -1.33255988975917E-01
DEBUG_STATS_RL:                Uvel (DYNAMICS)  max=  1.32753279684284E-01
DEBUG_STATS_RL:                Uvel (DYNAMICS) mean=  5.86703168934453E-03
DEBUG_STATS_RL:                Uvel (DYNAMICS) S.D.=  2.32270253626480E-02
DEBUG_STATS_RL:                Vvel (DYNAMICS)  min= -9.72553693683149E-02
DEBUG_STATS_RL:                Vvel (DYNAMICS)  max=  1.40533116446436E-01
DEBUG_STATS_RL:                Vvel (DYNAMICS) mean=  6.75152175455336E-04
DEBUG_STATS_RL:                Vvel (DYNAMICS) S.D.=  1.49812915209505E-02
DEBUG_STATS_RL:                Wvel (DYNAMICS)  min= -9.55404925690683E-05
DEBUG_STATS_RL:                Wvel (DYNAMICS)  max=  1.08047026834470E-04
DEBUG_STATS_RL:                Wvel (DYNAMICS) mean= -1.40823356272139E-07
DEBUG_STATS_RL:                Wvel (DYNAMICS) S.D.=  1.18653664767089E-05
DEBUG_STATS_RL:               Theta (DYNAMICS)  min= -1.96202347556202E+00
DEBUG_STATS_RL:               Theta (DYNAMICS)  max=  3.06617258861835E+01
DEBUG_STATS_RL:               Theta (DYNAMICS) mean=  3.23983874736583E+00
DEBUG_STATS_RL:               Theta (DYNAMICS) S.D.=  5.87877024029455E+00
DEBUG_STATS_RL:                Salt (DYNAMICS)  min=  2.00000000000000E-02
DEBUG_STATS_RL:                Salt (DYNAMICS)  max=  3.74869566097219E+01
DEBUG_STATS_RL:                Salt (DYNAMICS) mean=  1.88647767250101E+01
DEBUG_STATS_RL:                Salt (DYNAMICS) S.D.=  1.73003114599580E+01
DEBUG_STATS_RL:                  Gu (DYNAMICS)  min= -1.32589124080781E-01
DEBUG_STATS_RL:                  Gu (DYNAMICS)  max=  1.33844804441146E-01
DEBUG_STATS_RL:                  Gu (DYNAMICS) mean=  5.83932688811496E-03
DEBUG_STATS_RL:                  Gu (DYNAMICS) S.D.=  2.37030281166819E-02
DEBUG_STATS_RL:                  Gv (DYNAMICS)  min= -1.03125553734206E-01
DEBUG_STATS_RL:                  Gv (DYNAMICS)  max=  1.41730981251603E-01
DEBUG_STATS_RL:                  Gv (DYNAMICS) mean=  3.28362790074115E-03
DEBUG_STATS_RL:                  Gv (DYNAMICS) S.D.=  1.60853979303173E-02
DEBUG_STATS_RL:               GuNm1 (DYNAMICS)  min= -9.95319092883272E-06
DEBUG_STATS_RL:               GuNm1 (DYNAMICS)  max=  9.42726354284222E-06
DEBUG_STATS_RL:               GuNm1 (DYNAMICS) mean=  8.16786760992310E-09
DEBUG_STATS_RL:               GuNm1 (DYNAMICS) S.D.=  1.20321555508640E-06
DEBUG_STATS_RL:               GvNm1 (DYNAMICS)  min= -1.00980672598265E-05
DEBUG_STATS_RL:               GvNm1 (DYNAMICS)  max=  1.57997647061415E-05
DEBUG_STATS_RL:               GvNm1 (DYNAMICS) mean=  7.43435664812335E-07
DEBUG_STATS_RL:               GvNm1 (DYNAMICS) S.D.=  2.65333379039169E-06
DEBUG_STATS_RL:               GtNm1 (DYNAMICS)  min= -3.27032092995584E-06
DEBUG_STATS_RL:               GtNm1 (DYNAMICS)  max=  2.11059118025635E-06
DEBUG_STATS_RL:               GtNm1 (DYNAMICS) mean=  3.63087554550847E-09
DEBUG_STATS_RL:               GtNm1 (DYNAMICS) S.D.=  1.71226861644872E-07
DEBUG_STATS_RL:               GsNm1 (DYNAMICS)  min= -3.84700001222318E-07
DEBUG_STATS_RL:               GsNm1 (DYNAMICS)  max=  2.66441860844919E-07
DEBUG_STATS_RL:               GsNm1 (DYNAMICS) mean= -3.90961768422807E-10
DEBUG_STATS_RL:               GsNm1 (DYNAMICS) S.D.=  1.70234304115082E-08
DEBUG_STATS_RL:    cg2d_b (SOLVE_FOR_PRESSURE)  min= -1.93956022219700E+04
DEBUG_STATS_RL:    cg2d_b (SOLVE_FOR_PRESSURE)  max=  2.58381350008552E+04
DEBUG_STATS_RL:    cg2d_b (SOLVE_FOR_PRESSURE) mean=  4.45125555663883E+00
DEBUG_STATS_RL:    cg2d_b (SOLVE_FOR_PRESSURE) S.D.=  3.95393277105554E+03
 cg2d: Sum(rhs),rhsMax =   3.98815805137417E-01  1.69711788654316E+00
(PID.TID 0000.0001)  cg2d: iter=     1 ; resid.=  1.59798447520077E-01
(PID.TID 0000.0001)  cg2d: iter=     2 ; resid.=  1.43978145352119E-01
(PID.TID 0000.0001)  cg2d: iter=     3 ; resid.=  1.34437460276724E-01
(PID.TID 0000.0001)  cg2d: iter=     4 ; resid.=  1.20529747679521E-01
(PID.TID 0000.0001)  cg2d: iter=     5 ; resid.=  9.57417515597237E-02
(PID.TID 0000.0001)  cg2d: iter=     6 ; resid.=  7.81867813827540E-02
(PID.TID 0000.0001)  cg2d: iter=     7 ; resid.=  7.24388696587935E-02
(PID.TID 0000.0001)  cg2d: iter=     8 ; resid.=  6.67511258821734E-02
(PID.TID 0000.0001)  cg2d: iter=     9 ; resid.=  5.35365756266442E-02
(PID.TID 0000.0001)  cg2d: iter=    10 ; resid.=  4.56670246691089E-02
(PID.TID 0000.0001)  cg2d: iter=    11 ; resid.=  3.80890962475804E-02
(PID.TID 0000.0001)  cg2d: iter=    12 ; resid.=  3.14089583353426E-02
(PID.TID 0000.0001)  cg2d: iter=    13 ; resid.=  2.47781398536736E-02
(PID.TID 0000.0001)  cg2d: iter=    14 ; resid.=  1.98421283687232E-02
(PID.TID 0000.0001)  cg2d: iter=    15 ; resid.=  1.63073012224428E-02
(PID.TID 0000.0001)  cg2d: iter=    16 ; resid.=  1.32699945394241E-02
(PID.TID 0000.0001)  cg2d: iter=    17 ; resid.=  1.17450827530190E-02
(PID.TID 0000.0001)  cg2d: iter=    18 ; resid.=  9.60819473671047E-03
(PID.TID 0000.0001)  cg2d: iter=    19 ; resid.=  8.06453805635599E-03
(PID.TID 0000.0001)  cg2d: iter=    20 ; resid.=  7.05779354495702E-03
(PID.TID 0000.0001)  cg2d: iter=    21 ; resid.=  6.34223024224131E-03
(PID.TID 0000.0001)  cg2d: iter=    22 ; resid.=  5.49968899820161E-03
(PID.TID 0000.0001)  cg2d: iter=    23 ; resid.=  4.35857519694865E-03
(PID.TID 0000.0001)  cg2d: iter=    24 ; resid.=  3.60903192741699E-03
(PID.TID 0000.0001)  cg2d: iter=    25 ; resid.=  2.93883034003504E-03
(PID.TID 0000.0001)  cg2d: iter=    26 ; resid.=  2.34686280380528E-03
(PID.TID 0000.0001)  cg2d: iter=    27 ; resid.=  2.00392212988900E-03
(PID.TID 0000.0001)  cg2d: iter=    28 ; resid.=  1.70443626718038E-03
(PID.TID 0000.0001)  cg2d: iter=    29 ; resid.=  1.42445819666461E-03
(PID.TID 0000.0001)  cg2d: iter=    30 ; resid.=  1.12317605439424E-03
(PID.TID 0000.0001)  cg2d: iter=    31 ; resid.=  8.96516032847583E-04
(PID.TID 0000.0001)  cg2d: iter=    32 ; resid.=  6.74930333945686E-04
(PID.TID 0000.0001)  cg2d: iter=    33 ; resid.=  5.81824196400348E-04
(PID.TID 0000.0001)  cg2d: iter=    34 ; resid.=  5.19724670986483E-04
(PID.TID 0000.0001)  cg2d: iter=    35 ; resid.=  4.38682479799713E-04
(PID.TID 0000.0001)  cg2d: iter=    36 ; resid.=  3.61268663575112E-04
(PID.TID 0000.0001)  cg2d: iter=    37 ; resid.=  2.93693577756233E-04
(PID.TID 0000.0001)  cg2d: iter=    38 ; resid.=  2.45878516755505E-04
(PID.TID 0000.0001)  cg2d: iter=    39 ; resid.=  2.17662059010119E-04
(PID.TID 0000.0001)  cg2d: iter=    40 ; resid.=  1.87568351902799E-04
(PID.TID 0000.0001)  cg2d: iter=    41 ; resid.=  1.65610446389792E-04
(PID.TID 0000.0001)  cg2d: iter=    42 ; resid.=  1.53677049881897E-04
(PID.TID 0000.0001)  cg2d: iter=    43 ; resid.=  1.32972381668195E-04
(PID.TID 0000.0001)  cg2d: iter=    44 ; resid.=  1.04899311717616E-04
(PID.TID 0000.0001)  cg2d: iter=    45 ; resid.=  8.64562150610625E-05
(PID.TID 0000.0001)  cg2d: iter=    46 ; resid.=  7.06444540590751E-05
(PID.TID 0000.0001)  cg2d: iter=    47 ; resid.=  5.77075330707898E-05
(PID.TID 0000.0001)  cg2d: iter=    48 ; resid.=  4.83170335765415E-05
(PID.TID 0000.0001)  cg2d: iter=    49 ; resid.=  4.05205847139029E-05
(PID.TID 0000.0001)  cg2d: iter=    50 ; resid.=  3.37189340282427E-05
(PID.TID 0000.0001)  cg2d: iter=    51 ; resid.=  2.76035171567746E-05
(PID.TID 0000.0001)  cg2d: iter=    52 ; resid.=  2.19663631902284E-05
(PID.TID 0000.0001)  cg2d: iter=    53 ; resid.=  1.98889463551811E-05
(PID.TID 0000.0001)  cg2d: iter=    54 ; resid.=  1.68160464632141E-05
(PID.TID 0000.0001)  cg2d: iter=    55 ; resid.=  1.47274615552225E-05
(PID.TID 0000.0001)  cg2d: iter=    56 ; resid.=  1.15242971187101E-05
(PID.TID 0000.0001)  cg2d: iter=    57 ; resid.=  8.86926727666410E-06
(PID.TID 0000.0001)  cg2d: iter=    58 ; resid.=  6.96522168530969E-06
(PID.TID 0000.0001)  cg2d: iter=    59 ; resid.=  5.20376138235248E-06
(PID.TID 0000.0001)  cg2d: iter=    60 ; resid.=  4.15780805794313E-06
(PID.TID 0000.0001)  cg2d: iter=    61 ; resid.=  3.28667825615812E-06
(PID.TID 0000.0001)  cg2d: iter=    62 ; resid.=  2.53182782953912E-06
(PID.TID 0000.0001)  cg2d: iter=    63 ; resid.=  1.98851783759981E-06
(PID.TID 0000.0001)  cg2d: iter=    64 ; resid.=  1.51342588545555E-06
(PID.TID 0000.0001)  cg2d: iter=    65 ; resid.=  1.23887616585313E-06
(PID.TID 0000.0001)  cg2d: iter=    66 ; resid.=  9.57049383387140E-07
(PID.TID 0000.0001)  cg2d: iter=    67 ; resid.=  8.15701841852432E-07
(PID.TID 0000.0001)  cg2d: iter=    68 ; resid.=  6.98921805072420E-07
(PID.TID 0000.0001)  cg2d: iter=    69 ; resid.=  5.48496530369275E-07
(PID.TID 0000.0001)  cg2d: iter=    70 ; resid.=  4.26521644547827E-07
(PID.TID 0000.0001)  cg2d: iter=    71 ; resid.=  3.51140661015166E-07
(PID.TID 0000.0001)  cg2d: iter=    72 ; resid.=  3.02817625356833E-07
(PID.TID 0000.0001)  cg2d: iter=    73 ; resid.=  2.56517755241489E-07
(PID.TID 0000.0001)  cg2d: iter=    74 ; resid.=  2.13449148291398E-07
(PID.TID 0000.0001)  cg2d: iter=    75 ; resid.=  1.80357137804934E-07
(PID.TID 0000.0001)  cg2d: iter=    76 ; resid.=  1.54747568430385E-07
(PID.TID 0000.0001)  cg2d: iter=    77 ; resid.=  1.29766272680063E-07
(PID.TID 0000.0001)  cg2d: iter=    78 ; resid.=  1.10284418478470E-07
(PID.TID 0000.0001)  cg2d: iter=    79 ; resid.=  9.81554940732288E-08
(PID.TID 0000.0001)  cg2d: iter=    80 ; resid.=  8.46341363737126E-08
(PID.TID 0000.0001)  cg2d: iter=    81 ; resid.=  6.77562059258682E-08
(PID.TID 0000.0001)  cg2d: iter=    82 ; resid.=  5.25170518946984E-08
(PID.TID 0000.0001)  cg2d: iter=    83 ; resid.=  3.99232765698940E-08
(PID.TID 0000.0001)  cg2d: iter=    84 ; resid.=  3.16545168064268E-08
(PID.TID 0000.0001)  cg2d: iter=    85 ; resid.=  2.30522268442747E-08
(PID.TID 0000.0001)  cg2d: iter=    86 ; resid.=  1.83010350226967E-08
(PID.TID 0000.0001)  cg2d: iter=    87 ; resid.=  1.35044876545668E-08
(PID.TID 0000.0001)  cg2d: iter=    88 ; resid.=  1.05573732800282E-08
(PID.TID 0000.0001)  cg2d: iter=    89 ; resid.=  9.23654079432459E-09
(PID.TID 0000.0001)  cg2d: iter=    90 ; resid.=  8.27973935109600E-09
(PID.TID 0000.0001)  cg2d: iter=    91 ; resid.=  6.12891403633798E-09
(PID.TID 0000.0001)  cg2d: iter=    92 ; resid.=  4.37217831640883E-09
(PID.TID 0000.0001)  cg2d: iter=    93 ; resid.=  3.15924260682575E-09
(PID.TID 0000.0001)  cg2d: iter=    94 ; resid.=  2.45678165831788E-09
(PID.TID 0000.0001)  cg2d: iter=    95 ; resid.=  1.97113026555021E-09
(PID.TID 0000.0001)  cg2d: iter=    96 ; resid.=  1.43914347295699E-09
(PID.TID 0000.0001)  cg2d: iter=    97 ; resid.=  1.02671462953954E-09
(PID.TID 0000.0001)  cg2d: iter=    98 ; resid.=  7.58300336384418E-10
(PID.TID 0000.0001)  cg2d: iter=    99 ; resid.=  6.41088787896595E-10
(PID.TID 0000.0001)  cg2d: iter=   100 ; resid.=  5.54904744527885E-10
(PID.TID 0000.0001)  cg2d: iter=   101 ; resid.=  4.41020152555705E-10
(PID.TID 0000.0001)  cg2d: iter=   102 ; resid.=  3.34710888808010E-10
(PID.TID 0000.0001)  cg2d: iter=   103 ; resid.=  2.56825311303352E-10
(PID.TID 0000.0001)  cg2d: iter=   104 ; resid.=  2.30294488027432E-10
(PID.TID 0000.0001)  cg2d: iter=   105 ; resid.=  2.02457196340991E-10
(PID.TID 0000.0001)  cg2d: iter=   106 ; resid.=  1.74742566682314E-10
(PID.TID 0000.0001)  cg2d: iter=   107 ; resid.=  1.42565800999479E-10
(PID.TID 0000.0001)  cg2d: iter=   108 ; resid.=  1.23697575751186E-10
(PID.TID 0000.0001)  cg2d: iter=   109 ; resid.=  1.00681192880536E-10
(PID.TID 0000.0001)  cg2d: iter=   110 ; resid.=  7.58160103026082E-11
(PID.TID 0000.0001)  cg2d: iter=   111 ; resid.=  6.20417366637646E-11
(PID.TID 0000.0001)  cg2d: iter=   112 ; resid.=  4.67258956290586E-11
(PID.TID 0000.0001)  cg2d: iter=   113 ; resid.=  3.45125448664718E-11
(PID.TID 0000.0001)  cg2d: iter=   114 ; resid.=  2.64802329460460E-11
(PID.TID 0000.0001)  cg2d: iter=   115 ; resid.=  1.84829486749397E-11
(PID.TID 0000.0001)  cg2d: iter=   116 ; resid.=  1.33124129054581E-11
(PID.TID 0000.0001)  cg2d: iter=   117 ; resid.=  1.00888202133461E-11
(PID.TID 0000.0001)  cg2d: iter=   118 ; resid.=  7.29961256862360E-12
(PID.TID 0000.0001)  cg2d: iter=   119 ; resid.=  5.47205413030477E-12
(PID.TID 0000.0001)  cg2d: iter=   120 ; resid.=  4.17838507167303E-12
(PID.TID 0000.0001)  cg2d: iter=   121 ; resid.=  3.00449408152539E-12
(PID.TID 0000.0001)  cg2d: iter=   122 ; resid.=  2.41850838887236E-12
(PID.TID 0000.0001)  cg2d: iter=   123 ; resid.=  2.12616644783821E-12
(PID.TID 0000.0001)  cg2d: iter=   124 ; resid.=  1.77766739425916E-12
(PID.TID 0000.0001)  cg2d: iter=   125 ; resid.=  1.39176404002488E-12
(PID.TID 0000.0001)  cg2d: iter=   126 ; resid.=  9.66222092028211E-13
(PID.TID 0000.0001)  cg2d: iter=   127 ; resid.=  6.53143542115171E-13
(PID.TID 0000.0001)  cg2d: iter=   128 ; resid.=  4.46643881202711E-13
(PID.TID 0000.0001)  cg2d: iter=   129 ; resid.=  2.95487307075540E-13
(PID.TID 0000.0001)  cg2d: iter=   130 ; resid.=  2.18390201511034E-13
(PID.TID 0000.0001)  cg2d: iter=   131 ; resid.=  1.65171952154476E-13
(PID.TID 0000.0001)  cg2d: iter=   132 ; resid.=  1.25705703624274E-13
(PID.TID 0000.0001)  cg2d: iter=   133 ; resid.=  9.35430277885176E-14
DEBUG_STATS_RL:    cg2d_x (SOLVE_FOR_PRESSURE)  min= -1.94981558044162E+01
DEBUG_STATS_RL:    cg2d_x (SOLVE_FOR_PRESSURE)  max=  7.95811019737487E+00
DEBUG_STATS_RL:    cg2d_x (SOLVE_FOR_PRESSURE) mean= -1.67401793851639E+00
DEBUG_STATS_RL:    cg2d_x (SOLVE_FOR_PRESSURE) S.D.=  6.89864629858572E+00
(PID.TID 0000.0001)      cg2d_init_res =   3.08842999019725E-01
(PID.TID 0000.0001)      cg2d_iters(min,last) =      -1     133
(PID.TID 0000.0001)      cg2d_last_res =   9.35430277885176E-14
(PID.TID 0000.0001) // =======================================================
(PID.TID 0000.0001) // Begin MONITOR dynamic field statistics
(PID.TID 0000.0001) // =======================================================
(PID.TID 0000.0001) %MON time_tsnumber                =                    63
(PID.TID 0000.0001) %MON time_secondsf                =   5.4432000000000E+06
(PID.TID 0000.0001) %MON dynstat_eta_max              =   8.1122428107800E-01
(PID.TID 0000.0001) %MON dynstat_eta_min              =  -1.9875795927029E+00
(PID.TID 0000.0001) %MON dynstat_eta_mean             =  -4.6443332358840E-03
(PID.TID 0000.0001) %MON dynstat_eta_sd               =   5.9683905681820E-01
(PID.TID 0000.0001) %MON dynstat_eta_del2             =   2.3953705968880E-03
(PID.TID 0000.0001) %MON dynstat_uvel_max             =   1.3127456208139E-01
(PID.TID 0000.0001) %MON dynstat_uvel_min             =  -1.3397114312392E-01
(PID.TID 0000.0001) %MON dynstat_uvel_mean            =   2.2790244290389E-03
(PID.TID 0000.0001) %MON dynstat_uvel_sd              =   1.6653571538522E-02
(PID.TID 0000.0001) %MON dynstat_uvel_del2            =   1.0460362690550E-04
(PID.TID 0000.0001) %MON dynstat_vvel_max             =   1.4388555960336E-01
(PID.TID 0000.0001) %MON dynstat_vvel_min             =  -9.6356947377719E-02
(PID.TID 0000.0001) %MON dynstat_vvel_mean            =   1.2452491963929E-04
(PID.TID 0000.0001) %MON dynstat_vvel_sd              =   9.9036279013192E-03
(PID.TID 0000.0001) %MON dynstat_vvel_del2            =   8.1143149717924E-05
(PID.TID 0000.0001) %MON dynstat_wvel_max             =   1.1112343174545E-04
(PID.TID 0000.0001) %MON dynstat_wvel_min             =  -9.6431945194851E-05
(PID.TID 0000.0001) %MON dynstat_wvel_mean            =   5.7342307208186E-25
(PID.TID 0000.0001) %MON dynstat_wvel_sd              =   1.3565370893429E-05
(PID.TID 0000.0001) %MON dynstat_wvel_del2            =   1.3510196956983E-07
(PID.TID 0000.0001) %MON dynstat_theta_max            =   3.0661725886183E+01
(PID.TID 0000.0001) %MON dynstat_theta_min            =  -1.9620234755620E+00
(PID.TID 0000.0001) %MON dynstat_theta_mean           =   3.6433592784835E+00
(PID.TID 0000.0001) %MON dynstat_theta_sd             =   4.4244243282527E+00
(PID.TID 0000.0001) %MON dynstat_theta_del2           =   4.9148794439838E-03
(PID.TID 0000.0001) %MON dynstat_salt_max             =   3.7486956609722E+01
(PID.TID 0000.0001) %MON dynstat_salt_min             =   2.9904022882263E+01
(PID.TID 0000.0001) %MON dynstat_salt_mean            =   3.4737966304844E+01
(PID.TID 0000.0001) %MON dynstat_salt_sd              =   2.9640802528551E-01
(PID.TID 0000.0001) %MON dynstat_salt_del2            =   9.9092324321077E-04
(PID.TID 0000.0001) %MON dynstat_sst_max              =   3.0661725886183E+01
(PID.TID 0000.0001) %MON dynstat_sst_min              =  -1.9620234755620E+00
(PID.TID 0000.0001) %MON dynstat_sst_mean             =   1.9024898163384E+01
(PID.TID 0000.0001) %MON dynstat_sst_sd               =   9.0765263703072E+00
(PID.TID 0000.0001) %MON dynstat_sst_del2             =   2.8106466863909E-02
(PID.TID 0000.0001) %MON dynstat_sss_max              =   3.7466210516841E+01
(PID.TID 0000.0001) %MON dynstat_sss_min              =   2.9904022882263E+01
(PID.TID 0000.0001) %MON dynstat_sss_mean             =   3.4859618389608E+01
(PID.TID 0000.0001) %MON dynstat_sss_sd               =   9.8157584708358E-01
(PID.TID 0000.0001) %MON dynstat_sss_del2             =   8.0303344009202E-03
(PID.TID 0000.0001) %MON forcing_qnet_max             =   3.1088366190592E+02
(PID.TID 0000.0001) %MON forcing_qnet_min             =  -1.6774622141520E+02
(PID.TID 0000.0001) %MON forcing_qnet_mean            =  -1.0168479485291E+01
(PID.TID 0000.0001) %MON forcing_qnet_sd              =   5.7577799379717E+01
(PID.TID 0000.0001) %MON forcing_qnet_del2            =   8.7481271655306E-01
(PID.TID 0000.0001) %MON forcing_qsw_max              =   0.0000000000000E+00
(PID.TID 0000.0001) %MON forcing_qsw_min              =   0.0000000000000E+00
(PID.TID 0000.0001) %MON forcing_qsw_mean             =   0.0000000000000E+00
(PID.TID 0000.0001) %MON forcing_qsw_sd               =   0.0000000000000E+00
(PID.TID 0000.0001) %MON forcing_qsw_del2             =   0.0000000000000E+00
(PID.TID 0000.0001) %MON forcing_empmr_max            =   6.9183654242503E-05
(PID.TID 0000.0001) %MON forcing_empmr_min            =  -7.8075082872905E-05
(PID.TID 0000.0001) %MON forcing_empmr_mean           =   7.2088015504532E-07
(PID.TID 0000.0001) %MON forcing_empmr_sd             =   2.6762189976849E-05
(PID.TID 0000.0001) %MON forcing_empmr_del2           =   3.5501110525875E-07
(PID.TID 0000.0001) %MON forcing_fu_max               =   3.3231299221516E-01
(PID.TID 0000.0001) %MON forcing_fu_min               =  -3.0727105190357E-01
(PID.TID 0000.0001) %MON forcing_fu_mean              =   1.9232134637429E-02
(PID.TID 0000.0001) %MON forcing_fu_sd                =   9.5991792760700E-02
(PID.TID 0000.0001) %MON forcing_fu_del2              =   7.2366523657091E-04
(PID.TID 0000.0001) %MON forcing_fv_max               =   1.5079911947250E-01
(PID.TID 0000.0001) %MON forcing_fv_min               =  -1.7441664040089E-01
(PID.TID 0000.0001) %MON forcing_fv_mean              =  -7.3940068904414E-03
(PID.TID 0000.0001) %MON forcing_fv_sd                =   4.1773346779471E-02
(PID.TID 0000.0001) %MON forcing_fv_del2              =   4.6691190936856E-04
(PID.TID 0000.0001) %MON trAdv_CFL_u_max              =   4.1111901991192E-02
(PID.TID 0000.0001) %MON trAdv_CFL_v_max              =   2.7192069041012E-02
(PID.TID 0000.0001) %MON trAdv_CFL_w_max              =   3.6233669962559E-02
(PID.TID 0000.0001) %MON advcfl_uvel_max              =   4.2250460733037E-02
(PID.TID 0000.0001) %MON advcfl_vvel_max              =   2.7954656583995E-02
(PID.TID 0000.0001) %MON advcfl_wvel_max              =   4.2598141141625E-02
(PID.TID 0000.0001) %MON advcfl_W_hf_max              =   4.8203159712891E-02
(PID.TID 0000.0001) %MON pe_b_mean                    =   4.5585000906737E-04
(PID.TID 0000.0001) %MON ke_max                       =   1.5182019365350E-02
(PID.TID 0000.0001) %MON ke_mean                      =   1.7240030824721E-04
(PID.TID 0000.0001) %MON ke_vol                       =   1.3226782436723E+18
(PID.TID 0000.0001) %MON vort_r_min                   =  -3.7200276586686E-07
(PID.TID 0000.0001) %MON vort_r_max                   =   4.3015150241389E-07
(PID.TID 0000.0001) %MON vort_a_mean                  =  -2.5274807511781E-05
(PID.TID 0000.0001) %MON vort_a_sd                    =   7.3604607893806E-05
(PID.TID 0000.0001) %MON vort_p_mean                  =  -3.1845655943525E-05
(PID.TID 0000.0001) %MON vort_p_sd                    =   1.3162411375678E-04
(PID.TID 0000.0001) %MON surfExpan_theta_mean         =   4.1991311163999E-07
(PID.TID 0000.0001) %MON surfExpan_salt_mean          =  -9.5769206577240E-08
(PID.TID 0000.0001) // =======================================================
(PID.TID 0000.0001) // End MONITOR dynamic field statistics
(PID.TID 0000.0001) // =======================================================
 EXTERNAL_FIELDS_LOAD,        63 : iP,iLd,i0,i1=    2    3    2    3 ; Wght=  0.4000000000  0.6000000000
 EXTERNAL_FIELDS_LOAD: (fu0,1),fu,fv= -1.4435E-02 -2.7199E-02 -2.2093E-02 -7.4011E-03
 EXTERNAL_FIELDS_LOAD: SST,SSS,Q,E-P= -3.2309E-01  3.4516E+01  2.2543E+02  8.7993E-06
DEBUG_STATS_RL:          Uvel (THERMODYNAMICS)  min= -1.33971143123924E-01
DEBUG_STATS_RL:          Uvel (THERMODYNAMICS)  max=  1.31274562081387E-01
DEBUG_STATS_RL:          Uvel (THERMODYNAMICS) mean=  5.94407292119551E-03
DEBUG_STATS_RL:          Uvel (THERMODYNAMICS) S.D.=  2.33774212977470E-02
DEBUG_STATS_RL:          Vvel (THERMODYNAMICS)  min= -9.63569473777193E-02
DEBUG_STATS_RL:          Vvel (THERMODYNAMICS)  max=  1.43885559603356E-01
DEBUG_STATS_RL:          Vvel (THERMODYNAMICS) mean=  5.76912771680102E-04
DEBUG_STATS_RL:          Vvel (THERMODYNAMICS) S.D.=  1.48923967600480E-02
DEBUG_STATS_RL:          Wvel (THERMODYNAMICS)  min= -9.64319451948506E-05
DEBUG_STATS_RL:          Wvel (THERMODYNAMICS)  max=  1.11123431745449E-04
DEBUG_STATS_RL:          Wvel (THERMODYNAMICS) mean= -1.52959728993833E-07
DEBUG_STATS_RL:          Wvel (THERMODYNAMICS) S.D.=  1.17564900804737E-05
DEBUG_STATS_RL:         Theta (THERMODYNAMICS)  min= -1.96048854409998E+00
DEBUG_STATS_RL:         Theta (THERMODYNAMICS)  max=  3.06826526071604E+01
DEBUG_STATS_RL:         Theta (THERMODYNAMICS) mean=  3.23999339215234E+00
DEBUG_STATS_RL:         Theta (THERMODYNAMICS) S.D.=  5.87923003085721E+00
DEBUG_STATS_RL:          Salt (THERMODYNAMICS)  min=  2.00000000000000E-02
DEBUG_STATS_RL:          Salt (THERMODYNAMICS)  max=  3.74870983457162E+01
DEBUG_STATS_RL:          Salt (THERMODYNAMICS) mean=  1.88647647195471E+01
DEBUG_STATS_RL:          Salt (THERMODYNAMICS) S.D.=  1.73003010733636E+01
DEBUG_STATS_RL:         GtNm1 (THERMODYNAMICS)  min= -3.22352068538145E-06
DEBUG_STATS_RL:         GtNm1 (THERMODYNAMICS)  max=  1.83786010121075E-06
DEBUG_STATS_RL:         GtNm1 (THERMODYNAMICS) mean=  3.65880772939976E-09
DEBUG_STATS_RL:         GtNm1 (THERMODYNAMICS) S.D.=  1.69148030372274E-07
DEBUG_STATS_RL:         GsNm1 (THERMODYNAMICS)  min= -3.85715368170575E-07
DEBUG_STATS_RL:         GsNm1 (THERMODYNAMICS)  max=  2.65462000359513E-07
DEBUG_STATS_RL:         GsNm1 (THERMODYNAMICS) mean= -3.58957521940969E-10
DEBUG_STATS_RL:         GsNm1 (THERMODYNAMICS) S.D.=  1.65927036485230E-08
DEBUG_STATS_RL:                EtaN (DYNAMICS)  min= -1.98757959270293E+00
DEBUG_STATS_RL:                EtaN (DYNAMICS)  max=  8.11224281078003E-01
DEBUG_STATS_RL:                EtaN (DYNAMICS) mean= -1.70644030429806E-01
DEBUG_STATS_RL:                EtaN (DYNAMICS) S.D.=  7.03225922383862E-01
DEBUG_STATS_RL:                Uvel (DYNAMICS)  min= -1.33971143123924E-01
DEBUG_STATS_RL:                Uvel (DYNAMICS)  max=  1.31274562081387E-01
DEBUG_STATS_RL:                Uvel (DYNAMICS) mean=  5.94407292119551E-03
DEBUG_STATS_RL:                Uvel (DYNAMICS) S.D.=  2.33774212977470E-02
DEBUG_STATS_RL:                Vvel (DYNAMICS)  min= -9.63569473777193E-02
DEBUG_STATS_RL:                Vvel (DYNAMICS)  max=  1.43885559603356E-01
DEBUG_STATS_RL:                Vvel (DYNAMICS) mean=  5.76912771680102E-04
DEBUG_STATS_RL:                Vvel (DYNAMICS) S.D.=  1.48923967600480E-02
DEBUG_STATS_RL:                Wvel (DYNAMICS)  min= -9.64319451948506E-05
DEBUG_STATS_RL:                Wvel (DYNAMICS)  max=  1.11123431745449E-04
DEBUG_STATS_RL:                Wvel (DYNAMICS) mean= -1.52959728993833E-07
DEBUG_STATS_RL:                Wvel (DYNAMICS) S.D.=  1.17564900804737E-05
DEBUG_STATS_RL:               Theta (DYNAMICS)  min= -1.96048854409998E+00
DEBUG_STATS_RL:               Theta (DYNAMICS)  max=  3.06826526071604E+01
DEBUG_STATS_RL:               Theta (DYNAMICS) mean=  3.23999339215234E+00
DEBUG_STATS_RL:               Theta (DYNAMICS) S.D.=  5.87923003085721E+00
DEBUG_STATS_RL:                Salt (DYNAMICS)  min=  2.00000000000000E-02
DEBUG_STATS_RL:                Salt (DYNAMICS)  max=  3.74870983457162E+01
DEBUG_STATS_RL:                Salt (DYNAMICS) mean=  1.88647647195471E+01
DEBUG_STATS_RL:                Salt (DYNAMICS) S.D.=  1.73003010733636E+01
DEBUG_STATS_RL:                  Gu (DYNAMICS)  min= -1.33136208215037E-01
DEBUG_STATS_RL:                  Gu (DYNAMICS)  max=  1.31508556865169E-01
DEBUG_STATS_RL:                  Gu (DYNAMICS) mean=  5.89465406772873E-03
DEBUG_STATS_RL:                  Gu (DYNAMICS) S.D.=  2.38843223437193E-02
DEBUG_STATS_RL:                  Gv (DYNAMICS)  min= -1.04763840480815E-01
DEBUG_STATS_RL:                  Gv (DYNAMICS)  max=  1.45003266274580E-01
DEBUG_STATS_RL:                  Gv (DYNAMICS) mean=  3.24386491799569E-03
DEBUG_STATS_RL:                  Gv (DYNAMICS) S.D.=  1.59478277483128E-02
DEBUG_STATS_RL:               GuNm1 (DYNAMICS)  min= -1.00128493274140E-05
DEBUG_STATS_RL:               GuNm1 (DYNAMICS)  max=  9.42490412858789E-06
DEBUG_STATS_RL:               GuNm1 (DYNAMICS) mean=  8.04996629645108E-09
DEBUG_STATS_RL:               GuNm1 (DYNAMICS) S.D.=  1.20361438342429E-06
DEBUG_STATS_RL:               GvNm1 (DYNAMICS)  min= -1.01696488929397E-05
DEBUG_STATS_RL:               GvNm1 (DYNAMICS)  max=  1.57543478135909E-05
DEBUG_STATS_RL:               GvNm1 (DYNAMICS) mean=  7.43191382920601E-07
DEBUG_STATS_RL:               GvNm1 (DYNAMICS) S.D.=  2.65325637725345E-06
DEBUG_STATS_RL:               GtNm1 (DYNAMICS)  min= -3.22352068538145E-06
DEBUG_STATS_RL:               GtNm1 (DYNAMICS)  max=  1.83786010121075E-06
DEBUG_STATS_RL:               GtNm1 (DYNAMICS) mean=  3.65880772939976E-09
DEBUG_STATS_RL:               GtNm1 (DYNAMICS) S.D.=  1.69148030372274E-07
DEBUG_STATS_RL:               GsNm1 (DYNAMICS)  min= -3.85715368170575E-07
DEBUG_STATS_RL:               GsNm1 (DYNAMICS)  max=  2.65462000359513E-07
DEBUG_STATS_RL:               GsNm1 (DYNAMICS) mean= -3.58957521940969E-10
DEBUG_STATS_RL:               GsNm1 (DYNAMICS) S.D.=  1.65927036485230E-08
DEBUG_STATS_RL:    cg2d_b (SOLVE_FOR_PRESSURE)  min= -1.93066823766853E+04
DEBUG_STATS_RL:    cg2d_b (SOLVE_FOR_PRESSURE)  max=  2.57962266368621E+04
DEBUG_STATS_RL:    cg2d_b (SOLVE_FOR_PRESSURE) mean=  4.50788432396821E+00
DEBUG_STATS_RL:    cg2d_b (SOLVE_FOR_PRESSURE) S.D.=  3.95861753331818E+03
 cg2d: Sum(rhs),rhsMax =   4.04545686347595E-01  1.69436523298956E+00
(PID.TID 0000.0001)  cg2d: iter=     1 ; resid.=  1.66697731781914E-01
(PID.TID 0000.0001)  cg2d: iter=     2 ; resid.=  1.60105121839114E-01
(PID.TID 0000.0001)  cg2d: iter=     3 ; resid.=  1.53570334894086E-01
(PID.TID 0000.0001)  cg2d: iter=     4 ; resid.=  1.36965948147716E-01
(PID.TID 0000.0001)  cg2d: iter=     5 ; resid.=  1.13702990557181E-01
(PID.TID 0000.0001)  cg2d: iter=     6 ; resid.=  9.59089292243532E-02
(PID.TID 0000.0001)  cg2d: iter=     7 ; resid.=  8.66559804478355E-02
(PID.TID 0000.0001)  cg2d: iter=     8 ; resid.=  7.49761476838966E-02
(PID.TID 0000.0001)  cg2d: iter=     9 ; resid.=  5.81379208588911E-02
(PID.TID 0000.0001)  cg2d: iter=    10 ; resid.=  4.86760364063226E-02
(PID.TID 0000.0001)  cg2d: iter=    11 ; resid.=  4.05299517263163E-02
(PID.TID 0000.0001)  cg2d: iter=    12 ; resid.=  3.35049294579494E-02
(PID.TID 0000.0001)  cg2d: iter=    13 ; resid.=  2.63937136865205E-02
(PID.TID 0000.0001)  cg2d: iter=    14 ; resid.=  2.11482268672042E-02
(PID.TID 0000.0001)  cg2d: iter=    15 ; resid.=  1.73854972656575E-02
(PID.TID 0000.0001)  cg2d: iter=    16 ; resid.=  1.45166592070956E-02
(PID.TID 0000.0001)  cg2d: iter=    17 ; resid.=  1.31867709387540E-02
(PID.TID 0000.0001)  cg2d: iter=    18 ; resid.=  1.06653791439884E-02
(PID.TID 0000.0001)  cg2d: iter=    19 ; resid.=  8.89737406049869E-03
(PID.TID 0000.0001)  cg2d: iter=    20 ; resid.=  7.75903026179900E-03
(PID.TID 0000.0001)  cg2d: iter=    21 ; resid.=  6.97998432933630E-03
(PID.TID 0000.0001)  cg2d: iter=    22 ; resid.=  6.03963518648675E-03
(PID.TID 0000.0001)  cg2d: iter=    23 ; resid.=  4.73342304961566E-03
(PID.TID 0000.0001)  cg2d: iter=    24 ; resid.=  3.83359976749632E-03
(PID.TID 0000.0001)  cg2d: iter=    25 ; resid.=  3.08704274369168E-03
(PID.TID 0000.0001)  cg2d: iter=    26 ; resid.=  2.46017951705514E-03
(PID.TID 0000.0001)  cg2d: iter=    27 ; resid.=  2.09882236040293E-03
(PID.TID 0000.0001)  cg2d: iter=    28 ; resid.=  1.76777554609314E-03
(PID.TID 0000.0001)  cg2d: iter=    29 ; resid.=  1.45399706096873E-03
(PID.TID 0000.0001)  cg2d: iter=    30 ; resid.=  1.14518627868962E-03
(PID.TID 0000.0001)  cg2d: iter=    31 ; resid.=  9.07642772687611E-04
(PID.TID 0000.0001)  cg2d: iter=    32 ; resid.=  6.74737057111009E-04
(PID.TID 0000.0001)  cg2d: iter=    33 ; resid.=  5.67259397099168E-04
(PID.TID 0000.0001)  cg2d: iter=    34 ; resid.=  5.12836518478504E-04
(PID.TID 0000.0001)  cg2d: iter=    35 ; resid.=  4.42485708989842E-04
(PID.TID 0000.0001)  cg2d: iter=    36 ; resid.=  3.68703101233784E-04
(PID.TID 0000.0001)  cg2d: iter=    37 ; resid.=  3.00946597982041E-04
(PID.TID 0000.0001)  cg2d: iter=    38 ; resid.=  2.54756122431869E-04
(PID.TID 0000.0001)  cg2d: iter=    39 ; resid.=  2.23227786822301E-04
(PID.TID 0000.0001)  cg2d: iter=    40 ; resid.=  1.88684710745774E-04
(PID.TID 0000.0001)  cg2d: iter=    41 ; resid.=  1.62388878209204E-04
(PID.TID 0000.0001)  cg2d: iter=    42 ; resid.=  1.49251755279934E-04
(PID.TID 0000.0001)  cg2d: iter=    43 ; resid.=  1.28343860504229E-04
(PID.TID 0000.0001)  cg2d: iter=    44 ; resid.=  1.01995369524772E-04
(PID.TID 0000.0001)  cg2d: iter=    45 ; resid.=  8.55684251059593E-05
(PID.TID 0000.0001)  cg2d: iter=    46 ; resid.=  6.90301245322014E-05
(PID.TID 0000.0001)  cg2d: iter=    47 ; resid.=  5.61786327880857E-05
(PID.TID 0000.0001)  cg2d: iter=    48 ; resid.=  4.80103399837738E-05
(PID.TID 0000.0001)  cg2d: iter=    49 ; resid.=  4.21377453221669E-05
(PID.TID 0000.0001)  cg2d: iter=    50 ; resid.=  3.61302405576492E-05
(PID.TID 0000.0001)  cg2d: iter=    51 ; resid.=  3.02985538697593E-05
(PID.TID 0000.0001)  cg2d: iter=    52 ; resid.=  2.47456632459371E-05
(PID.TID 0000.0001)  cg2d: iter=    53 ; resid.=  2.24450899745202E-05
(PID.TID 0000.0001)  cg2d: iter=    54 ; resid.=  1.87998520447884E-05
(PID.TID 0000.0001)  cg2d: iter=    55 ; resid.=  1.62887218700566E-05
(PID.TID 0000.0001)  cg2d: iter=    56 ; resid.=  1.26811276507858E-05
(PID.TID 0000.0001)  cg2d: iter=    57 ; resid.=  9.66050765219223E-06
(PID.TID 0000.0001)  cg2d: iter=    58 ; resid.=  7.61311610968494E-06
(PID.TID 0000.0001)  cg2d: iter=    59 ; resid.=  5.58431642603501E-06
(PID.TID 0000.0001)  cg2d: iter=    60 ; resid.=  4.57687280260509E-06
(PID.TID 0000.0001)  cg2d: iter=    61 ; resid.=  3.67879227249486E-06
(PID.TID 0000.0001)  cg2d: iter=    62 ; resid.=  2.87714308814939E-06
(PID.TID 0000.0001)  cg2d: iter=    63 ; resid.=  2.29269275949005E-06
(PID.TID 0000.0001)  cg2d: iter=    64 ; resid.=  1.77252684314368E-06
(PID.TID 0000.0001)  cg2d: iter=    65 ; resid.=  1.47163732616996E-06
(PID.TID 0000.0001)  cg2d: iter=    66 ; resid.=  1.15486773386713E-06
(PID.TID 0000.0001)  cg2d: iter=    67 ; resid.=  1.00394119478424E-06
(PID.TID 0000.0001)  cg2d: iter=    68 ; resid.=  9.11661989021269E-07
(PID.TID 0000.0001)  cg2d: iter=    69 ; resid.=  7.25381944370864E-07
(PID.TID 0000.0001)  cg2d: iter=    70 ; resid.=  5.87716833355023E-07
(PID.TID 0000.0001)  cg2d: iter=    71 ; resid.=  4.90949441146548E-07
(PID.TID 0000.0001)  cg2d: iter=    72 ; resid.=  4.30869749276372E-07
(PID.TID 0000.0001)  cg2d: iter=    73 ; resid.=  3.70151917024531E-07
(PID.TID 0000.0001)  cg2d: iter=    74 ; resid.=  3.13851487259457E-07
(PID.TID 0000.0001)  cg2d: iter=    75 ; resid.=  2.66426661084301E-07
(PID.TID 0000.0001)  cg2d: iter=    76 ; resid.=  2.18903263337059E-07
(PID.TID 0000.0001)  cg2d: iter=    77 ; resid.=  1.79899645623628E-07
(PID.TID 0000.0001)  cg2d: iter=    78 ; resid.=  1.48280547624563E-07
(PID.TID 0000.0001)  cg2d: iter=    79 ; resid.=  1.21992903318316E-07
(PID.TID 0000.0001)  cg2d: iter=    80 ; resid.=  9.53209037417875E-08
(PID.TID 0000.0001)  cg2d: iter=    81 ; resid.=  7.24931189214135E-08
(PID.TID 0000.0001)  cg2d: iter=    82 ; resid.=  5.49154819270344E-08
(PID.TID 0000.0001)  cg2d: iter=    83 ; resid.=  4.23762955977551E-08
(PID.TID 0000.0001)  cg2d: iter=    84 ; resid.=  3.28029989304936E-08
(PID.TID 0000.0001)  cg2d: iter=    85 ; resid.=  2.35373039339941E-08
(PID.TID 0000.0001)  cg2d: iter=    86 ; resid.=  1.85935158001770E-08
(PID.TID 0000.0001)  cg2d: iter=    87 ; resid.=  1.35022463946744E-08
(PID.TID 0000.0001)  cg2d: iter=    88 ; resid.=  1.05735062543848E-08
(PID.TID 0000.0001)  cg2d: iter=    89 ; resid.=  9.32321743413205E-09
(PID.TID 0000.0001)  cg2d: iter=    90 ; resid.=  8.12490097477652E-09
(PID.TID 0000.0001)  cg2d: iter=    91 ; resid.=  6.15563796053275E-09
(PID.TID 0000.0001)  cg2d: iter=    92 ; resid.=  4.59426526827830E-09
(PID.TID 0000.0001)  cg2d: iter=    93 ; resid.=  3.43595666728626E-09
(PID.TID 0000.0001)  cg2d: iter=    94 ; resid.=  2.69485193606829E-09
(PID.TID 0000.0001)  cg2d: iter=    95 ; resid.=  2.16712041712673E-09
(PID.TID 0000.0001)  cg2d: iter=    96 ; resid.=  1.62708343020878E-09
(PID.TID 0000.0001)  cg2d: iter=    97 ; resid.=  1.22277770743231E-09
(PID.TID 0000.0001)  cg2d: iter=    98 ; resid.=  9.56104223727730E-10
(PID.TID 0000.0001)  cg2d: iter=    99 ; resid.=  8.41375109177913E-10
(PID.TID 0000.0001)  cg2d: iter=   100 ; resid.=  7.38381284404719E-10
(PID.TID 0000.0001)  cg2d: iter=   101 ; resid.=  5.90798373120591E-10
(PID.TID 0000.0001)  cg2d: iter=   102 ; resid.=  4.56806867660258E-10
(PID.TID 0000.0001)  cg2d: iter=   103 ; resid.=  3.63188180235458E-10
(PID.TID 0000.0001)  cg2d: iter=   104 ; resid.=  3.33427257994159E-10
(PID.TID 0000.0001)  cg2d: iter=   105 ; resid.=  2.83875332889268E-10
(PID.TID 0000.0001)  cg2d: iter=   106 ; resid.=  2.38209976330299E-10
(PID.TID 0000.0001)  cg2d: iter=   107 ; resid.=  1.91180143701669E-10
(PID.TID 0000.0001)  cg2d: iter=   108 ; resid.=  1.57283347297225E-10
(PID.TID 0000.0001)  cg2d: iter=   109 ; resid.=  1.20471604562316E-10
(PID.TID 0000.0001)  cg2d: iter=   110 ; resid.=  8.67594538529318E-11
(PID.TID 0000.0001)  cg2d: iter=   111 ; resid.=  6.88055364409109E-11
(PID.TID 0000.0001)  cg2d: iter=   112 ; resid.=  5.00165901633999E-11
(PID.TID 0000.0001)  cg2d: iter=   113 ; resid.=  3.57256703819677E-11
(PID.TID 0000.0001)  cg2d: iter=   114 ; resid.=  2.75031432528269E-11
(PID.TID 0000.0001)  cg2d: iter=   115 ; resid.=  1.94402641079605E-11
(PID.TID 0000.0001)  cg2d: iter=   116 ; resid.=  1.43245297628637E-11
(PID.TID 0000.0001)  cg2d: iter=   117 ; resid.=  1.11420037257060E-11
(PID.TID 0000.0001)  cg2d: iter=   118 ; resid.=  8.21982161059749E-12
(PID.TID 0000.0001)  cg2d: iter=   119 ; resid.=  6.43912294362810E-12
(PID.TID 0000.0001)  cg2d: iter=   120 ; resid.=  5.12828071056495E-12
(PID.TID 0000.0001)  cg2d: iter=   121 ; resid.=  3.84189974282327E-12
(PID.TID 0000.0001)  cg2d: iter=   122 ; resid.=  3.17811075925683E-12
(PID.TID 0000.0001)  cg2d: iter=   123 ; resid.=  2.77087131863606E-12
(PID.TID 0000.0001)  cg2d: iter=   124 ; resid.=  2.24315445926808E-12
(PID.TID 0000.0001)  cg2d: iter=   125 ; resid.=  1.67275167992245E-12
(PID.TID 0000.0001)  cg2d: iter=   126 ; resid.=  1.14410432729926E-12
(PID.TID 0000.0001)  cg2d: iter=   127 ; resid.=  7.45037271409971E-13
(PID.TID 0000.0001)  cg2d: iter=   128 ; resid.=  4.92431184330023E-13
(PID.TID 0000.0001)  cg2d: iter=   129 ; resid.=  3.16731031442711E-13
(PID.TID 0000.0001)  cg2d: iter=   130 ; resid.=  2.20581974857692E-13
(PID.TID 0000.0001)  cg2d: iter=   131 ; resid.=  1.60903950410293E-13
(PID.TID 0000.0001)  cg2d: iter=   132 ; resid.=  1.21033374120193E-13
(PID.TID 0000.0001)  cg2d: iter=   133 ; resid.=  9.18244434989200E-14
DEBUG_STATS_RL:    cg2d_x (SOLVE_FOR_PRESSURE)  min= -1.94053759951293E+01
DEBUG_STATS_RL:    cg2d_x (SOLVE_FOR_PRESSURE)  max=  7.92878183118171E+00
DEBUG_STATS_RL:    cg2d_x (SOLVE_FOR_PRESSURE) mean= -1.69392807311436E+00
DEBUG_STATS_RL:    cg2d_x (SOLVE_FOR_PRESSURE) S.D.=  6.96788497243067E+00
(PID.TID 0000.0001)      cg2d_init_res =   3.10224931056813E-01
(PID.TID 0000.0001)      cg2d_iters(min,last) =      -1     133
(PID.TID 0000.0001)      cg2d_last_res =   9.18244434989200E-14
(PID.TID 0000.0001) // =======================================================
(PID.TID 0000.0001) // Begin MONITOR dynamic field statistics
(PID.TID 0000.0001) // =======================================================
(PID.TID 0000.0001) %MON time_tsnumber                =                    64
(PID.TID 0000.0001) %MON time_secondsf                =   5.5296000000000E+06
(PID.TID 0000.0001) %MON dynstat_eta_max              =   8.0823464130291E-01
(PID.TID 0000.0001) %MON dynstat_eta_min              =  -1.9781219159152E+00
(PID.TID 0000.0001) %MON dynstat_eta_mean             =  -4.7034183328579E-03
(PID.TID 0000.0001) %MON dynstat_eta_sd               =   6.0310595985401E-01
(PID.TID 0000.0001) %MON dynstat_eta_del2             =   2.3966246787131E-03
(PID.TID 0000.0001) %MON dynstat_uvel_max             =   1.2933979628727E-01
(PID.TID 0000.0001) %MON dynstat_uvel_min             =  -1.3446248724425E-01
(PID.TID 0000.0001) %MON dynstat_uvel_mean            =   2.3412441021684E-03
(PID.TID 0000.0001) %MON dynstat_uvel_sd              =   1.6742705539976E-02
(PID.TID 0000.0001) %MON dynstat_uvel_del2            =   1.0568284950939E-04
(PID.TID 0000.0001) %MON dynstat_vvel_max             =   1.4691944100307E-01
(PID.TID 0000.0001) %MON dynstat_vvel_min             =  -9.5044381286686E-02
(PID.TID 0000.0001) %MON dynstat_vvel_mean            =   9.4282820156692E-05
(PID.TID 0000.0001) %MON dynstat_vvel_sd              =   9.8385713301661E-03
(PID.TID 0000.0001) %MON dynstat_vvel_del2            =   8.1367391783165E-05
(PID.TID 0000.0001) %MON dynstat_wvel_max             =   1.1156219822207E-04
(PID.TID 0000.0001) %MON dynstat_wvel_min             =  -9.5591671857955E-05
(PID.TID 0000.0001) %MON dynstat_wvel_mean            =   1.3069458658890E-22
(PID.TID 0000.0001) %MON dynstat_wvel_sd              =   1.3440590505035E-05
(PID.TID 0000.0001) %MON dynstat_wvel_del2            =   1.3382198463367E-07
(PID.TID 0000.0001) %MON dynstat_theta_max            =   3.0682652607160E+01
(PID.TID 0000.0001) %MON dynstat_theta_min            =  -1.9604885441000E+00
(PID.TID 0000.0001) %MON dynstat_theta_mean           =   3.6434039079233E+00
(PID.TID 0000.0001) %MON dynstat_theta_sd             =   4.4246035885698E+00
(PID.TID 0000.0001) %MON dynstat_theta_del2           =   4.9136158419576E-03
(PID.TID 0000.0001) %MON dynstat_salt_max             =   3.7487098345716E+01
(PID.TID 0000.0001) %MON dynstat_salt_min             =   2.9906641496044E+01
(PID.TID 0000.0001) %MON dynstat_salt_mean            =   3.4737969806254E+01
(PID.TID 0000.0001) %MON dynstat_salt_sd              =   2.9641871902409E-01
(PID.TID 0000.0001) %MON dynstat_salt_del2            =   9.9079223219035E-04
(PID.TID 0000.0001) %MON dynstat_sst_max              =   3.0682652607160E+01
(PID.TID 0000.0001) %MON dynstat_sst_min              =  -1.9604885441000E+00
(PID.TID 0000.0001) %MON dynstat_sst_mean             =   1.9030076993082E+01
(PID.TID 0000.0001) %MON dynstat_sst_sd               =   9.0809416595425E+00
(PID.TID 0000.0001) %MON dynstat_sst_del2             =   2.8137274393825E-02
(PID.TID 0000.0001) %MON dynstat_sss_max              =   3.7467115326939E+01
(PID.TID 0000.0001) %MON dynstat_sss_min              =   2.9906641496044E+01
(PID.TID 0000.0001) %MON dynstat_sss_mean             =   3.4859357332117E+01
(PID.TID 0000.0001) %MON dynstat_sss_sd               =   9.8191030051869E-01
(PID.TID 0000.0001) %MON dynstat_sss_del2             =   8.0393726704821E-03
(PID.TID 0000.0001) %MON forcing_qnet_max             =   3.0808551025391E+02
(PID.TID 0000.0001) %MON forcing_qnet_min             =  -1.6744694213867E+02
(PID.TID 0000.0001) %MON forcing_qnet_mean            =  -9.9451399856641E+00
(PID.TID 0000.0001) %MON forcing_qnet_sd              =   5.6487700992384E+01
(PID.TID 0000.0001) %MON forcing_qnet_del2            =   8.7196058081462E-01
(PID.TID 0000.0001) %MON forcing_qsw_max              =   0.0000000000000E+00
(PID.TID 0000.0001) %MON forcing_qsw_min              =   0.0000000000000E+00
(PID.TID 0000.0001) %MON forcing_qsw_mean             =   0.0000000000000E+00
(PID.TID 0000.0001) %MON forcing_qsw_sd               =   0.0000000000000E+00
(PID.TID 0000.0001) %MON forcing_qsw_del2             =   0.0000000000000E+00
(PID.TID 0000.0001) %MON forcing_empmr_max            =   6.9177897898953E-05
(PID.TID 0000.0001) %MON forcing_empmr_min            =  -7.8474262465988E-05
(PID.TID 0000.0001) %MON forcing_empmr_mean           =   7.0779022417096E-07
(PID.TID 0000.0001) %MON forcing_empmr_sd             =   2.6711132545716E-05
(PID.TID 0000.0001) %MON forcing_empmr_del2           =   3.5552428900822E-07
(PID.TID 0000.0001) %MON forcing_fu_max               =   3.3425440788269E-01
(PID.TID 0000.0001) %MON forcing_fu_min               =  -3.1265568137169E-01
(PID.TID 0000.0001) %MON forcing_fu_mean              =   1.9326334226887E-02
(PID.TID 0000.0001) %MON forcing_fu_sd                =   9.6352675211700E-02
(PID.TID 0000.0001) %MON forcing_fu_del2              =   7.2933779422692E-04
(PID.TID 0000.0001) %MON forcing_fv_max               =   1.4972177743912E-01
(PID.TID 0000.0001) %MON forcing_fv_min               =  -1.7535814046860E-01
(PID.TID 0000.0001) %MON forcing_fv_mean              =  -7.4044352404109E-03
(PID.TID 0000.0001) %MON forcing_fv_sd                =   4.1735684182933E-02
(PID.TID 0000.0001) %MON forcing_fv_del2              =   4.6697714482083E-04
(PID.TID 0000.0001) %MON trAdv_CFL_u_max              =   4.2259042103792E-02
(PID.TID 0000.0001) %MON trAdv_CFL_v_max              =   2.7840740813788E-02
(PID.TID 0000.0001) %MON trAdv_CFL_w_max              =   3.8160834772705E-02
(PID.TID 0000.0001) %MON advcfl_uvel_max              =   4.3466302848564E-02
(PID.TID 0000.0001) %MON advcfl_vvel_max              =   2.8544091082351E-02
(PID.TID 0000.0001) %MON advcfl_wvel_max              =   4.3523060738386E-02
(PID.TID 0000.0001) %MON advcfl_W_hf_max              =   4.9249779256594E-02
(PID.TID 0000.0001) %MON pe_b_mean                    =   4.6547338425496E-04
(PID.TID 0000.0001) %MON ke_max                       =   1.4830135980135E-02
(PID.TID 0000.0001) %MON ke_mean                      =   1.7330371452643E-04
(PID.TID 0000.0001) %MON ke_vol                       =   1.3226782436723E+18
(PID.TID 0000.0001) %MON vort_r_min                   =  -3.5685004110952E-07
(PID.TID 0000.0001) %MON vort_r_max                   =   4.6394920310116E-07
(PID.TID 0000.0001) %MON vort_a_mean                  =  -2.5274807397746E-05
(PID.TID 0000.0001) %MON vort_a_sd                    =   7.3604627755873E-05
(PID.TID 0000.0001) %MON vort_p_mean                  =  -3.1845655799844E-05
(PID.TID 0000.0001) %MON vort_p_sd                    =   1.3162417022013E-04
(PID.TID 0000.0001) %MON surfExpan_theta_mean         =   5.2901492761595E-07
(PID.TID 0000.0001) %MON surfExpan_salt_mean          =  -1.3124256643352E-07
(PID.TID 0000.0001) // =======================================================
(PID.TID 0000.0001) // End MONITOR dynamic field statistics
(PID.TID 0000.0001) // =======================================================
 EXTERNAL_FIELDS_LOAD,        64 : iP,iLd,i0,i1=    2    3    2    3 ; Wght=  0.3666666667  0.6333333333
 EXTERNAL_FIELDS_LOAD: (fu0,1),fu,fv= -1.4435E-02 -2.7199E-02 -2.2519E-02 -6.8325E-03
 EXTERNAL_FIELDS_LOAD: SST,SSS,Q,E-P= -3.1149E-01  3.4521E+01  2.2459E+02  8.8228E-06
DEBUG_STATS_RL:          Uvel (THERMODYNAMICS)  min= -1.34462487244250E-01
DEBUG_STATS_RL:          Uvel (THERMODYNAMICS)  max=  1.29339796287270E-01
DEBUG_STATS_RL:          Uvel (THERMODYNAMICS) mean=  6.00406702721316E-03
DEBUG_STATS_RL:          Uvel (THERMODYNAMICS) S.D.=  2.35541408196341E-02
DEBUG_STATS_RL:          Vvel (THERMODYNAMICS)  min= -9.50443812866861E-02
DEBUG_STATS_RL:          Vvel (THERMODYNAMICS)  max=  1.46919441003066E-01
DEBUG_STATS_RL:          Vvel (THERMODYNAMICS) mean=  4.92405464108198E-04
DEBUG_STATS_RL:          Vvel (THERMODYNAMICS) S.D.=  1.47944166248578E-02
DEBUG_STATS_RL:          Wvel (THERMODYNAMICS)  min= -9.55916718579552E-05
DEBUG_STATS_RL:          Wvel (THERMODYNAMICS)  max=  1.11562198222068E-04
DEBUG_STATS_RL:          Wvel (THERMODYNAMICS) mean= -1.61040624624642E-07
DEBUG_STATS_RL:          Wvel (THERMODYNAMICS) S.D.=  1.16513452763818E-05
DEBUG_STATS_RL:         Theta (THERMODYNAMICS)  min= -1.95896552653490E+00
DEBUG_STATS_RL:         Theta (THERMODYNAMICS)  max=  3.07030387122883E+01
DEBUG_STATS_RL:         Theta (THERMODYNAMICS) mean=  3.24015804395167E+00
DEBUG_STATS_RL:         Theta (THERMODYNAMICS) S.D.=  5.87967620492308E+00
DEBUG_STATS_RL:          Salt (THERMODYNAMICS)  min=  2.00000000000000E-02
DEBUG_STATS_RL:          Salt (THERMODYNAMICS)  max=  3.74872011748464E+01
DEBUG_STATS_RL:          Salt (THERMODYNAMICS) mean=  1.88647560633445E+01
DEBUG_STATS_RL:          Salt (THERMODYNAMICS) S.D.=  1.73002937137793E+01
DEBUG_STATS_RL:         GtNm1 (THERMODYNAMICS)  min= -3.24660827131715E-06
DEBUG_STATS_RL:         GtNm1 (THERMODYNAMICS)  max=  2.14202657886088E-06
DEBUG_STATS_RL:         GtNm1 (THERMODYNAMICS) mean=  3.63473795988537E-09
DEBUG_STATS_RL:         GtNm1 (THERMODYNAMICS) S.D.=  1.66812318342133E-07
DEBUG_STATS_RL:         GsNm1 (THERMODYNAMICS)  min= -3.79565587327153E-07
DEBUG_STATS_RL:         GsNm1 (THERMODYNAMICS)  max=  2.58841837011431E-07
DEBUG_STATS_RL:         GsNm1 (THERMODYNAMICS) mean= -3.20117958586762E-10
DEBUG_STATS_RL:         GsNm1 (THERMODYNAMICS) S.D.=  1.62390645559289E-08
DEBUG_STATS_RL:                EtaN (DYNAMICS)  min= -1.97812191591524E+00
DEBUG_STATS_RL:                EtaN (DYNAMICS)  max=  8.08234641302913E-01
DEBUG_STATS_RL:                EtaN (DYNAMICS) mean= -1.72673605822058E-01
DEBUG_STATS_RL:                EtaN (DYNAMICS) S.D.=  7.10283891175398E-01
DEBUG_STATS_RL:                Uvel (DYNAMICS)  min= -1.34462487244250E-01
DEBUG_STATS_RL:                Uvel (DYNAMICS)  max=  1.29339796287270E-01
DEBUG_STATS_RL:                Uvel (DYNAMICS) mean=  6.00406702721316E-03
DEBUG_STATS_RL:                Uvel (DYNAMICS) S.D.=  2.35541408196341E-02
DEBUG_STATS_RL:                Vvel (DYNAMICS)  min= -9.50443812866861E-02
DEBUG_STATS_RL:                Vvel (DYNAMICS)  max=  1.46919441003066E-01
DEBUG_STATS_RL:                Vvel (DYNAMICS) mean=  4.92405464108198E-04
DEBUG_STATS_RL:                Vvel (DYNAMICS) S.D.=  1.47944166248578E-02
DEBUG_STATS_RL:                Wvel (DYNAMICS)  min= -9.55916718579552E-05
DEBUG_STATS_RL:                Wvel (DYNAMICS)  max=  1.11562198222068E-04
DEBUG_STATS_RL:                Wvel (DYNAMICS) mean= -1.61040624624642E-07
DEBUG_STATS_RL:                Wvel (DYNAMICS) S.D.=  1.16513452763818E-05
DEBUG_STATS_RL:               Theta (DYNAMICS)  min= -1.95896552653490E+00
DEBUG_STATS_RL:               Theta (DYNAMICS)  max=  3.07030387122883E+01
DEBUG_STATS_RL:               Theta (DYNAMICS) mean=  3.24015804395167E+00
DEBUG_STATS_RL:               Theta (DYNAMICS) S.D.=  5.87967620492308E+00
DEBUG_STATS_RL:                Salt (DYNAMICS)  min=  2.00000000000000E-02
DEBUG_STATS_RL:                Salt (DYNAMICS)  max=  3.74872011748464E+01
DEBUG_STATS_RL:                Salt (DYNAMICS) mean=  1.88647560633445E+01
DEBUG_STATS_RL:                Salt (DYNAMICS) S.D.=  1.73002937137793E+01
DEBUG_STATS_RL:                  Gu (DYNAMICS)  min= -1.33464651981147E-01
DEBUG_STATS_RL:                  Gu (DYNAMICS)  max=  1.33673762437817E-01
DEBUG_STATS_RL:                  Gu (DYNAMICS) mean=  5.93760057757338E-03
DEBUG_STATS_RL:                  Gu (DYNAMICS) S.D.=  2.40792814322923E-02
DEBUG_STATS_RL:                  Gv (DYNAMICS)  min= -1.05419635000603E-01
DEBUG_STATS_RL:                  Gv (DYNAMICS)  max=  1.47957300109863E-01
DEBUG_STATS_RL:                  Gv (DYNAMICS) mean=  3.21422244403971E-03
DEBUG_STATS_RL:                  Gv (DYNAMICS) S.D.=  1.58127718737097E-02
DEBUG_STATS_RL:               GuNm1 (DYNAMICS)  min= -1.00783050959660E-05
DEBUG_STATS_RL:               GuNm1 (DYNAMICS)  max=  9.42014043481750E-06
DEBUG_STATS_RL:               GuNm1 (DYNAMICS) mean=  7.91210599729624E-09
DEBUG_STATS_RL:               GuNm1 (DYNAMICS) S.D.=  1.20416050371470E-06
DEBUG_STATS_RL:               GvNm1 (DYNAMICS)  min= -1.02294824819263E-05
DEBUG_STATS_RL:               GvNm1 (DYNAMICS)  max=  1.57147450914076E-05
DEBUG_STATS_RL:               GvNm1 (DYNAMICS) mean=  7.42938443768276E-07
DEBUG_STATS_RL:               GvNm1 (DYNAMICS) S.D.=  2.65264946939034E-06
DEBUG_STATS_RL:               GtNm1 (DYNAMICS)  min= -3.24660827131715E-06
DEBUG_STATS_RL:               GtNm1 (DYNAMICS)  max=  2.14202657886088E-06
DEBUG_STATS_RL:               GtNm1 (DYNAMICS) mean=  3.63473795988537E-09
DEBUG_STATS_RL:               GtNm1 (DYNAMICS) S.D.=  1.66812318342133E-07
DEBUG_STATS_RL:               GsNm1 (DYNAMICS)  min= -3.79565587327153E-07
DEBUG_STATS_RL:               GsNm1 (DYNAMICS)  max=  2.58841837011431E-07
DEBUG_STATS_RL:               GsNm1 (DYNAMICS) mean= -3.20117958586762E-10
DEBUG_STATS_RL:               GsNm1 (DYNAMICS) S.D.=  1.62390645559289E-08
DEBUG_STATS_RL:    cg2d_b (SOLVE_FOR_PRESSURE)  min= -1.92213514595688E+04
DEBUG_STATS_RL:    cg2d_b (SOLVE_FOR_PRESSURE)  max=  2.57464369850480E+04
DEBUG_STATS_RL:    cg2d_b (SOLVE_FOR_PRESSURE) mean=  4.56346579419872E+00
DEBUG_STATS_RL:    cg2d_b (SOLVE_FOR_PRESSURE) S.D.=  3.96246642862888E+03
 cg2d: Sum(rhs),rhsMax =   4.10325643105670E-01  1.69109491535032E+00
(PID.TID 0000.0001)  cg2d: iter=     1 ; resid.=  1.74519171922812E-01
(PID.TID 0000.0001)  cg2d: iter=     2 ; resid.=  1.76598013125567E-01
(PID.TID 0000.0001)  cg2d: iter=     3 ; resid.=  1.71297663467747E-01
(PID.TID 0000.0001)  cg2d: iter=     4 ; resid.=  1.51330539428559E-01
(PID.TID 0000.0001)  cg2d: iter=     5 ; resid.=  1.31765432421179E-01
(PID.TID 0000.0001)  cg2d: iter=     6 ; resid.=  1.12981134367263E-01
(PID.TID 0000.0001)  cg2d: iter=     7 ; resid.=  9.73478994900655E-02
(PID.TID 0000.0001)  cg2d: iter=     8 ; resid.=  7.92222681018135E-02
(PID.TID 0000.0001)  cg2d: iter=     9 ; resid.=  6.04158709107320E-02
(PID.TID 0000.0001)  cg2d: iter=    10 ; resid.=  4.98931302292928E-02
(PID.TID 0000.0001)  cg2d: iter=    11 ; resid.=  4.20215581259011E-02
(PID.TID 0000.0001)  cg2d: iter=    12 ; resid.=  3.50763214853729E-02
(PID.TID 0000.0001)  cg2d: iter=    13 ; resid.=  2.78477772977043E-02
(PID.TID 0000.0001)  cg2d: iter=    14 ; resid.=  2.24858802710202E-02
(PID.TID 0000.0001)  cg2d: iter=    15 ; resid.=  1.85210506850913E-02
(PID.TID 0000.0001)  cg2d: iter=    16 ; resid.=  1.58390565082038E-02
(PID.TID 0000.0001)  cg2d: iter=    17 ; resid.=  1.45488653846815E-02
(PID.TID 0000.0001)  cg2d: iter=    18 ; resid.=  1.15719231844087E-02
(PID.TID 0000.0001)  cg2d: iter=    19 ; resid.=  9.56464777970391E-03
(PID.TID 0000.0001)  cg2d: iter=    20 ; resid.=  8.28584961900192E-03
(PID.TID 0000.0001)  cg2d: iter=    21 ; resid.=  7.44136511157949E-03
(PID.TID 0000.0001)  cg2d: iter=    22 ; resid.=  6.44457671852705E-03
(PID.TID 0000.0001)  cg2d: iter=    23 ; resid.=  5.04162793511750E-03
(PID.TID 0000.0001)  cg2d: iter=    24 ; resid.=  4.03966256577391E-03
(PID.TID 0000.0001)  cg2d: iter=    25 ; resid.=  3.21148207170844E-03
(PID.TID 0000.0001)  cg2d: iter=    26 ; resid.=  2.55437139945296E-03
(PID.TID 0000.0001)  cg2d: iter=    27 ; resid.=  2.15258643604211E-03
(PID.TID 0000.0001)  cg2d: iter=    28 ; resid.=  1.79545447119379E-03
(PID.TID 0000.0001)  cg2d: iter=    29 ; resid.=  1.46470391305099E-03
(PID.TID 0000.0001)  cg2d: iter=    30 ; resid.=  1.15835533609471E-03
(PID.TID 0000.0001)  cg2d: iter=    31 ; resid.=  9.12904531932534E-04
(PID.TID 0000.0001)  cg2d: iter=    32 ; resid.=  6.69992329013694E-04
(PID.TID 0000.0001)  cg2d: iter=    33 ; resid.=  5.49647909826493E-04
(PID.TID 0000.0001)  cg2d: iter=    34 ; resid.=  4.99300440603193E-04
(PID.TID 0000.0001)  cg2d: iter=    35 ; resid.=  4.36048786988285E-04
(PID.TID 0000.0001)  cg2d: iter=    36 ; resid.=  3.64967546631736E-04
(PID.TID 0000.0001)  cg2d: iter=    37 ; resid.=  2.97851445016522E-04
(PID.TID 0000.0001)  cg2d: iter=    38 ; resid.=  2.52843347859871E-04
(PID.TID 0000.0001)  cg2d: iter=    39 ; resid.=  2.17423910441990E-04
(PID.TID 0000.0001)  cg2d: iter=    40 ; resid.=  1.79790566440445E-04
(PID.TID 0000.0001)  cg2d: iter=    41 ; resid.=  1.50606555861861E-04
(PID.TID 0000.0001)  cg2d: iter=    42 ; resid.=  1.36352130167901E-04
(PID.TID 0000.0001)  cg2d: iter=    43 ; resid.=  1.16042373743788E-04
(PID.TID 0000.0001)  cg2d: iter=    44 ; resid.=  9.30918952821307E-05
(PID.TID 0000.0001)  cg2d: iter=    45 ; resid.=  7.96326121233479E-05
(PID.TID 0000.0001)  cg2d: iter=    46 ; resid.=  6.32985490602210E-05
(PID.TID 0000.0001)  cg2d: iter=    47 ; resid.=  5.10011571456052E-05
(PID.TID 0000.0001)  cg2d: iter=    48 ; resid.=  4.39836355580713E-05
(PID.TID 0000.0001)  cg2d: iter=    49 ; resid.=  3.95929968281078E-05
(PID.TID 0000.0001)  cg2d: iter=    50 ; resid.=  3.45735591599627E-05
(PID.TID 0000.0001)  cg2d: iter=    51 ; resid.=  2.97630952651886E-05
(PID.TID 0000.0001)  cg2d: iter=    52 ; resid.=  2.51329328840004E-05
(PID.TID 0000.0001)  cg2d: iter=    53 ; resid.=  2.27239767629195E-05
(PID.TID 0000.0001)  cg2d: iter=    54 ; resid.=  1.89599536639758E-05
(PID.TID 0000.0001)  cg2d: iter=    55 ; resid.=  1.64043549930737E-05
(PID.TID 0000.0001)  cg2d: iter=    56 ; resid.=  1.29346733621512E-05
(PID.TID 0000.0001)  cg2d: iter=    57 ; resid.=  9.85417033472283E-06
(PID.TID 0000.0001)  cg2d: iter=    58 ; resid.=  7.82865769700627E-06
(PID.TID 0000.0001)  cg2d: iter=    59 ; resid.=  5.69507629542089E-06
(PID.TID 0000.0001)  cg2d: iter=    60 ; resid.=  4.75374868686015E-06
(PID.TID 0000.0001)  cg2d: iter=    61 ; resid.=  3.91402425918804E-06
(PID.TID 0000.0001)  cg2d: iter=    62 ; resid.=  3.12953172160544E-06
(PID.TID 0000.0001)  cg2d: iter=    63 ; resid.=  2.54228006748488E-06
(PID.TID 0000.0001)  cg2d: iter=    64 ; resid.=  1.98804435988632E-06
(PID.TID 0000.0001)  cg2d: iter=    65 ; resid.=  1.65412037258747E-06
(PID.TID 0000.0001)  cg2d: iter=    66 ; resid.=  1.32203893417787E-06
(PID.TID 0000.0001)  cg2d: iter=    67 ; resid.=  1.17067324086526E-06
(PID.TID 0000.0001)  cg2d: iter=    68 ; resid.=  1.10689627795707E-06
(PID.TID 0000.0001)  cg2d: iter=    69 ; resid.=  8.79268912641228E-07
(PID.TID 0000.0001)  cg2d: iter=    70 ; resid.=  7.21300113903687E-07
(PID.TID 0000.0001)  cg2d: iter=    71 ; resid.=  6.04286687369721E-07
(PID.TID 0000.0001)  cg2d: iter=    72 ; resid.=  5.25377150361983E-07
(PID.TID 0000.0001)  cg2d: iter=    73 ; resid.=  4.53032166071242E-07
(PID.TID 0000.0001)  cg2d: iter=    74 ; resid.=  3.86478354464814E-07
(PID.TID 0000.0001)  cg2d: iter=    75 ; resid.=  3.21210679286893E-07
(PID.TID 0000.0001)  cg2d: iter=    76 ; resid.=  2.56965371027229E-07
(PID.TID 0000.0001)  cg2d: iter=    77 ; resid.=  2.08328625417249E-07
(PID.TID 0000.0001)  cg2d: iter=    78 ; resid.=  1.70053115694988E-07
(PID.TID 0000.0001)  cg2d: iter=    79 ; resid.=  1.34081361421073E-07
(PID.TID 0000.0001)  cg2d: iter=    80 ; resid.=  9.99014469464562E-08
(PID.TID 0000.0001)  cg2d: iter=    81 ; resid.=  7.52053130373789E-08
(PID.TID 0000.0001)  cg2d: iter=    82 ; resid.=  5.63405649205553E-08
(PID.TID 0000.0001)  cg2d: iter=    83 ; resid.=  4.23432716047140E-08
(PID.TID 0000.0001)  cg2d: iter=    84 ; resid.=  3.25964082143208E-08
(PID.TID 0000.0001)  cg2d: iter=    85 ; resid.=  2.31108610180003E-08
(PID.TID 0000.0001)  cg2d: iter=    86 ; resid.=  1.77223084180207E-08
(PID.TID 0000.0001)  cg2d: iter=    87 ; resid.=  1.29625792334344E-08
(PID.TID 0000.0001)  cg2d: iter=    88 ; resid.=  9.97025531099002E-09
(PID.TID 0000.0001)  cg2d: iter=    89 ; resid.=  8.75766876981512E-09
(PID.TID 0000.0001)  cg2d: iter=    90 ; resid.=  7.52865451203526E-09
(PID.TID 0000.0001)  cg2d: iter=    91 ; resid.=  5.92222445726970E-09
(PID.TID 0000.0001)  cg2d: iter=    92 ; resid.=  4.69346420627895E-09
(PID.TID 0000.0001)  cg2d: iter=    93 ; resid.=  3.66240145994365E-09
(PID.TID 0000.0001)  cg2d: iter=    94 ; resid.=  2.90086311427101E-09
(PID.TID 0000.0001)  cg2d: iter=    95 ; resid.=  2.37499266551856E-09
(PID.TID 0000.0001)  cg2d: iter=    96 ; resid.=  1.83829166215611E-09
(PID.TID 0000.0001)  cg2d: iter=    97 ; resid.=  1.43523951905652E-09
(PID.TID 0000.0001)  cg2d: iter=    98 ; resid.=  1.16595271387903E-09
(PID.TID 0000.0001)  cg2d: iter=    99 ; resid.=  1.03374796899138E-09
(PID.TID 0000.0001)  cg2d: iter=   100 ; resid.=  9.03736864591399E-10
(PID.TID 0000.0001)  cg2d: iter=   101 ; resid.=  7.12819673546529E-10
(PID.TID 0000.0001)  cg2d: iter=   102 ; resid.=  5.49892959012743E-10
(PID.TID 0000.0001)  cg2d: iter=   103 ; resid.=  4.37231650773248E-10
(PID.TID 0000.0001)  cg2d: iter=   104 ; resid.=  3.89764830183500E-10
(PID.TID 0000.0001)  cg2d: iter=   105 ; resid.=  3.15773480801007E-10
(PID.TID 0000.0001)  cg2d: iter=   106 ; resid.=  2.60543017104688E-10
(PID.TID 0000.0001)  cg2d: iter=   107 ; resid.=  2.07621610517024E-10
(PID.TID 0000.0001)  cg2d: iter=   108 ; resid.=  1.64385907919907E-10
(PID.TID 0000.0001)  cg2d: iter=   109 ; resid.=  1.22702967423301E-10
(PID.TID 0000.0001)  cg2d: iter=   110 ; resid.=  8.82911792142630E-11
(PID.TID 0000.0001)  cg2d: iter=   111 ; resid.=  6.90747699769193E-11
(PID.TID 0000.0001)  cg2d: iter=   112 ; resid.=  4.93388536663694E-11
(PID.TID 0000.0001)  cg2d: iter=   113 ; resid.=  3.47548792776973E-11
(PID.TID 0000.0001)  cg2d: iter=   114 ; resid.=  2.68963079829526E-11
(PID.TID 0000.0001)  cg2d: iter=   115 ; resid.=  1.93888497622687E-11
(PID.TID 0000.0001)  cg2d: iter=   116 ; resid.=  1.45361642849021E-11
(PID.TID 0000.0001)  cg2d: iter=   117 ; resid.=  1.16845750705031E-11
(PID.TID 0000.0001)  cg2d: iter=   118 ; resid.=  8.78638153289530E-12
(PID.TID 0000.0001)  cg2d: iter=   119 ; resid.=  6.99694279684502E-12
(PID.TID 0000.0001)  cg2d: iter=   120 ; resid.=  5.69524957117653E-12
(PID.TID 0000.0001)  cg2d: iter=   121 ; resid.=  4.31858016073529E-12
(PID.TID 0000.0001)  cg2d: iter=   122 ; resid.=  3.51538506073424E-12
(PID.TID 0000.0001)  cg2d: iter=   123 ; resid.=  2.99610553082651E-12
(PID.TID 0000.0001)  cg2d: iter=   124 ; resid.=  2.39418787935913E-12
(PID.TID 0000.0001)  cg2d: iter=   125 ; resid.=  1.75798394726792E-12
(PID.TID 0000.0001)  cg2d: iter=   126 ; resid.=  1.21275911837894E-12
(PID.TID 0000.0001)  cg2d: iter=   127 ; resid.=  7.73615782820862E-13
(PID.TID 0000.0001)  cg2d: iter=   128 ; resid.=  5.06005205703201E-13
(PID.TID 0000.0001)  cg2d: iter=   129 ; resid.=  3.18438329905474E-13
(PID.TID 0000.0001)  cg2d: iter=   130 ; resid.=  2.07933871452950E-13
(PID.TID 0000.0001)  cg2d: iter=   131 ; resid.=  1.41618159205597E-13
(PID.TID 0000.0001)  cg2d: iter=   132 ; resid.=  9.97021141564220E-14
DEBUG_STATS_RL:    cg2d_x (SOLVE_FOR_PRESSURE)  min= -1.92443057799500E+01
DEBUG_STATS_RL:    cg2d_x (SOLVE_FOR_PRESSURE)  max=  7.88864541136322E+00
DEBUG_STATS_RL:    cg2d_x (SOLVE_FOR_PRESSURE) mean= -1.71865475460653E+00
DEBUG_STATS_RL:    cg2d_x (SOLVE_FOR_PRESSURE) S.D.=  7.04646735451394E+00
(PID.TID 0000.0001)      cg2d_init_res =   3.12408219289656E-01
(PID.TID 0000.0001)      cg2d_iters(min,last) =      -1     132
(PID.TID 0000.0001)      cg2d_last_res =   9.97021141564220E-14
(PID.TID 0000.0001) // =======================================================
(PID.TID 0000.0001) // Begin MONITOR dynamic field statistics
(PID.TID 0000.0001) // =======================================================
(PID.TID 0000.0001) %MON time_tsnumber                =                    65
(PID.TID 0000.0001) %MON time_secondsf                =   5.6160000000000E+06
(PID.TID 0000.0001) %MON dynstat_eta_max              =   8.0414326313589E-01
(PID.TID 0000.0001) %MON dynstat_eta_min              =  -1.9617029337359E+00
(PID.TID 0000.0001) %MON dynstat_eta_mean             =  -4.7614107051681E-03
(PID.TID 0000.0001) %MON dynstat_eta_sd               =   6.1103775869490E-01
(PID.TID 0000.0001) %MON dynstat_eta_del2             =   2.3982795611008E-03
(PID.TID 0000.0001) %MON dynstat_uvel_max             =   1.3474376268308E-01
(PID.TID 0000.0001) %MON dynstat_uvel_min             =  -1.3471938127984E-01
(PID.TID 0000.0001) %MON dynstat_uvel_mean            =   2.3885862952033E-03
(PID.TID 0000.0001) %MON dynstat_uvel_sd              =   1.6836967820275E-02
(PID.TID 0000.0001) %MON dynstat_uvel_del2            =   1.0672818948001E-04
(PID.TID 0000.0001) %MON dynstat_vvel_max             =   1.4961201806578E-01
(PID.TID 0000.0001) %MON dynstat_vvel_min             =  -9.4694864653531E-02
(PID.TID 0000.0001) %MON dynstat_vvel_mean            =   6.0422827277884E-05
(PID.TID 0000.0001) %MON dynstat_vvel_sd              =   9.7632831568456E-03
(PID.TID 0000.0001) %MON dynstat_vvel_del2            =   8.1544082925755E-05
(PID.TID 0000.0001) %MON dynstat_wvel_max             =   1.0948844644248E-04
(PID.TID 0000.0001) %MON dynstat_wvel_min             =  -9.3243339136016E-05
(PID.TID 0000.0001) %MON dynstat_wvel_mean            =  -2.5716877936727E-22
(PID.TID 0000.0001) %MON dynstat_wvel_sd              =   1.3320422354356E-05
(PID.TID 0000.0001) %MON dynstat_wvel_del2            =   1.3241102311342E-07
(PID.TID 0000.0001) %MON dynstat_theta_max            =   3.0703038712288E+01
(PID.TID 0000.0001) %MON dynstat_theta_min            =  -1.9589655265349E+00
(PID.TID 0000.0001) %MON dynstat_theta_mean           =   3.6434448654787E+00
(PID.TID 0000.0001) %MON dynstat_theta_sd             =   4.4247733574962E+00
(PID.TID 0000.0001) %MON dynstat_theta_del2           =   4.9125675435949E-03
(PID.TID 0000.0001) %MON dynstat_salt_max             =   3.7487201174846E+01
(PID.TID 0000.0001) %MON dynstat_salt_min             =   2.9908873519638E+01
(PID.TID 0000.0001) %MON dynstat_salt_mean            =   3.4737974039432E+01
(PID.TID 0000.0001) %MON dynstat_salt_sd              =   2.9643086373397E-01
(PID.TID 0000.0001) %MON dynstat_salt_del2            =   9.9085377330806E-04
(PID.TID 0000.0001) %MON dynstat_sst_max              =   3.0703038712288E+01
(PID.TID 0000.0001) %MON dynstat_sst_min              =  -1.9589655265349E+00
(PID.TID 0000.0001) %MON dynstat_sst_mean             =   1.9035358444859E+01
(PID.TID 0000.0001) %MON dynstat_sst_sd               =   9.0849831308603E+00
(PID.TID 0000.0001) %MON dynstat_sst_del2             =   2.8172786108148E-02
(PID.TID 0000.0001) %MON dynstat_sss_max              =   3.7468018344268E+01
(PID.TID 0000.0001) %MON dynstat_sss_min              =   2.9908873519638E+01
(PID.TID 0000.0001) %MON dynstat_sss_mean             =   3.4859154821437E+01
(PID.TID 0000.0001) %MON dynstat_sss_sd               =   9.8220967094735E-01
(PID.TID 0000.0001) %MON dynstat_sss_del2             =   8.0497634127067E-03
(PID.TID 0000.0001) %MON forcing_qnet_max             =   3.0528735860189E+02
(PID.TID 0000.0001) %MON forcing_qnet_min             =  -1.6714766286214E+02
(PID.TID 0000.0001) %MON forcing_qnet_mean            =  -9.7218004860374E+00
(PID.TID 0000.0001) %MON forcing_qnet_sd              =   5.5429663487321E+01
(PID.TID 0000.0001) %MON forcing_qnet_del2            =   8.6929108009557E-01
(PID.TID 0000.0001) %MON forcing_qsw_max              =   0.0000000000000E+00
(PID.TID 0000.0001) %MON forcing_qsw_min              =   0.0000000000000E+00
(PID.TID 0000.0001) %MON forcing_qsw_mean             =   0.0000000000000E+00
(PID.TID 0000.0001) %MON forcing_qsw_sd               =   0.0000000000000E+00
(PID.TID 0000.0001) %MON forcing_qsw_del2             =   0.0000000000000E+00
(PID.TID 0000.0001) %MON forcing_empmr_max            =   6.9172141555403E-05
(PID.TID 0000.0001) %MON forcing_empmr_min            =  -7.8873442059072E-05
(PID.TID 0000.0001) %MON forcing_empmr_mean           =   6.9470029329661E-07
(PID.TID 0000.0001) %MON forcing_empmr_sd             =   2.6662470783822E-05
(PID.TID 0000.0001) %MON forcing_empmr_del2           =   3.5610054420546E-07
(PID.TID 0000.0001) %MON forcing_fu_max               =   3.3619582355022E-01
(PID.TID 0000.0001) %MON forcing_fu_min               =  -3.1846311191718E-01
(PID.TID 0000.0001) %MON forcing_fu_mean              =   1.9420533816345E-02
(PID.TID 0000.0001) %MON forcing_fu_sd                =   9.6733067225558E-02
(PID.TID 0000.0001) %MON forcing_fu_del2              =   7.3574349447110E-04
(PID.TID 0000.0001) %MON forcing_fv_max               =   1.4864443540573E-01
(PID.TID 0000.0001) %MON forcing_fv_min               =  -1.7685593118270E-01
(PID.TID 0000.0001) %MON forcing_fv_mean              =  -7.4148635903804E-03
(PID.TID 0000.0001) %MON forcing_fv_sd                =   4.1716101821581E-02
(PID.TID 0000.0001) %MON forcing_fv_del2              =   4.6757590300349E-04
(PID.TID 0000.0001) %MON trAdv_CFL_u_max              =   4.3475131165549E-02
(PID.TID 0000.0001) %MON trAdv_CFL_v_max              =   2.8427773355079E-02
(PID.TID 0000.0001) %MON trAdv_CFL_w_max              =   3.8989408578137E-02
(PID.TID 0000.0001) %MON advcfl_uvel_max              =   4.4537612941257E-02
(PID.TID 0000.0001) %MON advcfl_vvel_max              =   2.9067215621891E-02
(PID.TID 0000.0001) %MON advcfl_wvel_max              =   4.3258106182174E-02
(PID.TID 0000.0001) %MON advcfl_W_hf_max              =   4.8949962258775E-02
(PID.TID 0000.0001) %MON pe_b_mean                    =   4.7779727221040E-04
(PID.TID 0000.0001) %MON ke_max                       =   1.4441408743843E-02
(PID.TID 0000.0001) %MON ke_mean                      =   1.7417858957983E-04
(PID.TID 0000.0001) %MON ke_vol                       =   1.3226782436723E+18
(PID.TID 0000.0001) %MON vort_r_min                   =  -3.4186867581067E-07
(PID.TID 0000.0001) %MON vort_r_max                   =   4.9223831453173E-07
(PID.TID 0000.0001) %MON vort_a_mean                  =  -2.5274807270440E-05
(PID.TID 0000.0001) %MON vort_a_sd                    =   7.3604645116427E-05
(PID.TID 0000.0001) %MON vort_p_mean                  =  -3.1845655639441E-05
(PID.TID 0000.0001) %MON vort_p_sd                    =   1.3162424159267E-04
(PID.TID 0000.0001) %MON surfExpan_theta_mean         =   6.2990647586806E-07
(PID.TID 0000.0001) %MON surfExpan_salt_mean          =  -1.6139609092945E-07
(PID.TID 0000.0001) // =======================================================
(PID.TID 0000.0001) // End MONITOR dynamic field statistics
(PID.TID 0000.0001) // =======================================================
 EXTERNAL_FIELDS_LOAD,        65 : iP,iLd,i0,i1=    2    3    2    3 ; Wght=  0.3333333333  0.6666666667
 EXTERNAL_FIELDS_LOAD: (fu0,1),fu,fv= -1.4435E-02 -2.7199E-02 -2.2944E-02 -6.2639E-03
 EXTERNAL_FIELDS_LOAD: SST,SSS,Q,E-P= -2.9989E-01  3.4526E+01  2.2376E+02  8.8463E-06
DEBUG_STATS_RL:          Uvel (THERMODYNAMICS)  min= -1.34719381279842E-01
DEBUG_STATS_RL:          Uvel (THERMODYNAMICS)  max=  1.34743762683084E-01
DEBUG_STATS_RL:          Uvel (THERMODYNAMICS) mean=  6.05057993087229E-03
DEBUG_STATS_RL:          Uvel (THERMODYNAMICS) S.D.=  2.37425472183134E-02
DEBUG_STATS_RL:          Vvel (THERMODYNAMICS)  min= -9.46948646535313E-02
DEBUG_STATS_RL:          Vvel (THERMODYNAMICS)  max=  1.49612018065777E-01
DEBUG_STATS_RL:          Vvel (THERMODYNAMICS) mean=  4.24251349496648E-04
DEBUG_STATS_RL:          Vvel (THERMODYNAMICS) S.D.=  1.46906573336801E-02
DEBUG_STATS_RL:          Wvel (THERMODYNAMICS)  min= -9.32433391360163E-05
DEBUG_STATS_RL:          Wvel (THERMODYNAMICS)  max=  1.09488446442483E-04
DEBUG_STATS_RL:          Wvel (THERMODYNAMICS) mean= -1.64874224509358E-07
DEBUG_STATS_RL:          Wvel (THERMODYNAMICS) S.D.=  1.15486083839147E-05
DEBUG_STATS_RL:         Theta (THERMODYNAMICS)  min= -1.95744993732424E+00
DEBUG_STATS_RL:         Theta (THERMODYNAMICS)  max=  3.07230323666463E+01
DEBUG_STATS_RL:         Theta (THERMODYNAMICS) mean=  3.24030862977206E+00
DEBUG_STATS_RL:         Theta (THERMODYNAMICS) S.D.=  5.88012407911197E+00
DEBUG_STATS_RL:          Salt (THERMODYNAMICS)  min=  2.00000000000000E-02
DEBUG_STATS_RL:          Salt (THERMODYNAMICS)  max=  3.74872652126101E+01
DEBUG_STATS_RL:          Salt (THERMODYNAMICS) mean=  1.88647488639287E+01
DEBUG_STATS_RL:          Salt (THERMODYNAMICS) S.D.=  1.73002878482356E+01
DEBUG_STATS_RL:         GtNm1 (THERMODYNAMICS)  min= -3.11678062597946E-06
DEBUG_STATS_RL:         GtNm1 (THERMODYNAMICS)  max=  1.76878565930932E-06
DEBUG_STATS_RL:         GtNm1 (THERMODYNAMICS) mean=  3.57632820207078E-09
DEBUG_STATS_RL:         GtNm1 (THERMODYNAMICS) S.D.=  1.64972791800572E-07
DEBUG_STATS_RL:         GsNm1 (THERMODYNAMICS)  min= -3.78456883235092E-07
DEBUG_STATS_RL:         GsNm1 (THERMODYNAMICS)  max=  2.61655289500558E-07
DEBUG_STATS_RL:         GsNm1 (THERMODYNAMICS) mean= -2.76807818715387E-10
DEBUG_STATS_RL:         GsNm1 (THERMODYNAMICS) S.D.=  1.59198857007093E-08
DEBUG_STATS_RL:                EtaN (DYNAMICS)  min= -1.96170293373587E+00
DEBUG_STATS_RL:                EtaN (DYNAMICS)  max=  8.04143263135888E-01
DEBUG_STATS_RL:                EtaN (DYNAMICS) mean= -1.75194164587824E-01
DEBUG_STATS_RL:                EtaN (DYNAMICS) S.D.=  7.18294327677261E-01
DEBUG_STATS_RL:                Uvel (DYNAMICS)  min= -1.34719381279842E-01
DEBUG_STATS_RL:                Uvel (DYNAMICS)  max=  1.34743762683084E-01
DEBUG_STATS_RL:                Uvel (DYNAMICS) mean=  6.05057993087229E-03
DEBUG_STATS_RL:                Uvel (DYNAMICS) S.D.=  2.37425472183134E-02
DEBUG_STATS_RL:                Vvel (DYNAMICS)  min= -9.46948646535313E-02
DEBUG_STATS_RL:                Vvel (DYNAMICS)  max=  1.49612018065777E-01
DEBUG_STATS_RL:                Vvel (DYNAMICS) mean=  4.24251349496648E-04
DEBUG_STATS_RL:                Vvel (DYNAMICS) S.D.=  1.46906573336801E-02
DEBUG_STATS_RL:                Wvel (DYNAMICS)  min= -9.32433391360163E-05
DEBUG_STATS_RL:                Wvel (DYNAMICS)  max=  1.09488446442483E-04
DEBUG_STATS_RL:                Wvel (DYNAMICS) mean= -1.64874224509358E-07
DEBUG_STATS_RL:                Wvel (DYNAMICS) S.D.=  1.15486083839147E-05
DEBUG_STATS_RL:               Theta (DYNAMICS)  min= -1.95744993732424E+00
DEBUG_STATS_RL:               Theta (DYNAMICS)  max=  3.07230323666463E+01
DEBUG_STATS_RL:               Theta (DYNAMICS) mean=  3.24030862977206E+00
DEBUG_STATS_RL:               Theta (DYNAMICS) S.D.=  5.88012407911197E+00
DEBUG_STATS_RL:                Salt (DYNAMICS)  min=  2.00000000000000E-02
DEBUG_STATS_RL:                Salt (DYNAMICS)  max=  3.74872652126101E+01
DEBUG_STATS_RL:                Salt (DYNAMICS) mean=  1.88647488639287E+01
DEBUG_STATS_RL:                Salt (DYNAMICS) S.D.=  1.73002878482356E+01
DEBUG_STATS_RL:                  Gu (DYNAMICS)  min= -1.33564626314560E-01
DEBUG_STATS_RL:                  Gu (DYNAMICS)  max=  1.38449420966379E-01
DEBUG_STATS_RL:                  Gu (DYNAMICS) mean=  5.97220439745107E-03
DEBUG_STATS_RL:                  Gu (DYNAMICS) S.D.=  2.42732377971546E-02
DEBUG_STATS_RL:                  Gv (DYNAMICS)  min= -1.05107588107987E-01
DEBUG_STATS_RL:                  Gv (DYNAMICS)  max=  1.50570510486363E-01
DEBUG_STATS_RL:                  Gv (DYNAMICS) mean=  3.19591876601929E-03
DEBUG_STATS_RL:                  Gv (DYNAMICS) S.D.=  1.56864123298107E-02
DEBUG_STATS_RL:               GuNm1 (DYNAMICS)  min= -1.01490480168388E-05
DEBUG_STATS_RL:               GuNm1 (DYNAMICS)  max=  9.41417251641308E-06
DEBUG_STATS_RL:               GuNm1 (DYNAMICS) mean=  7.77503898439890E-09
DEBUG_STATS_RL:               GuNm1 (DYNAMICS) S.D.=  1.20491133280728E-06
DEBUG_STATS_RL:               GvNm1 (DYNAMICS)  min= -1.02761810467098E-05
DEBUG_STATS_RL:               GvNm1 (DYNAMICS)  max=  1.56810273475795E-05
DEBUG_STATS_RL:               GvNm1 (DYNAMICS) mean=  7.42684120320361E-07
DEBUG_STATS_RL:               GvNm1 (DYNAMICS) S.D.=  2.65157445045300E-06
DEBUG_STATS_RL:               GtNm1 (DYNAMICS)  min= -3.11678062597946E-06
DEBUG_STATS_RL:               GtNm1 (DYNAMICS)  max=  1.76878565930932E-06
DEBUG_STATS_RL:               GtNm1 (DYNAMICS) mean=  3.57632820207078E-09
DEBUG_STATS_RL:               GtNm1 (DYNAMICS) S.D.=  1.64972791800572E-07
DEBUG_STATS_RL:               GsNm1 (DYNAMICS)  min= -3.78456883235092E-07
DEBUG_STATS_RL:               GsNm1 (DYNAMICS)  max=  2.61655289500558E-07
DEBUG_STATS_RL:               GsNm1 (DYNAMICS) mean= -2.76807818715387E-10
DEBUG_STATS_RL:               GsNm1 (DYNAMICS) S.D.=  1.59198857007093E-08
DEBUG_STATS_RL:    cg2d_b (SOLVE_FOR_PRESSURE)  min= -1.91424739217365E+04
DEBUG_STATS_RL:    cg2d_b (SOLVE_FOR_PRESSURE)  max=  2.56958953087785E+04
DEBUG_STATS_RL:    cg2d_b (SOLVE_FOR_PRESSURE) mean=  4.61799996732758E+00
DEBUG_STATS_RL:    cg2d_b (SOLVE_FOR_PRESSURE) S.D.=  3.96587393967270E+03
 cg2d: Sum(rhs),rhsMax =   4.16045823502033E-01  1.68777520273136E+00
(PID.TID 0000.0001)  cg2d: iter=     1 ; resid.=  1.82138056386482E-01
(PID.TID 0000.0001)  cg2d: iter=     2 ; resid.=  1.90925736731611E-01
(PID.TID 0000.0001)  cg2d: iter=     3 ; resid.=  1.85258318041210E-01
(PID.TID 0000.0001)  cg2d: iter=     4 ; resid.=  1.62499329902999E-01
(PID.TID 0000.0001)  cg2d: iter=     5 ; resid.=  1.48238302346300E-01
(PID.TID 0000.0001)  cg2d: iter=     6 ; resid.=  1.27491812064951E-01
(PID.TID 0000.0001)  cg2d: iter=     7 ; resid.=  1.04336953522595E-01
(PID.TID 0000.0001)  cg2d: iter=     8 ; resid.=  8.08459678917278E-02
(PID.TID 0000.0001)  cg2d: iter=     9 ; resid.=  6.12821386627933E-02
(PID.TID 0000.0001)  cg2d: iter=    10 ; resid.=  4.97607826317248E-02
(PID.TID 0000.0001)  cg2d: iter=    11 ; resid.=  4.26370599922805E-02
(PID.TID 0000.0001)  cg2d: iter=    12 ; resid.=  3.61512941900033E-02
(PID.TID 0000.0001)  cg2d: iter=    13 ; resid.=  2.90702728810323E-02
(PID.TID 0000.0001)  cg2d: iter=    14 ; resid.=  2.37530592420994E-02
(PID.TID 0000.0001)  cg2d: iter=    15 ; resid.=  1.95489833190521E-02
(PID.TID 0000.0001)  cg2d: iter=    16 ; resid.=  1.69919010745221E-02
(PID.TID 0000.0001)  cg2d: iter=    17 ; resid.=  1.55928289004626E-02
(PID.TID 0000.0001)  cg2d: iter=    18 ; resid.=  1.22201578268008E-02
(PID.TID 0000.0001)  cg2d: iter=    19 ; resid.=  1.00063651395598E-02
(PID.TID 0000.0001)  cg2d: iter=    20 ; resid.=  8.58727186040461E-03
(PID.TID 0000.0001)  cg2d: iter=    21 ; resid.=  7.69609381925456E-03
(PID.TID 0000.0001)  cg2d: iter=    22 ; resid.=  6.71092639782648E-03
(PID.TID 0000.0001)  cg2d: iter=    23 ; resid.=  5.27777445167894E-03
(PID.TID 0000.0001)  cg2d: iter=    24 ; resid.=  4.22319850744807E-03
(PID.TID 0000.0001)  cg2d: iter=    25 ; resid.=  3.30675188856586E-03
(PID.TID 0000.0001)  cg2d: iter=    26 ; resid.=  2.61515970441386E-03
(PID.TID 0000.0001)  cg2d: iter=    27 ; resid.=  2.16419617505297E-03
(PID.TID 0000.0001)  cg2d: iter=    28 ; resid.=  1.78670709892100E-03
(PID.TID 0000.0001)  cg2d: iter=    29 ; resid.=  1.45714887501891E-03
(PID.TID 0000.0001)  cg2d: iter=    30 ; resid.=  1.16237452757678E-03
(PID.TID 0000.0001)  cg2d: iter=    31 ; resid.=  9.16348872901702E-04
(PID.TID 0000.0001)  cg2d: iter=    32 ; resid.=  6.66778309180532E-04
(PID.TID 0000.0001)  cg2d: iter=    33 ; resid.=  5.37434900532955E-04
(PID.TID 0000.0001)  cg2d: iter=    34 ; resid.=  4.88205842767513E-04
(PID.TID 0000.0001)  cg2d: iter=    35 ; resid.=  4.26972912281651E-04
(PID.TID 0000.0001)  cg2d: iter=    36 ; resid.=  3.57809629384513E-04
(PID.TID 0000.0001)  cg2d: iter=    37 ; resid.=  2.92067543979498E-04
(PID.TID 0000.0001)  cg2d: iter=    38 ; resid.=  2.48351259903668E-04
(PID.TID 0000.0001)  cg2d: iter=    39 ; resid.=  2.09110705935402E-04
(PID.TID 0000.0001)  cg2d: iter=    40 ; resid.=  1.69484288403814E-04
(PID.TID 0000.0001)  cg2d: iter=    41 ; resid.=  1.38169422716463E-04
(PID.TID 0000.0001)  cg2d: iter=    42 ; resid.=  1.22196134813835E-04
(PID.TID 0000.0001)  cg2d: iter=    43 ; resid.=  1.01671506019998E-04
(PID.TID 0000.0001)  cg2d: iter=    44 ; resid.=  8.15491167249671E-05
(PID.TID 0000.0001)  cg2d: iter=    45 ; resid.=  7.05813125443088E-05
(PID.TID 0000.0001)  cg2d: iter=    46 ; resid.=  5.49138475428747E-05
(PID.TID 0000.0001)  cg2d: iter=    47 ; resid.=  4.33655948193078E-05
(PID.TID 0000.0001)  cg2d: iter=    48 ; resid.=  3.68788089930837E-05
(PID.TID 0000.0001)  cg2d: iter=    49 ; resid.=  3.29214126214974E-05
(PID.TID 0000.0001)  cg2d: iter=    50 ; resid.=  2.87830825689418E-05
(PID.TID 0000.0001)  cg2d: iter=    51 ; resid.=  2.53891799249668E-05
(PID.TID 0000.0001)  cg2d: iter=    52 ; resid.=  2.22667980616530E-05
(PID.TID 0000.0001)  cg2d: iter=    53 ; resid.=  2.01542742697400E-05
(PID.TID 0000.0001)  cg2d: iter=    54 ; resid.=  1.69951627330554E-05
(PID.TID 0000.0001)  cg2d: iter=    55 ; resid.=  1.48786251389739E-05
(PID.TID 0000.0001)  cg2d: iter=    56 ; resid.=  1.20650428198918E-05
(PID.TID 0000.0001)  cg2d: iter=    57 ; resid.=  9.30560860975809E-06
(PID.TID 0000.0001)  cg2d: iter=    58 ; resid.=  7.47156471216745E-06
(PID.TID 0000.0001)  cg2d: iter=    59 ; resid.=  5.45294830387495E-06
(PID.TID 0000.0001)  cg2d: iter=    60 ; resid.=  4.58444108303417E-06
(PID.TID 0000.0001)  cg2d: iter=    61 ; resid.=  3.89171436169048E-06
(PID.TID 0000.0001)  cg2d: iter=    62 ; resid.=  3.19676289329532E-06
(PID.TID 0000.0001)  cg2d: iter=    63 ; resid.=  2.65496206131598E-06
(PID.TID 0000.0001)  cg2d: iter=    64 ; resid.=  2.09026640778396E-06
(PID.TID 0000.0001)  cg2d: iter=    65 ; resid.=  1.72725407548199E-06
(PID.TID 0000.0001)  cg2d: iter=    66 ; resid.=  1.39800647911306E-06
(PID.TID 0000.0001)  cg2d: iter=    67 ; resid.=  1.24531458214155E-06
(PID.TID 0000.0001)  cg2d: iter=    68 ; resid.=  1.20834153349365E-06
(PID.TID 0000.0001)  cg2d: iter=    69 ; resid.=  9.66960584551440E-07
(PID.TID 0000.0001)  cg2d: iter=    70 ; resid.=  7.97544823741104E-07
(PID.TID 0000.0001)  cg2d: iter=    71 ; resid.=  6.66917716579669E-07
(PID.TID 0000.0001)  cg2d: iter=    72 ; resid.=  5.69063070819600E-07
(PID.TID 0000.0001)  cg2d: iter=    73 ; resid.=  4.89556909416843E-07
(PID.TID 0000.0001)  cg2d: iter=    74 ; resid.=  4.20152267095158E-07
(PID.TID 0000.0001)  cg2d: iter=    75 ; resid.=  3.48388697462777E-07
(PID.TID 0000.0001)  cg2d: iter=    76 ; resid.=  2.76374252354948E-07
(PID.TID 0000.0001)  cg2d: iter=    77 ; resid.=  2.23899795230401E-07
(PID.TID 0000.0001)  cg2d: iter=    78 ; resid.=  1.80069624661535E-07
(PID.TID 0000.0001)  cg2d: iter=    79 ; resid.=  1.36709045243207E-07
(PID.TID 0000.0001)  cg2d: iter=    80 ; resid.=  9.84514683040627E-08
(PID.TID 0000.0001)  cg2d: iter=    81 ; resid.=  7.32941621796069E-08
(PID.TID 0000.0001)  cg2d: iter=    82 ; resid.=  5.40667573187143E-08
(PID.TID 0000.0001)  cg2d: iter=    83 ; resid.=  4.03730689185268E-08
(PID.TID 0000.0001)  cg2d: iter=    84 ; resid.=  3.13263580100534E-08
(PID.TID 0000.0001)  cg2d: iter=    85 ; resid.=  2.24380853050507E-08
(PID.TID 0000.0001)  cg2d: iter=    86 ; resid.=  1.69122383739843E-08
(PID.TID 0000.0001)  cg2d: iter=    87 ; resid.=  1.24517152553418E-08
(PID.TID 0000.0001)  cg2d: iter=    88 ; resid.=  9.46688612676565E-09
(PID.TID 0000.0001)  cg2d: iter=    89 ; resid.=  8.24213475589667E-09
(PID.TID 0000.0001)  cg2d: iter=    90 ; resid.=  6.94574754852706E-09
(PID.TID 0000.0001)  cg2d: iter=    91 ; resid.=  5.66651105600395E-09
(PID.TID 0000.0001)  cg2d: iter=    92 ; resid.=  4.77366365782509E-09
(PID.TID 0000.0001)  cg2d: iter=    93 ; resid.=  3.88945699471615E-09
(PID.TID 0000.0001)  cg2d: iter=    94 ; resid.=  3.14518422630812E-09
(PID.TID 0000.0001)  cg2d: iter=    95 ; resid.=  2.63671780835517E-09
(PID.TID 0000.0001)  cg2d: iter=    96 ; resid.=  2.06241076043887E-09
(PID.TID 0000.0001)  cg2d: iter=    97 ; resid.=  1.61681889552935E-09
(PID.TID 0000.0001)  cg2d: iter=    98 ; resid.=  1.33224957551160E-09
(PID.TID 0000.0001)  cg2d: iter=    99 ; resid.=  1.15809349087369E-09
(PID.TID 0000.0001)  cg2d: iter=   100 ; resid.=  1.00080742198722E-09
(PID.TID 0000.0001)  cg2d: iter=   101 ; resid.=  7.71644067456961E-10
(PID.TID 0000.0001)  cg2d: iter=   102 ; resid.=  5.89072162193672E-10
(PID.TID 0000.0001)  cg2d: iter=   103 ; resid.=  4.59348876710551E-10
(PID.TID 0000.0001)  cg2d: iter=   104 ; resid.=  3.89727004327252E-10
(PID.TID 0000.0001)  cg2d: iter=   105 ; resid.=  3.02238616853493E-10
(PID.TID 0000.0001)  cg2d: iter=   106 ; resid.=  2.45740806034235E-10
(PID.TID 0000.0001)  cg2d: iter=   107 ; resid.=  1.93161993844321E-10
(PID.TID 0000.0001)  cg2d: iter=   108 ; resid.=  1.48986016493924E-10
(PID.TID 0000.0001)  cg2d: iter=   109 ; resid.=  1.10780296323875E-10
(PID.TID 0000.0001)  cg2d: iter=   110 ; resid.=  8.11998867949509E-11
(PID.TID 0000.0001)  cg2d: iter=   111 ; resid.=  6.27226248753996E-11
(PID.TID 0000.0001)  cg2d: iter=   112 ; resid.=  4.43031503586354E-11
(PID.TID 0000.0001)  cg2d: iter=   113 ; resid.=  3.08553031449618E-11
(PID.TID 0000.0001)  cg2d: iter=   114 ; resid.=  2.31790362716169E-11
(PID.TID 0000.0001)  cg2d: iter=   115 ; resid.=  1.65746250610441E-11
(PID.TID 0000.0001)  cg2d: iter=   116 ; resid.=  1.22258068917315E-11
(PID.TID 0000.0001)  cg2d: iter=   117 ; resid.=  9.92896771544006E-12
(PID.TID 0000.0001)  cg2d: iter=   118 ; resid.=  7.45403425973582E-12
(PID.TID 0000.0001)  cg2d: iter=   119 ; resid.=  5.85372972982197E-12
(PID.TID 0000.0001)  cg2d: iter=   120 ; resid.=  4.85801745451725E-12
(PID.TID 0000.0001)  cg2d: iter=   121 ; resid.=  3.74566424417690E-12
(PID.TID 0000.0001)  cg2d: iter=   122 ; resid.=  2.97394151228436E-12
(PID.TID 0000.0001)  cg2d: iter=   123 ; resid.=  2.55299550392116E-12
(PID.TID 0000.0001)  cg2d: iter=   124 ; resid.=  2.13374551607580E-12
(PID.TID 0000.0001)  cg2d: iter=   125 ; resid.=  1.62597975363284E-12
(PID.TID 0000.0001)  cg2d: iter=   126 ; resid.=  1.16924844746383E-12
(PID.TID 0000.0001)  cg2d: iter=   127 ; resid.=  7.59925649960267E-13
(PID.TID 0000.0001)  cg2d: iter=   128 ; resid.=  5.10299056842276E-13
(PID.TID 0000.0001)  cg2d: iter=   129 ; resid.=  3.22713827664045E-13
(PID.TID 0000.0001)  cg2d: iter=   130 ; resid.=  2.05990110036157E-13
(PID.TID 0000.0001)  cg2d: iter=   131 ; resid.=  1.36788068430250E-13
(PID.TID 0000.0001)  cg2d: iter=   132 ; resid.=  9.23227048134041E-14
DEBUG_STATS_RL:    cg2d_x (SOLVE_FOR_PRESSURE)  min= -1.90260670882985E+01
DEBUG_STATS_RL:    cg2d_x (SOLVE_FOR_PRESSURE)  max=  7.84355697276100E+00
DEBUG_STATS_RL:    cg2d_x (SOLVE_FOR_PRESSURE) mean= -1.74760369936482E+00
DEBUG_STATS_RL:    cg2d_x (SOLVE_FOR_PRESSURE) S.D.=  7.13990584666152E+00
(PID.TID 0000.0001)      cg2d_init_res =   3.14997944357549E-01
(PID.TID 0000.0001)      cg2d_iters(min,last) =      -1     132
(PID.TID 0000.0001)      cg2d_last_res =   9.23227048134041E-14
(PID.TID 0000.0001) // =======================================================
(PID.TID 0000.0001) // Begin MONITOR dynamic field statistics
(PID.TID 0000.0001) // =======================================================
(PID.TID 0000.0001) %MON time_tsnumber                =                    66
(PID.TID 0000.0001) %MON time_secondsf                =   5.7024000000000E+06
(PID.TID 0000.0001) %MON dynstat_eta_max              =   7.9954709202458E-01
(PID.TID 0000.0001) %MON dynstat_eta_min              =  -1.9394563800508E+00
(PID.TID 0000.0001) %MON dynstat_eta_mean             =  -4.8183103528140E-03
(PID.TID 0000.0001) %MON dynstat_eta_sd               =   6.2129992249065E-01
(PID.TID 0000.0001) %MON dynstat_eta_del2             =   2.4006300750924E-03
(PID.TID 0000.0001) %MON dynstat_uvel_max             =   1.3952319163313E-01
(PID.TID 0000.0001) %MON dynstat_uvel_min             =  -1.3473349505250E-01
(PID.TID 0000.0001) %MON dynstat_uvel_mean            =   2.4233408032796E-03
(PID.TID 0000.0001) %MON dynstat_uvel_sd              =   1.6927121141358E-02
(PID.TID 0000.0001) %MON dynstat_uvel_del2            =   1.0767621185510E-04
(PID.TID 0000.0001) %MON dynstat_vvel_max             =   1.5194351133990E-01
(PID.TID 0000.0001) %MON dynstat_vvel_min             =  -9.5904644924605E-02
(PID.TID 0000.0001) %MON dynstat_vvel_mean            =   2.4713947562789E-05
(PID.TID 0000.0001) %MON dynstat_vvel_sd              =   9.6800497630428E-03
(PID.TID 0000.0001) %MON dynstat_vvel_del2            =   8.1647933981925E-05
(PID.TID 0000.0001) %MON dynstat_wvel_max             =   1.0510546893217E-04
(PID.TID 0000.0001) %MON dynstat_wvel_min             =  -9.2739463381078E-05
(PID.TID 0000.0001) %MON dynstat_wvel_mean            =  -9.5807526883436E-23
(PID.TID 0000.0001) %MON dynstat_wvel_sd              =   1.3205885927314E-05
(PID.TID 0000.0001) %MON dynstat_wvel_del2            =   1.3087590904706E-07
(PID.TID 0000.0001) %MON dynstat_theta_max            =   3.0723032366646E+01
(PID.TID 0000.0001) %MON dynstat_theta_min            =  -1.9574499373242E+00
(PID.TID 0000.0001) %MON dynstat_theta_mean           =   3.6434824121537E+00
(PID.TID 0000.0001) %MON dynstat_theta_sd             =   4.4249376366827E+00
(PID.TID 0000.0001) %MON dynstat_theta_del2           =   4.9095434944444E-03
(PID.TID 0000.0001) %MON dynstat_salt_max             =   3.7487265212610E+01
(PID.TID 0000.0001) %MON dynstat_salt_min             =   2.9910716071792E+01
(PID.TID 0000.0001) %MON dynstat_salt_mean            =   3.4737978870283E+01
(PID.TID 0000.0001) %MON dynstat_salt_sd              =   2.9644464490754E-01
(PID.TID 0000.0001) %MON dynstat_salt_del2            =   9.9077700840126E-04
(PID.TID 0000.0001) %MON dynstat_sst_max              =   3.0723032366646E+01
(PID.TID 0000.0001) %MON dynstat_sst_min              =  -1.9574499373242E+00
(PID.TID 0000.0001) %MON dynstat_sst_mean             =   1.9040254261810E+01
(PID.TID 0000.0001) %MON dynstat_sst_sd               =   9.0896260543572E+00
(PID.TID 0000.0001) %MON dynstat_sst_del2             =   2.8211398841374E-02
(PID.TID 0000.0001) %MON dynstat_sss_max              =   3.7468916114038E+01
(PID.TID 0000.0001) %MON dynstat_sss_min              =   2.9910716071792E+01
(PID.TID 0000.0001) %MON dynstat_sss_mean             =   3.4858962906395E+01
(PID.TID 0000.0001) %MON dynstat_sss_sd               =   9.8254451049251E-01
(PID.TID 0000.0001) %MON dynstat_sss_del2             =   8.0591302338894E-03
(PID.TID 0000.0001) %MON forcing_qnet_max             =   3.0248920694987E+02
(PID.TID 0000.0001) %MON forcing_qnet_min             =  -1.6684838358561E+02
(PID.TID 0000.0001) %MON forcing_qnet_mean            =  -9.4984609864109E+00
(PID.TID 0000.0001) %MON forcing_qnet_sd              =   5.4405557382944E+01
(PID.TID 0000.0001) %MON forcing_qnet_del2            =   8.6680590177986E-01
(PID.TID 0000.0001) %MON forcing_qsw_max              =   0.0000000000000E+00
(PID.TID 0000.0001) %MON forcing_qsw_min              =   0.0000000000000E+00
(PID.TID 0000.0001) %MON forcing_qsw_mean             =   0.0000000000000E+00
(PID.TID 0000.0001) %MON forcing_qsw_sd               =   0.0000000000000E+00
(PID.TID 0000.0001) %MON forcing_qsw_del2             =   0.0000000000000E+00
(PID.TID 0000.0001) %MON forcing_empmr_max            =   6.9166385211853E-05
(PID.TID 0000.0001) %MON forcing_empmr_min            =  -7.9272621652156E-05
(PID.TID 0000.0001) %MON forcing_empmr_mean           =   6.8161036242225E-07
(PID.TID 0000.0001) %MON forcing_empmr_sd             =   2.6616217830995E-05
(PID.TID 0000.0001) %MON forcing_empmr_del2           =   3.5673956520536E-07
(PID.TID 0000.0001) %MON forcing_fu_max               =   3.3813723921776E-01
(PID.TID 0000.0001) %MON forcing_fu_min               =  -3.2483523090680E-01
(PID.TID 0000.0001) %MON forcing_fu_mean              =   1.9514733405804E-02
(PID.TID 0000.0001) %MON forcing_fu_sd                =   9.7132739592026E-02
(PID.TID 0000.0001) %MON forcing_fu_del2              =   7.4286337191137E-04
(PID.TID 0000.0001) %MON forcing_fv_max               =   1.4849948386351E-01
(PID.TID 0000.0001) %MON forcing_fv_min               =  -1.7835372189681E-01
(PID.TID 0000.0001) %MON forcing_fv_mean              =  -7.4252919403498E-03
(PID.TID 0000.0001) %MON forcing_fv_sd                =   4.1714625157981E-02
(PID.TID 0000.0001) %MON forcing_fv_del2              =   4.6870613924266E-04
(PID.TID 0000.0001) %MON trAdv_CFL_u_max              =   4.4546658848984E-02
(PID.TID 0000.0001) %MON trAdv_CFL_v_max              =   2.8948766151929E-02
(PID.TID 0000.0001) %MON trAdv_CFL_w_max              =   3.8752053454864E-02
(PID.TID 0000.0001) %MON advcfl_uvel_max              =   4.6117384445473E-02
(PID.TID 0000.0001) %MON advcfl_vvel_max              =   2.9520187372397E-02
(PID.TID 0000.0001) %MON advcfl_wvel_max              =   4.1880721291759E-02
(PID.TID 0000.0001) %MON advcfl_W_hf_max              =   4.7559044674066E-02
(PID.TID 0000.0001) %MON pe_b_mean                    =   4.9398062825054E-04
(PID.TID 0000.0001) %MON ke_max                       =   1.4377802272974E-02
(PID.TID 0000.0001) %MON ke_mean                      =   1.7490957145909E-04
(PID.TID 0000.0001) %MON ke_vol                       =   1.3226782436723E+18
(PID.TID 0000.0001) %MON vort_r_min                   =  -3.2718253407707E-07
(PID.TID 0000.0001) %MON vort_r_max                   =   5.1372753254320E-07
(PID.TID 0000.0001) %MON vort_a_mean                  =  -2.5274807136223E-05
(PID.TID 0000.0001) %MON vort_a_sd                    =   7.3604659894114E-05
(PID.TID 0000.0001) %MON vort_p_mean                  =  -3.1845655470331E-05
(PID.TID 0000.0001) %MON vort_p_sd                    =   1.3162432801126E-04
(PID.TID 0000.0001) %MON surfExpan_theta_mean         =   7.1745893088694E-07
(PID.TID 0000.0001) %MON surfExpan_salt_mean          =  -1.8545508597204E-07
(PID.TID 0000.0001) // =======================================================
(PID.TID 0000.0001) // End MONITOR dynamic field statistics
(PID.TID 0000.0001) // =======================================================
 EXTERNAL_FIELDS_LOAD,        66 : iP,iLd,i0,i1=    2    3    2    3 ; Wght=  0.3000000000  0.7000000000
 EXTERNAL_FIELDS_LOAD: (fu0,1),fu,fv= -1.4435E-02 -2.7199E-02 -2.3370E-02 -5.6953E-03
 EXTERNAL_FIELDS_LOAD: SST,SSS,Q,E-P= -2.8829E-01  3.4532E+01  2.2292E+02  8.8697E-06
DEBUG_STATS_RL:          Uvel (THERMODYNAMICS)  min= -1.34733495052499E-01
DEBUG_STATS_RL:          Uvel (THERMODYNAMICS)  max=  1.39523191633134E-01
DEBUG_STATS_RL:          Uvel (THERMODYNAMICS) mean=  6.08725303449343E-03
DEBUG_STATS_RL:          Uvel (THERMODYNAMICS) S.D.=  2.39277537700130E-02
DEBUG_STATS_RL:          Vvel (THERMODYNAMICS)  min= -9.59046449246053E-02
DEBUG_STATS_RL:          Vvel (THERMODYNAMICS)  max=  1.51943511339900E-01
DEBUG_STATS_RL:          Vvel (THERMODYNAMICS) mean=  3.74364007675893E-04
DEBUG_STATS_RL:          Vvel (THERMODYNAMICS) S.D.=  1.45858403106770E-02
DEBUG_STATS_RL:          Wvel (THERMODYNAMICS)  min= -9.27394633810777E-05
DEBUG_STATS_RL:          Wvel (THERMODYNAMICS)  max=  1.05105468932173E-04
DEBUG_STATS_RL:          Wvel (THERMODYNAMICS) mean= -1.64469675171862E-07
DEBUG_STATS_RL:          Wvel (THERMODYNAMICS) S.D.=  1.14482788063359E-05
DEBUG_STATS_RL:         Theta (THERMODYNAMICS)  min= -1.95593801470088E+00
DEBUG_STATS_RL:         Theta (THERMODYNAMICS)  max=  3.07427815921648E+01
DEBUG_STATS_RL:         Theta (THERMODYNAMICS) mean=  3.24045982192584E+00
DEBUG_STATS_RL:         Theta (THERMODYNAMICS) S.D.=  5.88056978305511E+00
DEBUG_STATS_RL:          Salt (THERMODYNAMICS)  min=  2.00000000000000E-02
DEBUG_STATS_RL:          Salt (THERMODYNAMICS)  max=  3.74872901176411E+01
DEBUG_STATS_RL:          Salt (THERMODYNAMICS) mean=  1.88647450548128E+01
DEBUG_STATS_RL:          Salt (THERMODYNAMICS) S.D.=  1.73002851487275E+01
DEBUG_STATS_RL:         GtNm1 (THERMODYNAMICS)  min= -2.73339245142468E-06
DEBUG_STATS_RL:         GtNm1 (THERMODYNAMICS)  max=  2.16479349108235E-06
DEBUG_STATS_RL:         GtNm1 (THERMODYNAMICS) mean=  3.47859909967477E-09
DEBUG_STATS_RL:         GtNm1 (THERMODYNAMICS) S.D.=  1.63417857762251E-07
DEBUG_STATS_RL:         GsNm1 (THERMODYNAMICS)  min= -3.71902658175375E-07
DEBUG_STATS_RL:         GsNm1 (THERMODYNAMICS)  max=  2.66083005441390E-07
DEBUG_STATS_RL:         GsNm1 (THERMODYNAMICS) mean= -2.29096268301707E-10
DEBUG_STATS_RL:         GsNm1 (THERMODYNAMICS) S.D.=  1.55997176229378E-08
DEBUG_STATS_RL:                EtaN (DYNAMICS)  min= -1.93945638005083E+00
DEBUG_STATS_RL:                EtaN (DYNAMICS)  max=  7.99547092024580E-01
DEBUG_STATS_RL:                EtaN (DYNAMICS) mean= -1.78145127356252E-01
DEBUG_STATS_RL:                EtaN (DYNAMICS) S.D.=  7.27819148487416E-01
DEBUG_STATS_RL:                Uvel (DYNAMICS)  min= -1.34733495052499E-01
DEBUG_STATS_RL:                Uvel (DYNAMICS)  max=  1.39523191633134E-01
DEBUG_STATS_RL:                Uvel (DYNAMICS) mean=  6.08725303449343E-03
DEBUG_STATS_RL:                Uvel (DYNAMICS) S.D.=  2.39277537700130E-02
DEBUG_STATS_RL:                Vvel (DYNAMICS)  min= -9.59046449246053E-02
DEBUG_STATS_RL:                Vvel (DYNAMICS)  max=  1.51943511339900E-01
DEBUG_STATS_RL:                Vvel (DYNAMICS) mean=  3.74364007675893E-04
DEBUG_STATS_RL:                Vvel (DYNAMICS) S.D.=  1.45858403106770E-02
DEBUG_STATS_RL:                Wvel (DYNAMICS)  min= -9.27394633810777E-05
DEBUG_STATS_RL:                Wvel (DYNAMICS)  max=  1.05105468932173E-04
DEBUG_STATS_RL:                Wvel (DYNAMICS) mean= -1.64469675171862E-07
DEBUG_STATS_RL:                Wvel (DYNAMICS) S.D.=  1.14482788063359E-05
DEBUG_STATS_RL:               Theta (DYNAMICS)  min= -1.95593801470088E+00
DEBUG_STATS_RL:               Theta (DYNAMICS)  max=  3.07427815921648E+01
DEBUG_STATS_RL:               Theta (DYNAMICS) mean=  3.24045982192584E+00
DEBUG_STATS_RL:               Theta (DYNAMICS) S.D.=  5.88056978305511E+00
DEBUG_STATS_RL:                Salt (DYNAMICS)  min=  2.00000000000000E-02
DEBUG_STATS_RL:                Salt (DYNAMICS)  max=  3.74872901176411E+01
DEBUG_STATS_RL:                Salt (DYNAMICS) mean=  1.88647450548128E+01
DEBUG_STATS_RL:                Salt (DYNAMICS) S.D.=  1.73002851487275E+01
DEBUG_STATS_RL:                  Gu (DYNAMICS)  min= -1.33428576886071E-01
DEBUG_STATS_RL:                  Gu (DYNAMICS)  max=  1.42409540557705E-01
DEBUG_STATS_RL:                  Gu (DYNAMICS) mean=  6.00218985147999E-03
DEBUG_STATS_RL:                  Gu (DYNAMICS) S.D.=  2.44525800179872E-02
DEBUG_STATS_RL:                  Gv (DYNAMICS)  min= -1.03846676714083E-01
DEBUG_STATS_RL:                  Gv (DYNAMICS)  max=  1.52823276252550E-01
DEBUG_STATS_RL:                  Gv (DYNAMICS) mean=  3.18955930441234E-03
DEBUG_STATS_RL:                  Gv (DYNAMICS) S.D.=  1.55752905114986E-02
DEBUG_STATS_RL:               GuNm1 (DYNAMICS)  min= -1.02242735427977E-05
DEBUG_STATS_RL:               GuNm1 (DYNAMICS)  max=  9.40799036164406E-06
DEBUG_STATS_RL:               GuNm1 (DYNAMICS) mean=  7.64406554865874E-09
DEBUG_STATS_RL:               GuNm1 (DYNAMICS) S.D.=  1.20589159636529E-06
DEBUG_STATS_RL:               GvNm1 (DYNAMICS)  min= -1.03087936418293E-05
DEBUG_STATS_RL:               GvNm1 (DYNAMICS)  max=  1.56530629119568E-05
DEBUG_STATS_RL:               GvNm1 (DYNAMICS) mean=  7.42411043717887E-07
DEBUG_STATS_RL:               GvNm1 (DYNAMICS) S.D.=  2.65010421425507E-06
DEBUG_STATS_RL:               GtNm1 (DYNAMICS)  min= -2.73339245142468E-06
DEBUG_STATS_RL:               GtNm1 (DYNAMICS)  max=  2.16479349108235E-06
DEBUG_STATS_RL:               GtNm1 (DYNAMICS) mean=  3.47859909967477E-09
DEBUG_STATS_RL:               GtNm1 (DYNAMICS) S.D.=  1.63417857762251E-07
DEBUG_STATS_RL:               GsNm1 (DYNAMICS)  min= -3.71902658175375E-07
DEBUG_STATS_RL:               GsNm1 (DYNAMICS)  max=  2.66083005441390E-07
DEBUG_STATS_RL:               GsNm1 (DYNAMICS) mean= -2.29096268301707E-10
DEBUG_STATS_RL:               GsNm1 (DYNAMICS) S.D.=  1.55997176229378E-08
DEBUG_STATS_RL:    cg2d_b (SOLVE_FOR_PRESSURE)  min= -1.90733720133559E+04
DEBUG_STATS_RL:    cg2d_b (SOLVE_FOR_PRESSURE)  max=  2.56499457400476E+04
DEBUG_STATS_RL:    cg2d_b (SOLVE_FOR_PRESSURE) mean=  4.67148684335503E+00
DEBUG_STATS_RL:    cg2d_b (SOLVE_FOR_PRESSURE) S.D.=  3.96922689310610E+03
 cg2d: Sum(rhs),rhsMax =   4.21618515375093E-01  1.68475711203056E+00
(PID.TID 0000.0001)  cg2d: iter=     1 ; resid.=  1.88596602507234E-01
(PID.TID 0000.0001)  cg2d: iter=     2 ; resid.=  2.01495004841482E-01
(PID.TID 0000.0001)  cg2d: iter=     3 ; resid.=  1.94057743402588E-01
(PID.TID 0000.0001)  cg2d: iter=     4 ; resid.=  1.70356436054169E-01
(PID.TID 0000.0001)  cg2d: iter=     5 ; resid.=  1.61478584608904E-01
(PID.TID 0000.0001)  cg2d: iter=     6 ; resid.=  1.38253288047394E-01
(PID.TID 0000.0001)  cg2d: iter=     7 ; resid.=  1.08150972041254E-01
(PID.TID 0000.0001)  cg2d: iter=     8 ; resid.=  8.10946890014581E-02
(PID.TID 0000.0001)  cg2d: iter=     9 ; resid.=  6.12805915719503E-02
(PID.TID 0000.0001)  cg2d: iter=    10 ; resid.=  4.87098060678732E-02
(PID.TID 0000.0001)  cg2d: iter=    11 ; resid.=  4.25347667525159E-02
(PID.TID 0000.0001)  cg2d: iter=    12 ; resid.=  3.66959046744520E-02
(PID.TID 0000.0001)  cg2d: iter=    13 ; resid.=  2.99311959351618E-02
(PID.TID 0000.0001)  cg2d: iter=    14 ; resid.=  2.48112930403953E-02
(PID.TID 0000.0001)  cg2d: iter=    15 ; resid.=  2.03241205923468E-02
(PID.TID 0000.0001)  cg2d: iter=    16 ; resid.=  1.78403797005201E-02
(PID.TID 0000.0001)  cg2d: iter=    17 ; resid.=  1.62054937816898E-02
(PID.TID 0000.0001)  cg2d: iter=    18 ; resid.=  1.26046396956858E-02
(PID.TID 0000.0001)  cg2d: iter=    19 ; resid.=  1.02221288655022E-02
(PID.TID 0000.0001)  cg2d: iter=    20 ; resid.=  8.63392961760518E-03
(PID.TID 0000.0001)  cg2d: iter=    21 ; resid.=  7.75427835165647E-03
(PID.TID 0000.0001)  cg2d: iter=    22 ; resid.=  6.84082119143237E-03
(PID.TID 0000.0001)  cg2d: iter=    23 ; resid.=  5.43828156367461E-03
(PID.TID 0000.0001)  cg2d: iter=    24 ; resid.=  4.36771719042797E-03
(PID.TID 0000.0001)  cg2d: iter=    25 ; resid.=  3.37144047025891E-03
(PID.TID 0000.0001)  cg2d: iter=    26 ; resid.=  2.64061794924496E-03
(PID.TID 0000.0001)  cg2d: iter=    27 ; resid.=  2.13600585830553E-03
(PID.TID 0000.0001)  cg2d: iter=    28 ; resid.=  1.73856398170440E-03
(PID.TID 0000.0001)  cg2d: iter=    29 ; resid.=  1.42451862714775E-03
(PID.TID 0000.0001)  cg2d: iter=    30 ; resid.=  1.15231410593816E-03
(PID.TID 0000.0001)  cg2d: iter=    31 ; resid.=  9.16919966812330E-04
(PID.TID 0000.0001)  cg2d: iter=    32 ; resid.=  6.65674257862000E-04
(PID.TID 0000.0001)  cg2d: iter=    33 ; resid.=  5.34146163922453E-04
(PID.TID 0000.0001)  cg2d: iter=    34 ; resid.=  4.83344945656818E-04
(PID.TID 0000.0001)  cg2d: iter=    35 ; resid.=  4.19517476219208E-04
(PID.TID 0000.0001)  cg2d: iter=    36 ; resid.=  3.51884148543549E-04
(PID.TID 0000.0001)  cg2d: iter=    37 ; resid.=  2.87613554524411E-04
(PID.TID 0000.0001)  cg2d: iter=    38 ; resid.=  2.44816571507653E-04
(PID.TID 0000.0001)  cg2d: iter=    39 ; resid.=  2.03280348729778E-04
(PID.TID 0000.0001)  cg2d: iter=    40 ; resid.=  1.63546617802045E-04
(PID.TID 0000.0001)  cg2d: iter=    41 ; resid.=  1.30572325399283E-04
(PID.TID 0000.0001)  cg2d: iter=    42 ; resid.=  1.12590477390780E-04
(PID.TID 0000.0001)  cg2d: iter=    43 ; resid.=  9.08247289023579E-05
(PID.TID 0000.0001)  cg2d: iter=    44 ; resid.=  7.21334836163313E-05
(PID.TID 0000.0001)  cg2d: iter=    45 ; resid.=  6.24195580519117E-05
(PID.TID 0000.0001)  cg2d: iter=    46 ; resid.=  4.74055601420096E-05
(PID.TID 0000.0001)  cg2d: iter=    47 ; resid.=  3.66120533285172E-05
(PID.TID 0000.0001)  cg2d: iter=    48 ; resid.=  2.99887272003644E-05
(PID.TID 0000.0001)  cg2d: iter=    49 ; resid.=  2.56097417217201E-05
(PID.TID 0000.0001)  cg2d: iter=    50 ; resid.=  2.17282320212788E-05
(PID.TID 0000.0001)  cg2d: iter=    51 ; resid.=  1.90933034511796E-05
(PID.TID 0000.0001)  cg2d: iter=    52 ; resid.=  1.69286022633546E-05
(PID.TID 0000.0001)  cg2d: iter=    53 ; resid.=  1.52266113106161E-05
(PID.TID 0000.0001)  cg2d: iter=    54 ; resid.=  1.29584505515593E-05
(PID.TID 0000.0001)  cg2d: iter=    55 ; resid.=  1.15082365445238E-05
(PID.TID 0000.0001)  cg2d: iter=    56 ; resid.=  9.66095324424474E-06
(PID.TID 0000.0001)  cg2d: iter=    57 ; resid.=  7.62966836093319E-06
(PID.TID 0000.0001)  cg2d: iter=    58 ; resid.=  6.18611477378425E-06
(PID.TID 0000.0001)  cg2d: iter=    59 ; resid.=  4.52066407110071E-06
(PID.TID 0000.0001)  cg2d: iter=    60 ; resid.=  3.75195843231828E-06
(PID.TID 0000.0001)  cg2d: iter=    61 ; resid.=  3.24259063106814E-06
(PID.TID 0000.0001)  cg2d: iter=    62 ; resid.=  2.73297695255991E-06
(PID.TID 0000.0001)  cg2d: iter=    63 ; resid.=  2.32184884312411E-06
(PID.TID 0000.0001)  cg2d: iter=    64 ; resid.=  1.83928079980457E-06
(PID.TID 0000.0001)  cg2d: iter=    65 ; resid.=  1.49159033637874E-06
(PID.TID 0000.0001)  cg2d: iter=    66 ; resid.=  1.20080687056354E-06
(PID.TID 0000.0001)  cg2d: iter=    67 ; resid.=  1.04955254872195E-06
(PID.TID 0000.0001)  cg2d: iter=    68 ; resid.=  1.03974070585275E-06
(PID.TID 0000.0001)  cg2d: iter=    69 ; resid.=  8.63701454600635E-07
(PID.TID 0000.0001)  cg2d: iter=    70 ; resid.=  7.30073826546225E-07
(PID.TID 0000.0001)  cg2d: iter=    71 ; resid.=  6.16271111239908E-07
(PID.TID 0000.0001)  cg2d: iter=    72 ; resid.=  5.27171041816841E-07
(PID.TID 0000.0001)  cg2d: iter=    73 ; resid.=  4.60695725481078E-07
(PID.TID 0000.0001)  cg2d: iter=    74 ; resid.=  4.03880899152264E-07
(PID.TID 0000.0001)  cg2d: iter=    75 ; resid.=  3.41841166167007E-07
(PID.TID 0000.0001)  cg2d: iter=    76 ; resid.=  2.75534543502081E-07
(PID.TID 0000.0001)  cg2d: iter=    77 ; resid.=  2.27178410052874E-07
(PID.TID 0000.0001)  cg2d: iter=    78 ; resid.=  1.81867814896556E-07
(PID.TID 0000.0001)  cg2d: iter=    79 ; resid.=  1.37075469121708E-07
(PID.TID 0000.0001)  cg2d: iter=    80 ; resid.=  9.75158512332866E-08
(PID.TID 0000.0001)  cg2d: iter=    81 ; resid.=  7.17721494744665E-08
(PID.TID 0000.0001)  cg2d: iter=    82 ; resid.=  5.17094149518106E-08
(PID.TID 0000.0001)  cg2d: iter=    83 ; resid.=  3.82126016465686E-08
(PID.TID 0000.0001)  cg2d: iter=    84 ; resid.=  2.98418291890893E-08
(PID.TID 0000.0001)  cg2d: iter=    85 ; resid.=  2.17320241342574E-08
(PID.TID 0000.0001)  cg2d: iter=    86 ; resid.=  1.63466414388113E-08
(PID.TID 0000.0001)  cg2d: iter=    87 ; resid.=  1.23895883162551E-08
(PID.TID 0000.0001)  cg2d: iter=    88 ; resid.=  9.47182962817891E-09
(PID.TID 0000.0001)  cg2d: iter=    89 ; resid.=  8.30251156924491E-09
(PID.TID 0000.0001)  cg2d: iter=    90 ; resid.=  6.92166451684448E-09
(PID.TID 0000.0001)  cg2d: iter=    91 ; resid.=  5.74592139295115E-09
(PID.TID 0000.0001)  cg2d: iter=    92 ; resid.=  5.00176591404858E-09
(PID.TID 0000.0001)  cg2d: iter=    93 ; resid.=  4.16853845742703E-09
(PID.TID 0000.0001)  cg2d: iter=    94 ; resid.=  3.41603240162822E-09
(PID.TID 0000.0001)  cg2d: iter=    95 ; resid.=  2.89225742889308E-09
(PID.TID 0000.0001)  cg2d: iter=    96 ; resid.=  2.23287742483198E-09
(PID.TID 0000.0001)  cg2d: iter=    97 ; resid.=  1.71479526354350E-09
(PID.TID 0000.0001)  cg2d: iter=    98 ; resid.=  1.40547323063645E-09
(PID.TID 0000.0001)  cg2d: iter=    99 ; resid.=  1.18482371297363E-09
(PID.TID 0000.0001)  cg2d: iter=   100 ; resid.=  1.01663998490611E-09
(PID.TID 0000.0001)  cg2d: iter=   101 ; resid.=  7.74180857710908E-10
(PID.TID 0000.0001)  cg2d: iter=   102 ; resid.=  5.93127641079173E-10
(PID.TID 0000.0001)  cg2d: iter=   103 ; resid.=  4.60381292783930E-10
(PID.TID 0000.0001)  cg2d: iter=   104 ; resid.=  3.77381343371341E-10
(PID.TID 0000.0001)  cg2d: iter=   105 ; resid.=  2.85769692935795E-10
(PID.TID 0000.0001)  cg2d: iter=   106 ; resid.=  2.28280148237728E-10
(PID.TID 0000.0001)  cg2d: iter=   107 ; resid.=  1.73209135928675E-10
(PID.TID 0000.0001)  cg2d: iter=   108 ; resid.=  1.29840168556327E-10
(PID.TID 0000.0001)  cg2d: iter=   109 ; resid.=  9.59235998867408E-11
(PID.TID 0000.0001)  cg2d: iter=   110 ; resid.=  7.09868859771088E-11
(PID.TID 0000.0001)  cg2d: iter=   111 ; resid.=  5.45284693037131E-11
(PID.TID 0000.0001)  cg2d: iter=   112 ; resid.=  3.86736708555069E-11
(PID.TID 0000.0001)  cg2d: iter=   113 ; resid.=  2.68024699816196E-11
(PID.TID 0000.0001)  cg2d: iter=   114 ; resid.=  1.90285129075519E-11
(PID.TID 0000.0001)  cg2d: iter=   115 ; resid.=  1.30085333739555E-11
(PID.TID 0000.0001)  cg2d: iter=   116 ; resid.=  8.90600276921600E-12
(PID.TID 0000.0001)  cg2d: iter=   117 ; resid.=  6.70211086198994E-12
(PID.TID 0000.0001)  cg2d: iter=   118 ; resid.=  4.60487785733907E-12
(PID.TID 0000.0001)  cg2d: iter=   119 ; resid.=  3.17697828127146E-12
(PID.TID 0000.0001)  cg2d: iter=   120 ; resid.=  2.32670292899781E-12
(PID.TID 0000.0001)  cg2d: iter=   121 ; resid.=  1.57235342972988E-12
(PID.TID 0000.0001)  cg2d: iter=   122 ; resid.=  9.86959290524865E-13
(PID.TID 0000.0001)  cg2d: iter=   123 ; resid.=  6.55268019275103E-13
(PID.TID 0000.0001)  cg2d: iter=   124 ; resid.=  4.69268003179419E-13
(PID.TID 0000.0001)  cg2d: iter=   125 ; resid.=  3.51443694476077E-13
(PID.TID 0000.0001)  cg2d: iter=   126 ; resid.=  2.86629681377335E-13
(PID.TID 0000.0001)  cg2d: iter=   127 ; resid.=  2.26109434277529E-13
(PID.TID 0000.0001)  cg2d: iter=   128 ; resid.=  1.89649334437577E-13
(PID.TID 0000.0001)  cg2d: iter=   129 ; resid.=  1.49021705165638E-13
(PID.TID 0000.0001)  cg2d: iter=   130 ; resid.=  1.10761519358023E-13
(PID.TID 0000.0001)  cg2d: iter=   131 ; resid.=  8.22763123600470E-14
DEBUG_STATS_RL:    cg2d_x (SOLVE_FOR_PRESSURE)  min= -1.87629534274176E+01
DEBUG_STATS_RL:    cg2d_x (SOLVE_FOR_PRESSURE)  max=  8.26655040949260E+00
DEBUG_STATS_RL:    cg2d_x (SOLVE_FOR_PRESSURE) mean= -1.78000162992956E+00
DEBUG_STATS_RL:    cg2d_x (SOLVE_FOR_PRESSURE) S.D.=  7.25246079243541E+00
(PID.TID 0000.0001)      cg2d_init_res =   3.17081190849233E-01
(PID.TID 0000.0001)      cg2d_iters(min,last) =      -1     131
(PID.TID 0000.0001)      cg2d_last_res =   8.22763123600470E-14
(PID.TID 0000.0001) // =======================================================
(PID.TID 0000.0001) // Begin MONITOR dynamic field statistics
(PID.TID 0000.0001) // =======================================================
(PID.TID 0000.0001) %MON time_tsnumber                =                    67
(PID.TID 0000.0001) %MON time_secondsf                =   5.7888000000000E+06
(PID.TID 0000.0001) %MON dynstat_eta_max              =   8.4266568904105E-01
(PID.TID 0000.0001) %MON dynstat_eta_min              =  -1.9126354156389E+00
(PID.TID 0000.0001) %MON dynstat_eta_mean             =  -4.8741172757945E-03
(PID.TID 0000.0001) %MON dynstat_eta_sd               =   6.3431354903091E-01
(PID.TID 0000.0001) %MON dynstat_eta_del2             =   2.4038758524284E-03
(PID.TID 0000.0001) %MON dynstat_uvel_max             =   1.4349946006381E-01
(PID.TID 0000.0001) %MON dynstat_uvel_min             =  -1.3449889685018E-01
(PID.TID 0000.0001) %MON dynstat_uvel_mean            =   2.4479454969429E-03
(PID.TID 0000.0001) %MON dynstat_uvel_sd              =   1.7004816158761E-02
(PID.TID 0000.0001) %MON dynstat_uvel_del2            =   1.0848735632016E-04
(PID.TID 0000.0001) %MON dynstat_vvel_max             =   1.5389730208829E-01
(PID.TID 0000.0001) %MON dynstat_vvel_min             =  -9.6888227393510E-02
(PID.TID 0000.0001) %MON dynstat_vvel_mean            =  -1.1016967331580E-05
(PID.TID 0000.0001) %MON dynstat_vvel_sd              =   9.5922562559261E-03
(PID.TID 0000.0001) %MON dynstat_vvel_del2            =   8.1668451845686E-05
(PID.TID 0000.0001) %MON dynstat_wvel_max             =   9.8684055162102E-05
(PID.TID 0000.0001) %MON dynstat_wvel_min             =  -9.3330436266865E-05
(PID.TID 0000.0001) %MON dynstat_wvel_mean            =  -3.9485912743557E-23
(PID.TID 0000.0001) %MON dynstat_wvel_sd              =   1.3098471641777E-05
(PID.TID 0000.0001) %MON dynstat_wvel_del2            =   1.2925906548858E-07
(PID.TID 0000.0001) %MON dynstat_theta_max            =   3.0742781592165E+01
(PID.TID 0000.0001) %MON dynstat_theta_min            =  -1.9559380147009E+00
(PID.TID 0000.0001) %MON dynstat_theta_mean           =   3.6435169095956E+00
(PID.TID 0000.0001) %MON dynstat_theta_sd             =   4.4250960006622E+00
(PID.TID 0000.0001) %MON dynstat_theta_del2           =   4.9057970652801E-03
(PID.TID 0000.0001) %MON dynstat_salt_max             =   3.7487290117641E+01
(PID.TID 0000.0001) %MON dynstat_salt_min             =   2.9912189179239E+01
(PID.TID 0000.0001) %MON dynstat_salt_mean            =   3.4737984150958E+01
(PID.TID 0000.0001) %MON dynstat_salt_sd              =   2.9645953797072E-01
(PID.TID 0000.0001) %MON dynstat_salt_del2            =   9.9070012437564E-04
(PID.TID 0000.0001) %MON dynstat_sst_max              =   3.0742781592165E+01
(PID.TID 0000.0001) %MON dynstat_sst_min              =  -1.9559380147009E+00
(PID.TID 0000.0001) %MON dynstat_sst_mean             =   1.9044989433829E+01
(PID.TID 0000.0001) %MON dynstat_sst_sd               =   9.0944058392870E+00
(PID.TID 0000.0001) %MON dynstat_sst_del2             =   2.8255247693817E-02
(PID.TID 0000.0001) %MON dynstat_sss_max              =   3.7469804535896E+01
(PID.TID 0000.0001) %MON dynstat_sss_min              =   2.9912189179239E+01
(PID.TID 0000.0001) %MON dynstat_sss_mean             =   3.4858811007111E+01
(PID.TID 0000.0001) %MON dynstat_sss_sd               =   9.8288060887001E-01
(PID.TID 0000.0001) %MON dynstat_sss_del2             =   8.0682017887259E-03
(PID.TID 0000.0001) %MON forcing_qnet_max             =   2.9969105529785E+02
(PID.TID 0000.0001) %MON forcing_qnet_min             =  -1.6654910430908E+02
(PID.TID 0000.0001) %MON forcing_qnet_mean            =  -9.2751214867842E+00
(PID.TID 0000.0001) %MON forcing_qnet_sd              =   5.3417334292331E+01
(PID.TID 0000.0001) %MON forcing_qnet_del2            =   8.6450663547171E-01
(PID.TID 0000.0001) %MON forcing_qsw_max              =   0.0000000000000E+00
(PID.TID 0000.0001) %MON forcing_qsw_min              =   0.0000000000000E+00
(PID.TID 0000.0001) %MON forcing_qsw_mean             =   0.0000000000000E+00
(PID.TID 0000.0001) %MON forcing_qsw_sd               =   0.0000000000000E+00
(PID.TID 0000.0001) %MON forcing_qsw_del2             =   0.0000000000000E+00
(PID.TID 0000.0001) %MON forcing_empmr_max            =   6.9160628868303E-05
(PID.TID 0000.0001) %MON forcing_empmr_min            =  -7.9671801245240E-05
(PID.TID 0000.0001) %MON forcing_empmr_mean           =   6.6852043154790E-07
(PID.TID 0000.0001) %MON forcing_empmr_sd             =   2.6572386265845E-05
(PID.TID 0000.0001) %MON forcing_empmr_del2           =   3.5744101537631E-07
(PID.TID 0000.0001) %MON forcing_fu_max               =   3.4007865488529E-01
(PID.TID 0000.0001) %MON forcing_fu_min               =  -3.3120734989643E-01
(PID.TID 0000.0001) %MON forcing_fu_mean              =   1.9608932995262E-02
(PID.TID 0000.0001) %MON forcing_fu_sd                =   9.7551455334173E-02
(PID.TID 0000.0001) %MON forcing_fu_del2              =   7.5067710575234E-04
(PID.TID 0000.0001) %MON forcing_fv_max               =   1.4891323596239E-01
(PID.TID 0000.0001) %MON forcing_fv_min               =  -1.7985151261091E-01
(PID.TID 0000.0001) %MON forcing_fv_mean              =  -7.4357202903193E-03
(PID.TID 0000.0001) %MON forcing_fv_sd                =   4.1731256114148E-02
(PID.TID 0000.0001) %MON forcing_fv_del2              =   4.7036402229304E-04
(PID.TID 0000.0001) %MON trAdv_CFL_u_max              =   4.6126751216091E-02
(PID.TID 0000.0001) %MON trAdv_CFL_v_max              =   2.9399892033726E-02
(PID.TID 0000.0001) %MON trAdv_CFL_w_max              =   3.7518146157201E-02
(PID.TID 0000.0001) %MON advcfl_uvel_max              =   4.7431682790639E-02
(PID.TID 0000.0001) %MON advcfl_vvel_max              =   2.9899777579772E-02
(PID.TID 0000.0001) %MON advcfl_wvel_max              =   4.1802129723485E-02
(PID.TID 0000.0001) %MON advcfl_W_hf_max              =   4.9266795745536E-02
(PID.TID 0000.0001) %MON pe_b_mean                    =   5.1489042841796E-04
(PID.TID 0000.0001) %MON ke_max                       =   1.4751386873654E-02
(PID.TID 0000.0001) %MON ke_mean                      =   1.7540192913898E-04
(PID.TID 0000.0001) %MON ke_vol                       =   1.3226782436723E+18
(PID.TID 0000.0001) %MON vort_r_min                   =  -3.1290331382154E-07
(PID.TID 0000.0001) %MON vort_r_max                   =   5.2784632773752E-07
(PID.TID 0000.0001) %MON vort_a_mean                  =  -2.5274807001315E-05
(PID.TID 0000.0001) %MON vort_a_sd                    =   7.3604672082988E-05
(PID.TID 0000.0001) %MON vort_p_mean                  =  -3.1845655300350E-05
(PID.TID 0000.0001) %MON vort_p_sd                    =   1.3162442859125E-04
(PID.TID 0000.0001) %MON surfExpan_theta_mean         =   7.8747349715748E-07
(PID.TID 0000.0001) %MON surfExpan_salt_mean          =  -2.0281381903820E-07
(PID.TID 0000.0001) // =======================================================
(PID.TID 0000.0001) // End MONITOR dynamic field statistics
(PID.TID 0000.0001) // =======================================================
 EXTERNAL_FIELDS_LOAD,        67 : iP,iLd,i0,i1=    2    3    2    3 ; Wght=  0.2666666667  0.7333333333
 EXTERNAL_FIELDS_LOAD: (fu0,1),fu,fv= -1.4435E-02 -2.7199E-02 -2.3795E-02 -5.1267E-03
 EXTERNAL_FIELDS_LOAD: SST,SSS,Q,E-P= -2.7669E-01  3.4537E+01  2.2209E+02  8.8932E-06
DEBUG_STATS_RL:          Uvel (THERMODYNAMICS)  min= -1.34498896850178E-01
DEBUG_STATS_RL:          Uvel (THERMODYNAMICS)  max=  1.43499460063805E-01
DEBUG_STATS_RL:          Uvel (THERMODYNAMICS) mean=  6.11754083471277E-03
DEBUG_STATS_RL:          Uvel (THERMODYNAMICS) S.D.=  2.40961591316093E-02
DEBUG_STATS_RL:          Vvel (THERMODYNAMICS)  min= -9.68882273935103E-02
DEBUG_STATS_RL:          Vvel (THERMODYNAMICS)  max=  1.53897302088287E-01
DEBUG_STATS_RL:          Vvel (THERMODYNAMICS) mean=  3.43884961941258E-04
DEBUG_STATS_RL:          Vvel (THERMODYNAMICS) S.D.=  1.44855911242279E-02
DEBUG_STATS_RL:          Wvel (THERMODYNAMICS)  min= -9.33304362668653E-05
DEBUG_STATS_RL:          Wvel (THERMODYNAMICS)  max=  9.86840551621019E-05
DEBUG_STATS_RL:          Wvel (THERMODYNAMICS) mean= -1.60020680889824E-07
DEBUG_STATS_RL:          Wvel (THERMODYNAMICS) S.D.=  1.13515559779113E-05
DEBUG_STATS_RL:         Theta (THERMODYNAMICS)  min= -1.95442705506541E+00
DEBUG_STATS_RL:         Theta (THERMODYNAMICS)  max=  3.07624284256443E+01
DEBUG_STATS_RL:         Theta (THERMODYNAMICS) mean=  3.24060151013574E+00
DEBUG_STATS_RL:         Theta (THERMODYNAMICS) S.D.=  5.88101412549187E+00
DEBUG_STATS_RL:          Salt (THERMODYNAMICS)  min=  2.00000000000000E-02
DEBUG_STATS_RL:          Salt (THERMODYNAMICS)  max=  3.74872752059955E+01
DEBUG_STATS_RL:          Salt (THERMODYNAMICS) mean=  1.88647434886704E+01
DEBUG_STATS_RL:          Salt (THERMODYNAMICS) S.D.=  1.73002845468059E+01
DEBUG_STATS_RL:         GtNm1 (THERMODYNAMICS)  min= -2.47647037696400E-06
DEBUG_STATS_RL:         GtNm1 (THERMODYNAMICS)  max=  1.72333199801212E-06
DEBUG_STATS_RL:         GtNm1 (THERMODYNAMICS) mean=  3.30932030106785E-09
DEBUG_STATS_RL:         GtNm1 (THERMODYNAMICS) S.D.=  1.60904452639185E-07
DEBUG_STATS_RL:         GsNm1 (THERMODYNAMICS)  min= -3.68218235396429E-07
DEBUG_STATS_RL:         GsNm1 (THERMODYNAMICS)  max=  2.44499300481982E-07
DEBUG_STATS_RL:         GsNm1 (THERMODYNAMICS) mean= -1.82232347750791E-10
DEBUG_STATS_RL:         GsNm1 (THERMODYNAMICS) S.D.=  1.52200013156825E-08
DEBUG_STATS_RL:                EtaN (DYNAMICS)  min= -1.91263541563889E+00
DEBUG_STATS_RL:                EtaN (DYNAMICS)  max=  8.42665689041049E-01
DEBUG_STATS_RL:                EtaN (DYNAMICS) mean= -1.81447668698222E-01
DEBUG_STATS_RL:                EtaN (DYNAMICS) S.D.=  7.39292639391990E-01
DEBUG_STATS_RL:                Uvel (DYNAMICS)  min= -1.34498896850178E-01
DEBUG_STATS_RL:                Uvel (DYNAMICS)  max=  1.43499460063805E-01
DEBUG_STATS_RL:                Uvel (DYNAMICS) mean=  6.11754083471277E-03
DEBUG_STATS_RL:                Uvel (DYNAMICS) S.D.=  2.40961591316093E-02
DEBUG_STATS_RL:                Vvel (DYNAMICS)  min= -9.68882273935103E-02
DEBUG_STATS_RL:                Vvel (DYNAMICS)  max=  1.53897302088287E-01
DEBUG_STATS_RL:                Vvel (DYNAMICS) mean=  3.43884961941258E-04
DEBUG_STATS_RL:                Vvel (DYNAMICS) S.D.=  1.44855911242279E-02
DEBUG_STATS_RL:                Wvel (DYNAMICS)  min= -9.33304362668653E-05
DEBUG_STATS_RL:                Wvel (DYNAMICS)  max=  9.86840551621019E-05
DEBUG_STATS_RL:                Wvel (DYNAMICS) mean= -1.60020680889824E-07
DEBUG_STATS_RL:                Wvel (DYNAMICS) S.D.=  1.13515559779113E-05
DEBUG_STATS_RL:               Theta (DYNAMICS)  min= -1.95442705506541E+00
DEBUG_STATS_RL:               Theta (DYNAMICS)  max=  3.07624284256443E+01
DEBUG_STATS_RL:               Theta (DYNAMICS) mean=  3.24060151013574E+00
DEBUG_STATS_RL:               Theta (DYNAMICS) S.D.=  5.88101412549187E+00
DEBUG_STATS_RL:                Salt (DYNAMICS)  min=  2.00000000000000E-02
DEBUG_STATS_RL:                Salt (DYNAMICS)  max=  3.74872752059955E+01
DEBUG_STATS_RL:                Salt (DYNAMICS) mean=  1.88647434886704E+01
DEBUG_STATS_RL:                Salt (DYNAMICS) S.D.=  1.73002845468059E+01
DEBUG_STATS_RL:                  Gu (DYNAMICS)  min= -1.33051307258276E-01
DEBUG_STATS_RL:                  Gu (DYNAMICS)  max=  1.45414305120385E-01
DEBUG_STATS_RL:                  Gu (DYNAMICS) mean=  6.03084025948370E-03
DEBUG_STATS_RL:                  Gu (DYNAMICS) S.D.=  2.46060018444802E-02
DEBUG_STATS_RL:                  Gv (DYNAMICS)  min= -1.01706420790664E-01
DEBUG_STATS_RL:                  Gv (DYNAMICS)  max=  1.54699128440699E-01
DEBUG_STATS_RL:                  Gv (DYNAMICS) mean=  3.19524617543399E-03
DEBUG_STATS_RL:                  Gv (DYNAMICS) S.D.=  1.54854908148613E-02
DEBUG_STATS_RL:               GuNm1 (DYNAMICS)  min= -1.03028880555759E-05
DEBUG_STATS_RL:               GuNm1 (DYNAMICS)  max=  9.40231004977191E-06
DEBUG_STATS_RL:               GuNm1 (DYNAMICS) mean=  7.53210104316588E-09
DEBUG_STATS_RL:               GuNm1 (DYNAMICS) S.D.=  1.20714340616708E-06
DEBUG_STATS_RL:               GvNm1 (DYNAMICS)  min= -1.03268423939175E-05
DEBUG_STATS_RL:               GvNm1 (DYNAMICS)  max=  1.56305393911575E-05
DEBUG_STATS_RL:               GvNm1 (DYNAMICS) mean=  7.42122971674166E-07
DEBUG_STATS_RL:               GvNm1 (DYNAMICS) S.D.=  2.64831615079579E-06
DEBUG_STATS_RL:               GtNm1 (DYNAMICS)  min= -2.47647037696400E-06
DEBUG_STATS_RL:               GtNm1 (DYNAMICS)  max=  1.72333199801212E-06
DEBUG_STATS_RL:               GtNm1 (DYNAMICS) mean=  3.30932030106785E-09
DEBUG_STATS_RL:               GtNm1 (DYNAMICS) S.D.=  1.60904452639185E-07
DEBUG_STATS_RL:               GsNm1 (DYNAMICS)  min= -3.68218235396429E-07
DEBUG_STATS_RL:               GsNm1 (DYNAMICS)  max=  2.44499300481982E-07
DEBUG_STATS_RL:               GsNm1 (DYNAMICS) mean= -1.82232347750791E-10
DEBUG_STATS_RL:               GsNm1 (DYNAMICS) S.D.=  1.52200013156825E-08
DEBUG_STATS_RL:    cg2d_b (SOLVE_FOR_PRESSURE)  min= -1.90174680427206E+04
DEBUG_STATS_RL:    cg2d_b (SOLVE_FOR_PRESSURE)  max=  2.56120414519232E+04
DEBUG_STATS_RL:    cg2d_b (SOLVE_FOR_PRESSURE) mean=  4.72392642228146E+00
DEBUG_STATS_RL:    cg2d_b (SOLVE_FOR_PRESSURE) S.D.=  3.97294930286311E+03
 cg2d: Sum(rhs),rhsMax =   4.26982350786429E-01  1.68226745690063E+00
(PID.TID 0000.0001)  cg2d: iter=     1 ; resid.=  1.93147949399884E-01
(PID.TID 0000.0001)  cg2d: iter=     2 ; resid.=  2.07019414655992E-01
(PID.TID 0000.0001)  cg2d: iter=     3 ; resid.=  1.97911952326947E-01
(PID.TID 0000.0001)  cg2d: iter=     4 ; resid.=  1.74693403437674E-01
(PID.TID 0000.0001)  cg2d: iter=     5 ; resid.=  1.70202713053724E-01
(PID.TID 0000.0001)  cg2d: iter=     6 ; resid.=  1.44731483816503E-01
(PID.TID 0000.0001)  cg2d: iter=     7 ; resid.=  1.09788901732546E-01
(PID.TID 0000.0001)  cg2d: iter=     8 ; resid.=  8.04150313740740E-02
(PID.TID 0000.0001)  cg2d: iter=     9 ; resid.=  6.06749066305917E-02
(PID.TID 0000.0001)  cg2d: iter=    10 ; resid.=  4.72308398118034E-02
(PID.TID 0000.0001)  cg2d: iter=    11 ; resid.=  4.19388504204018E-02
(PID.TID 0000.0001)  cg2d: iter=    12 ; resid.=  3.67210380385705E-02
(PID.TID 0000.0001)  cg2d: iter=    13 ; resid.=  3.03182351074174E-02
(PID.TID 0000.0001)  cg2d: iter=    14 ; resid.=  2.55157715783094E-02
(PID.TID 0000.0001)  cg2d: iter=    15 ; resid.=  2.07665171035865E-02
(PID.TID 0000.0001)  cg2d: iter=    16 ; resid.=  1.82848107213351E-02
(PID.TID 0000.0001)  cg2d: iter=    17 ; resid.=  1.64423110791597E-02
(PID.TID 0000.0001)  cg2d: iter=    18 ; resid.=  1.27816762342905E-02
(PID.TID 0000.0001)  cg2d: iter=    19 ; resid.=  1.02459807055754E-02
(PID.TID 0000.0001)  cg2d: iter=    20 ; resid.=  8.49921007237071E-03
(PID.TID 0000.0001)  cg2d: iter=    21 ; resid.=  7.65583792821007E-03
(PID.TID 0000.0001)  cg2d: iter=    22 ; resid.=  6.84014995809259E-03
(PID.TID 0000.0001)  cg2d: iter=    23 ; resid.=  5.50310469457762E-03
(PID.TID 0000.0001)  cg2d: iter=    24 ; resid.=  4.47375960964299E-03
(PID.TID 0000.0001)  cg2d: iter=    25 ; resid.=  3.41597110830879E-03
(PID.TID 0000.0001)  cg2d: iter=    26 ; resid.=  2.64079081655554E-03
(PID.TID 0000.0001)  cg2d: iter=    27 ; resid.=  2.08022240214876E-03
(PID.TID 0000.0001)  cg2d: iter=    28 ; resid.=  1.66558557333919E-03
(PID.TID 0000.0001)  cg2d: iter=    29 ; resid.=  1.36572106244150E-03
(PID.TID 0000.0001)  cg2d: iter=    30 ; resid.=  1.12440219794693E-03
(PID.TID 0000.0001)  cg2d: iter=    31 ; resid.=  9.13350021417178E-04
(PID.TID 0000.0001)  cg2d: iter=    32 ; resid.=  6.67638178490916E-04
(PID.TID 0000.0001)  cg2d: iter=    33 ; resid.=  5.40198119465631E-04
(PID.TID 0000.0001)  cg2d: iter=    34 ; resid.=  4.86995806335334E-04
(PID.TID 0000.0001)  cg2d: iter=    35 ; resid.=  4.16342656583648E-04
(PID.TID 0000.0001)  cg2d: iter=    36 ; resid.=  3.49472891148099E-04
(PID.TID 0000.0001)  cg2d: iter=    37 ; resid.=  2.85672236945282E-04
(PID.TID 0000.0001)  cg2d: iter=    38 ; resid.=  2.43888881732649E-04
(PID.TID 0000.0001)  cg2d: iter=    39 ; resid.=  2.01674469006447E-04
(PID.TID 0000.0001)  cg2d: iter=    40 ; resid.=  1.63924039202067E-04
(PID.TID 0000.0001)  cg2d: iter=    41 ; resid.=  1.30292650459585E-04
(PID.TID 0000.0001)  cg2d: iter=    42 ; resid.=  1.10660941958482E-04
(PID.TID 0000.0001)  cg2d: iter=    43 ; resid.=  8.70504168856632E-05
(PID.TID 0000.0001)  cg2d: iter=    44 ; resid.=  6.84429637860690E-05
(PID.TID 0000.0001)  cg2d: iter=    45 ; resid.=  5.90215242534078E-05
(PID.TID 0000.0001)  cg2d: iter=    46 ; resid.=  4.42181952383956E-05
(PID.TID 0000.0001)  cg2d: iter=    47 ; resid.=  3.42473907281293E-05
(PID.TID 0000.0001)  cg2d: iter=    48 ; resid.=  2.75943924934332E-05
(PID.TID 0000.0001)  cg2d: iter=    49 ; resid.=  2.27489868826188E-05
(PID.TID 0000.0001)  cg2d: iter=    50 ; resid.=  1.89335444589935E-05
(PID.TID 0000.0001)  cg2d: iter=    51 ; resid.=  1.64221765426868E-05
(PID.TID 0000.0001)  cg2d: iter=    52 ; resid.=  1.43317224500105E-05
(PID.TID 0000.0001)  cg2d: iter=    53 ; resid.=  1.25509439729163E-05
(PID.TID 0000.0001)  cg2d: iter=    54 ; resid.=  1.04775943296252E-05
(PID.TID 0000.0001)  cg2d: iter=    55 ; resid.=  9.13185300423973E-06
(PID.TID 0000.0001)  cg2d: iter=    56 ; resid.=  7.72061678731087E-06
(PID.TID 0000.0001)  cg2d: iter=    57 ; resid.=  6.18415419494287E-06
(PID.TID 0000.0001)  cg2d: iter=    58 ; resid.=  4.95442411630487E-06
(PID.TID 0000.0001)  cg2d: iter=    59 ; resid.=  3.55692174064250E-06
(PID.TID 0000.0001)  cg2d: iter=    60 ; resid.=  2.79409866126649E-06
(PID.TID 0000.0001)  cg2d: iter=    61 ; resid.=  2.32553546654810E-06
(PID.TID 0000.0001)  cg2d: iter=    62 ; resid.=  1.91194929272900E-06
(PID.TID 0000.0001)  cg2d: iter=    63 ; resid.=  1.59947889503916E-06
(PID.TID 0000.0001)  cg2d: iter=    64 ; resid.=  1.22889856960938E-06
(PID.TID 0000.0001)  cg2d: iter=    65 ; resid.=  9.22146461021385E-07
(PID.TID 0000.0001)  cg2d: iter=    66 ; resid.=  6.69369398171368E-07
(PID.TID 0000.0001)  cg2d: iter=    67 ; resid.=  4.97028067109115E-07
(PID.TID 0000.0001)  cg2d: iter=    68 ; resid.=  4.32603176784187E-07
(PID.TID 0000.0001)  cg2d: iter=    69 ; resid.=  3.37180948247076E-07
(PID.TID 0000.0001)  cg2d: iter=    70 ; resid.=  2.60589213357546E-07
(PID.TID 0000.0001)  cg2d: iter=    71 ; resid.=  1.94169238844923E-07
(PID.TID 0000.0001)  cg2d: iter=    72 ; resid.=  1.41101023913629E-07
(PID.TID 0000.0001)  cg2d: iter=    73 ; resid.=  1.03646653997515E-07
(PID.TID 0000.0001)  cg2d: iter=    74 ; resid.=  7.74877495762018E-08
(PID.TID 0000.0001)  cg2d: iter=    75 ; resid.=  5.86716356973057E-08
(PID.TID 0000.0001)  cg2d: iter=    76 ; resid.=  4.39571496198335E-08
(PID.TID 0000.0001)  cg2d: iter=    77 ; resid.=  3.46835361534607E-08
(PID.TID 0000.0001)  cg2d: iter=    78 ; resid.=  2.88915044242324E-08
(PID.TID 0000.0001)  cg2d: iter=    79 ; resid.=  2.54126451827137E-08
(PID.TID 0000.0001)  cg2d: iter=    80 ; resid.=  2.22126956439543E-08
(PID.TID 0000.0001)  cg2d: iter=    81 ; resid.=  1.97403208627931E-08
(PID.TID 0000.0001)  cg2d: iter=    82 ; resid.=  1.64814214903551E-08
(PID.TID 0000.0001)  cg2d: iter=    83 ; resid.=  1.37918701601827E-08
(PID.TID 0000.0001)  cg2d: iter=    84 ; resid.=  1.18454388744673E-08
(PID.TID 0000.0001)  cg2d: iter=    85 ; resid.=  9.33602035328875E-09
(PID.TID 0000.0001)  cg2d: iter=    86 ; resid.=  7.22870273232830E-09
(PID.TID 0000.0001)  cg2d: iter=    87 ; resid.=  5.64246559069582E-09
(PID.TID 0000.0001)  cg2d: iter=    88 ; resid.=  4.16658945153224E-09
(PID.TID 0000.0001)  cg2d: iter=    89 ; resid.=  3.54374823222415E-09
(PID.TID 0000.0001)  cg2d: iter=    90 ; resid.=  2.92741332841355E-09
(PID.TID 0000.0001)  cg2d: iter=    91 ; resid.=  2.38368690592789E-09
(PID.TID 0000.0001)  cg2d: iter=    92 ; resid.=  2.10832436838608E-09
(PID.TID 0000.0001)  cg2d: iter=    93 ; resid.=  1.84893106904579E-09
(PID.TID 0000.0001)  cg2d: iter=    94 ; resid.=  1.59369371003185E-09
(PID.TID 0000.0001)  cg2d: iter=    95 ; resid.=  1.45420934844201E-09
(PID.TID 0000.0001)  cg2d: iter=    96 ; resid.=  1.21706300485031E-09
(PID.TID 0000.0001)  cg2d: iter=    97 ; resid.=  9.87218543045974E-10
(PID.TID 0000.0001)  cg2d: iter=    98 ; resid.=  8.56676703523283E-10
(PID.TID 0000.0001)  cg2d: iter=    99 ; resid.=  7.68071558588751E-10
(PID.TID 0000.0001)  cg2d: iter=   100 ; resid.=  7.29054113317280E-10
(PID.TID 0000.0001)  cg2d: iter=   101 ; resid.=  6.02056882615462E-10
(PID.TID 0000.0001)  cg2d: iter=   102 ; resid.=  5.01689135925173E-10
(PID.TID 0000.0001)  cg2d: iter=   103 ; resid.=  4.18064538024471E-10
(PID.TID 0000.0001)  cg2d: iter=   104 ; resid.=  3.55995034408636E-10
(PID.TID 0000.0001)  cg2d: iter=   105 ; resid.=  2.80600242596205E-10
(PID.TID 0000.0001)  cg2d: iter=   106 ; resid.=  2.30268856408736E-10
(PID.TID 0000.0001)  cg2d: iter=   107 ; resid.=  1.71282460553893E-10
(PID.TID 0000.0001)  cg2d: iter=   108 ; resid.=  1.26995912177494E-10
(PID.TID 0000.0001)  cg2d: iter=   109 ; resid.=  9.38623941337321E-11
(PID.TID 0000.0001)  cg2d: iter=   110 ; resid.=  6.98692721199692E-11
(PID.TID 0000.0001)  cg2d: iter=   111 ; resid.=  5.47747471483829E-11
(PID.TID 0000.0001)  cg2d: iter=   112 ; resid.=  4.07200008339385E-11
(PID.TID 0000.0001)  cg2d: iter=   113 ; resid.=  2.98269538737313E-11
(PID.TID 0000.0001)  cg2d: iter=   114 ; resid.=  2.19059250708498E-11
(PID.TID 0000.0001)  cg2d: iter=   115 ; resid.=  1.63919992135502E-11
(PID.TID 0000.0001)  cg2d: iter=   116 ; resid.=  1.24135038970076E-11
(PID.TID 0000.0001)  cg2d: iter=   117 ; resid.=  1.03569319545899E-11
(PID.TID 0000.0001)  cg2d: iter=   118 ; resid.=  7.91842323720362E-12
(PID.TID 0000.0001)  cg2d: iter=   119 ; resid.=  6.14419278487333E-12
(PID.TID 0000.0001)  cg2d: iter=   120 ; resid.=  5.10705545140964E-12
(PID.TID 0000.0001)  cg2d: iter=   121 ; resid.=  3.94920567712853E-12
(PID.TID 0000.0001)  cg2d: iter=   122 ; resid.=  3.03416542482071E-12
(PID.TID 0000.0001)  cg2d: iter=   123 ; resid.=  2.50205511613734E-12
(PID.TID 0000.0001)  cg2d: iter=   124 ; resid.=  2.04412159608730E-12
(PID.TID 0000.0001)  cg2d: iter=   125 ; resid.=  1.51192796064788E-12
(PID.TID 0000.0001)  cg2d: iter=   126 ; resid.=  1.07077564817702E-12
(PID.TID 0000.0001)  cg2d: iter=   127 ; resid.=  6.95077029352594E-13
(PID.TID 0000.0001)  cg2d: iter=   128 ; resid.=  4.85626791123732E-13
(PID.TID 0000.0001)  cg2d: iter=   129 ; resid.=  3.22713105524239E-13
(PID.TID 0000.0001)  cg2d: iter=   130 ; resid.=  2.17252805839931E-13
(PID.TID 0000.0001)  cg2d: iter=   131 ; resid.=  1.53699835031784E-13
(PID.TID 0000.0001)  cg2d: iter=   132 ; resid.=  1.11031098954122E-13
(PID.TID 0000.0001)  cg2d: iter=   133 ; resid.=  8.51304961158453E-14
DEBUG_STATS_RL:    cg2d_x (SOLVE_FOR_PRESSURE)  min= -1.85290798296445E+01
DEBUG_STATS_RL:    cg2d_x (SOLVE_FOR_PRESSURE)  max=  8.68212378388662E+00
DEBUG_STATS_RL:    cg2d_x (SOLVE_FOR_PRESSURE) mean= -1.81492717448351E+00
DEBUG_STATS_RL:    cg2d_x (SOLVE_FOR_PRESSURE) S.D.=  7.38613417695551E+00
(PID.TID 0000.0001)      cg2d_init_res =   3.18773285806163E-01
(PID.TID 0000.0001)      cg2d_iters(min,last) =      -1     133
(PID.TID 0000.0001)      cg2d_last_res =   8.51304961158453E-14
(PID.TID 0000.0001) // =======================================================
(PID.TID 0000.0001) // Begin MONITOR dynamic field statistics
(PID.TID 0000.0001) // =======================================================
(PID.TID 0000.0001) %MON time_tsnumber                =                    68
(PID.TID 0000.0001) %MON time_secondsf                =   5.8752000000000E+06
(PID.TID 0000.0001) %MON dynstat_eta_max              =   8.8502790865306E-01
(PID.TID 0000.0001) %MON dynstat_eta_min              =  -1.8887950896682E+00
(PID.TID 0000.0001) %MON dynstat_eta_mean             =  -4.9288314741122E-03
(PID.TID 0000.0001) %MON dynstat_eta_sd               =   6.5015234519798E-01
(PID.TID 0000.0001) %MON dynstat_eta_del2             =   2.4082360178355E-03
(PID.TID 0000.0001) %MON dynstat_uvel_max             =   1.4653487735177E-01
(PID.TID 0000.0001) %MON dynstat_uvel_min             =  -1.3401210389561E-01
(PID.TID 0000.0001) %MON dynstat_uvel_mean            =   2.4648183361795E-03
(PID.TID 0000.0001) %MON dynstat_uvel_sd              =   1.7063502249367E-02
(PID.TID 0000.0001) %MON dynstat_uvel_del2            =   1.0914887708871E-04
(PID.TID 0000.0001) %MON dynstat_vvel_max             =   1.5546001457399E-01
(PID.TID 0000.0001) %MON dynstat_vvel_min             =  -9.5929314664532E-02
(PID.TID 0000.0001) %MON dynstat_vvel_mean            =  -4.5024467692738E-05
(PID.TID 0000.0001) %MON dynstat_vvel_sd              =   9.5040440202737E-03
(PID.TID 0000.0001) %MON dynstat_vvel_del2            =   8.1610467652559E-05
(PID.TID 0000.0001) %MON dynstat_wvel_max             =   9.0550063675601E-05
(PID.TID 0000.0001) %MON dynstat_wvel_min             =  -9.3168473944487E-05
(PID.TID 0000.0001) %MON dynstat_wvel_mean            =  -4.1375341766066E-23
(PID.TID 0000.0001) %MON dynstat_wvel_sd              =   1.2999976541405E-05
(PID.TID 0000.0001) %MON dynstat_wvel_del2            =   1.2763685496853E-07
(PID.TID 0000.0001) %MON dynstat_theta_max            =   3.0762428425644E+01
(PID.TID 0000.0001) %MON dynstat_theta_min            =  -1.9544270550654E+00
(PID.TID 0000.0001) %MON dynstat_theta_mean           =   3.6435488091663E+00
(PID.TID 0000.0001) %MON dynstat_theta_sd             =   4.4252508737180E+00
(PID.TID 0000.0001) %MON dynstat_theta_del2           =   4.9020134471407E-03
(PID.TID 0000.0001) %MON dynstat_salt_max             =   3.7487275205996E+01
(PID.TID 0000.0001) %MON dynstat_salt_min             =   2.9913333417605E+01
(PID.TID 0000.0001) %MON dynstat_salt_mean            =   3.4737989722236E+01
(PID.TID 0000.0001) %MON dynstat_salt_sd              =   2.9647554630008E-01
(PID.TID 0000.0001) %MON dynstat_salt_del2            =   9.9072421739137E-04
(PID.TID 0000.0001) %MON dynstat_sst_max              =   3.0762428425644E+01
(PID.TID 0000.0001) %MON dynstat_sst_min              =  -1.9544270550654E+00
(PID.TID 0000.0001) %MON dynstat_sst_mean             =   1.9049505906620E+01
(PID.TID 0000.0001) %MON dynstat_sst_sd               =   9.0993952121050E+00
(PID.TID 0000.0001) %MON dynstat_sst_del2             =   2.8304182928104E-02
(PID.TID 0000.0001) %MON dynstat_sss_max              =   3.7470678962589E+01
(PID.TID 0000.0001) %MON dynstat_sss_min              =   2.9913333417605E+01
(PID.TID 0000.0001) %MON dynstat_sss_mean             =   3.4858692258310E+01
(PID.TID 0000.0001) %MON dynstat_sss_sd               =   9.8321323651877E-01
(PID.TID 0000.0001) %MON dynstat_sss_del2             =   8.0774971251592E-03
(PID.TID 0000.0001) %MON forcing_qnet_max             =   2.9689290364583E+02
(PID.TID 0000.0001) %MON forcing_qnet_min             =  -1.6624982503255E+02
(PID.TID 0000.0001) %MON forcing_qnet_mean            =  -9.0517819871576E+00
(PID.TID 0000.0001) %MON forcing_qnet_sd              =   5.2467021838171E+01
(PID.TID 0000.0001) %MON forcing_qnet_del2            =   8.6239476817543E-01
(PID.TID 0000.0001) %MON forcing_qsw_max              =   0.0000000000000E+00
(PID.TID 0000.0001) %MON forcing_qsw_min              =   0.0000000000000E+00
(PID.TID 0000.0001) %MON forcing_qsw_mean             =   0.0000000000000E+00
(PID.TID 0000.0001) %MON forcing_qsw_sd               =   0.0000000000000E+00
(PID.TID 0000.0001) %MON forcing_qsw_del2             =   0.0000000000000E+00
(PID.TID 0000.0001) %MON forcing_empmr_max            =   6.9154872524753E-05
(PID.TID 0000.0001) %MON forcing_empmr_min            =  -8.0070980838324E-05
(PID.TID 0000.0001) %MON forcing_empmr_mean           =   6.5543050067353E-07
(PID.TID 0000.0001) %MON forcing_empmr_sd             =   2.6530988089422E-05
(PID.TID 0000.0001) %MON forcing_empmr_del2           =   3.5820452796475E-07
(PID.TID 0000.0001) %MON forcing_fu_max               =   3.4202007055283E-01
(PID.TID 0000.0001) %MON forcing_fu_min               =  -3.3757946888606E-01
(PID.TID 0000.0001) %MON forcing_fu_mean              =   1.9703132584721E-02
(PID.TID 0000.0001) %MON forcing_fu_sd                =   9.7988970330100E-02
(PID.TID 0000.0001) %MON forcing_fu_del2              =   7.5916327161955E-04
(PID.TID 0000.0001) %MON forcing_fv_max               =   1.5269908905029E-01
(PID.TID 0000.0001) %MON forcing_fv_min               =  -1.8134930332502E-01
(PID.TID 0000.0001) %MON forcing_fv_mean              =  -7.4461486402888E-03
(PID.TID 0000.0001) %MON forcing_fv_sd                =   4.1765973059055E-02
(PID.TID 0000.0001) %MON forcing_fv_del2              =   4.7254399856662E-04
(PID.TID 0000.0001) %MON trAdv_CFL_u_max              =   4.7441316504651E-02
(PID.TID 0000.0001) %MON trAdv_CFL_v_max              =   2.9777935403611E-02
(PID.TID 0000.0001) %MON trAdv_CFL_w_max              =   3.7037987273818E-02
(PID.TID 0000.0001) %MON advcfl_uvel_max              =   4.8434996321406E-02
(PID.TID 0000.0001) %MON advcfl_vvel_max              =   3.0203387552850E-02
(PID.TID 0000.0001) %MON advcfl_wvel_max              =   4.2362902001663E-02
(PID.TID 0000.0001) %MON advcfl_W_hf_max              =   4.9927705930531E-02
(PID.TID 0000.0001) %MON pe_b_mean                    =   5.4092421838371E-04
(PID.TID 0000.0001) %MON ke_max                       =   1.5089603486003E-02
(PID.TID 0000.0001) %MON ke_mean                      =   1.7559251457600E-04
(PID.TID 0000.0001) %MON ke_vol                       =   1.3226782436723E+18
(PID.TID 0000.0001) %MON vort_r_min                   =  -2.9913031746143E-07
(PID.TID 0000.0001) %MON vort_r_max                   =   5.3425333084220E-07
(PID.TID 0000.0001) %MON vort_a_mean                  =  -2.5274806872050E-05
(PID.TID 0000.0001) %MON vort_a_sd                    =   7.3604681737668E-05
(PID.TID 0000.0001) %MON vort_p_mean                  =  -3.1845655137479E-05
(PID.TID 0000.0001) %MON vort_p_sd                    =   1.3162454133994E-04
(PID.TID 0000.0001) %MON surfExpan_theta_mean         =   8.3627678470267E-07
(PID.TID 0000.0001) %MON surfExpan_salt_mean          =  -2.1312967141918E-07
(PID.TID 0000.0001) // =======================================================
(PID.TID 0000.0001) // End MONITOR dynamic field statistics
(PID.TID 0000.0001) // =======================================================
 EXTERNAL_FIELDS_LOAD,        68 : iP,iLd,i0,i1=    2    3    2    3 ; Wght=  0.2333333333  0.7666666667
 EXTERNAL_FIELDS_LOAD: (fu0,1),fu,fv= -1.4435E-02 -2.7199E-02 -2.4221E-02 -4.5581E-03
 EXTERNAL_FIELDS_LOAD: SST,SSS,Q,E-P= -2.6509E-01  3.4542E+01  2.2125E+02  8.9166E-06
DEBUG_STATS_RL:          Uvel (THERMODYNAMICS)  min= -1.34012103895606E-01
DEBUG_STATS_RL:          Uvel (THERMODYNAMICS)  max=  1.46534877351765E-01
DEBUG_STATS_RL:          Uvel (THERMODYNAMICS) mean=  6.14449733924585E-03
DEBUG_STATS_RL:          Uvel (THERMODYNAMICS) S.D.=  2.42367541518947E-02
DEBUG_STATS_RL:          Vvel (THERMODYNAMICS)  min= -9.59293146645322E-02
DEBUG_STATS_RL:          Vvel (THERMODYNAMICS)  max=  1.55460014573993E-01
DEBUG_STATS_RL:          Vvel (THERMODYNAMICS) mean=  3.33103179305741E-04
DEBUG_STATS_RL:          Vvel (THERMODYNAMICS) S.D.=  1.43957314801239E-02
DEBUG_STATS_RL:          Wvel (THERMODYNAMICS)  min= -9.31684739444873E-05
DEBUG_STATS_RL:          Wvel (THERMODYNAMICS)  max=  9.05500636756015E-05
DEBUG_STATS_RL:          Wvel (THERMODYNAMICS) mean= -1.51888945824148E-07
DEBUG_STATS_RL:          Wvel (THERMODYNAMICS) S.D.=  1.12608798227210E-05
DEBUG_STATS_RL:         Theta (THERMODYNAMICS)  min= -1.95291528068624E+00
DEBUG_STATS_RL:         Theta (THERMODYNAMICS)  max=  3.07821036896644E+01
DEBUG_STATS_RL:         Theta (THERMODYNAMICS) mean=  3.24072791734199E+00
DEBUG_STATS_RL:         Theta (THERMODYNAMICS) S.D.=  5.88145925164614E+00
DEBUG_STATS_RL:          Salt (THERMODYNAMICS)  min=  2.00000000000000E-02
DEBUG_STATS_RL:          Salt (THERMODYNAMICS)  max=  3.74872196391130E+01
DEBUG_STATS_RL:          Salt (THERMODYNAMICS) mean=  1.88647434061104E+01
DEBUG_STATS_RL:          Salt (THERMODYNAMICS) S.D.=  1.73002853355558E+01
DEBUG_STATS_RL:         GtNm1 (THERMODYNAMICS)  min= -2.05164377335720E-06
DEBUG_STATS_RL:         GtNm1 (THERMODYNAMICS)  max=  2.16218464392843E-06
DEBUG_STATS_RL:         GtNm1 (THERMODYNAMICS) mean=  3.16265980246443E-09
DEBUG_STATS_RL:         GtNm1 (THERMODYNAMICS) S.D.=  1.59901219260146E-07
DEBUG_STATS_RL:         GsNm1 (THERMODYNAMICS)  min= -3.61453072619757E-07
DEBUG_STATS_RL:         GsNm1 (THERMODYNAMICS)  max=  2.60542649174716E-07
DEBUG_STATS_RL:         GsNm1 (THERMODYNAMICS) mean= -1.31391016098406E-10
DEBUG_STATS_RL:         GsNm1 (THERMODYNAMICS) S.D.=  1.49459318919971E-08
DEBUG_STATS_RL:                EtaN (DYNAMICS)  min= -1.88879508966819E+00
DEBUG_STATS_RL:                EtaN (DYNAMICS)  max=  8.85027908653061E-01
DEBUG_STATS_RL:                EtaN (DYNAMICS) mean= -1.85007866919827E-01
DEBUG_STATS_RL:                EtaN (DYNAMICS) S.D.=  7.52918876346129E-01
DEBUG_STATS_RL:                Uvel (DYNAMICS)  min= -1.34012103895606E-01
DEBUG_STATS_RL:                Uvel (DYNAMICS)  max=  1.46534877351765E-01
DEBUG_STATS_RL:                Uvel (DYNAMICS) mean=  6.14449733924585E-03
DEBUG_STATS_RL:                Uvel (DYNAMICS) S.D.=  2.42367541518947E-02
DEBUG_STATS_RL:                Vvel (DYNAMICS)  min= -9.59293146645322E-02
DEBUG_STATS_RL:                Vvel (DYNAMICS)  max=  1.55460014573993E-01
DEBUG_STATS_RL:                Vvel (DYNAMICS) mean=  3.33103179305741E-04
DEBUG_STATS_RL:                Vvel (DYNAMICS) S.D.=  1.43957314801239E-02
DEBUG_STATS_RL:                Wvel (DYNAMICS)  min= -9.31684739444873E-05
DEBUG_STATS_RL:                Wvel (DYNAMICS)  max=  9.05500636756015E-05
DEBUG_STATS_RL:                Wvel (DYNAMICS) mean= -1.51888945824148E-07
DEBUG_STATS_RL:                Wvel (DYNAMICS) S.D.=  1.12608798227210E-05
DEBUG_STATS_RL:               Theta (DYNAMICS)  min= -1.95291528068624E+00
DEBUG_STATS_RL:               Theta (DYNAMICS)  max=  3.07821036896644E+01
DEBUG_STATS_RL:               Theta (DYNAMICS) mean=  3.24072791734199E+00
DEBUG_STATS_RL:               Theta (DYNAMICS) S.D.=  5.88145925164614E+00
DEBUG_STATS_RL:                Salt (DYNAMICS)  min=  2.00000000000000E-02
DEBUG_STATS_RL:                Salt (DYNAMICS)  max=  3.74872196391130E+01
DEBUG_STATS_RL:                Salt (DYNAMICS) mean=  1.88647434061104E+01
DEBUG_STATS_RL:                Salt (DYNAMICS) S.D.=  1.73002853355558E+01
DEBUG_STATS_RL:                  Gu (DYNAMICS)  min= -1.32430025433549E-01
DEBUG_STATS_RL:                  Gu (DYNAMICS)  max=  1.47370394371965E-01
DEBUG_STATS_RL:                  Gu (DYNAMICS) mean=  6.06078396126130E-03
DEBUG_STATS_RL:                  Gu (DYNAMICS) S.D.=  2.47253745201345E-02
DEBUG_STATS_RL:                  Gv (DYNAMICS)  min= -9.87380797579173E-02
DEBUG_STATS_RL:                  Gv (DYNAMICS)  max=  1.56184836128454E-01
DEBUG_STATS_RL:                  Gv (DYNAMICS) mean=  3.21244725941771E-03
DEBUG_STATS_RL:                  Gv (DYNAMICS) S.D.=  1.54218424358866E-02
DEBUG_STATS_RL:               GuNm1 (DYNAMICS)  min= -1.03835316907641E-05
DEBUG_STATS_RL:               GuNm1 (DYNAMICS)  max=  9.39754277992199E-06
DEBUG_STATS_RL:               GuNm1 (DYNAMICS) mean=  7.46646722051150E-09
DEBUG_STATS_RL:               GuNm1 (DYNAMICS) S.D.=  1.20866685168682E-06
DEBUG_STATS_RL:               GvNm1 (DYNAMICS)  min= -1.03302638747087E-05
DEBUG_STATS_RL:               GvNm1 (DYNAMICS)  max=  1.56129858040017E-05
DEBUG_STATS_RL:               GvNm1 (DYNAMICS) mean=  7.41819573432845E-07
DEBUG_STATS_RL:               GvNm1 (DYNAMICS) S.D.=  2.64628669364366E-06
DEBUG_STATS_RL:               GtNm1 (DYNAMICS)  min= -2.05164377335720E-06
DEBUG_STATS_RL:               GtNm1 (DYNAMICS)  max=  2.16218464392843E-06
DEBUG_STATS_RL:               GtNm1 (DYNAMICS) mean=  3.16265980246443E-09
DEBUG_STATS_RL:               GtNm1 (DYNAMICS) S.D.=  1.59901219260146E-07
DEBUG_STATS_RL:               GsNm1 (DYNAMICS)  min= -3.61453072619757E-07
DEBUG_STATS_RL:               GsNm1 (DYNAMICS)  max=  2.60542649174716E-07
DEBUG_STATS_RL:               GsNm1 (DYNAMICS) mean= -1.31391016098406E-10
DEBUG_STATS_RL:               GsNm1 (DYNAMICS) S.D.=  1.49459318919971E-08
DEBUG_STATS_RL:    cg2d_b (SOLVE_FOR_PRESSURE)  min= -1.89778847000529E+04
DEBUG_STATS_RL:    cg2d_b (SOLVE_FOR_PRESSURE)  max=  2.55837601912413E+04
DEBUG_STATS_RL:    cg2d_b (SOLVE_FOR_PRESSURE) mean=  4.77531870410889E+00
DEBUG_STATS_RL:    cg2d_b (SOLVE_FOR_PRESSURE) S.D.=  3.97722719051380E+03
 cg2d: Sum(rhs),rhsMax =   4.32104691310872E-01  1.68040986797806E+00
(PID.TID 0000.0001)  cg2d: iter=     1 ; resid.=  1.95175469557260E-01
(PID.TID 0000.0001)  cg2d: iter=     2 ; resid.=  2.07243692907634E-01
(PID.TID 0000.0001)  cg2d: iter=     3 ; resid.=  1.96906174796815E-01
(PID.TID 0000.0001)  cg2d: iter=     4 ; resid.=  1.75630068536290E-01
(PID.TID 0000.0001)  cg2d: iter=     5 ; resid.=  1.73325913119602E-01
(PID.TID 0000.0001)  cg2d: iter=     6 ; resid.=  1.46881477164932E-01
(PID.TID 0000.0001)  cg2d: iter=     7 ; resid.=  1.09783040664980E-01
(PID.TID 0000.0001)  cg2d: iter=     8 ; resid.=  7.90799851498411E-02
(PID.TID 0000.0001)  cg2d: iter=     9 ; resid.=  5.96223955470638E-02
(PID.TID 0000.0001)  cg2d: iter=    10 ; resid.=  4.56882686789854E-02
(PID.TID 0000.0001)  cg2d: iter=    11 ; resid.=  4.10871892298847E-02
(PID.TID 0000.0001)  cg2d: iter=    12 ; resid.=  3.61612227100807E-02
(PID.TID 0000.0001)  cg2d: iter=    13 ; resid.=  3.01434356969155E-02
(PID.TID 0000.0001)  cg2d: iter=    14 ; resid.=  2.57043382470438E-02
(PID.TID 0000.0001)  cg2d: iter=    15 ; resid.=  2.07531543543943E-02
(PID.TID 0000.0001)  cg2d: iter=    16 ; resid.=  1.83283341580556E-02
(PID.TID 0000.0001)  cg2d: iter=    17 ; resid.=  1.63663140928473E-02
(PID.TID 0000.0001)  cg2d: iter=    18 ; resid.=  1.28226251052793E-02
(PID.TID 0000.0001)  cg2d: iter=    19 ; resid.=  1.01488368138586E-02
(PID.TID 0000.0001)  cg2d: iter=    20 ; resid.=  8.23413452487200E-03
(PID.TID 0000.0001)  cg2d: iter=    21 ; resid.=  7.43548495917256E-03
(PID.TID 0000.0001)  cg2d: iter=    22 ; resid.=  6.69396092752597E-03
(PID.TID 0000.0001)  cg2d: iter=    23 ; resid.=  5.44991351877633E-03
(PID.TID 0000.0001)  cg2d: iter=    24 ; resid.=  4.51384048437527E-03
(PID.TID 0000.0001)  cg2d: iter=    25 ; resid.=  3.43585169157321E-03
(PID.TID 0000.0001)  cg2d: iter=    26 ; resid.=  2.62821200583210E-03
(PID.TID 0000.0001)  cg2d: iter=    27 ; resid.=  2.02102932481918E-03
(PID.TID 0000.0001)  cg2d: iter=    28 ; resid.=  1.59199062460190E-03
(PID.TID 0000.0001)  cg2d: iter=    29 ; resid.=  1.29762268054159E-03
(PID.TID 0000.0001)  cg2d: iter=    30 ; resid.=  1.08507018305168E-03
(PID.TID 0000.0001)  cg2d: iter=    31 ; resid.=  9.02899622083640E-04
(PID.TID 0000.0001)  cg2d: iter=    32 ; resid.=  6.68897962871018E-04
(PID.TID 0000.0001)  cg2d: iter=    33 ; resid.=  5.51828157316470E-04
(PID.TID 0000.0001)  cg2d: iter=    34 ; resid.=  4.95366517912927E-04
(PID.TID 0000.0001)  cg2d: iter=    35 ; resid.=  4.18144944097872E-04
(PID.TID 0000.0001)  cg2d: iter=    36 ; resid.=  3.50603393938439E-04
(PID.TID 0000.0001)  cg2d: iter=    37 ; resid.=  2.85577861281373E-04
(PID.TID 0000.0001)  cg2d: iter=    38 ; resid.=  2.45113189779419E-04
(PID.TID 0000.0001)  cg2d: iter=    39 ; resid.=  2.02935919162676E-04
(PID.TID 0000.0001)  cg2d: iter=    40 ; resid.=  1.69266043222234E-04
(PID.TID 0000.0001)  cg2d: iter=    41 ; resid.=  1.36157789344986E-04
(PID.TID 0000.0001)  cg2d: iter=    42 ; resid.=  1.15605729534073E-04
(PID.TID 0000.0001)  cg2d: iter=    43 ; resid.=  9.00398367016114E-05
(PID.TID 0000.0001)  cg2d: iter=    44 ; resid.=  7.05302887571386E-05
(PID.TID 0000.0001)  cg2d: iter=    45 ; resid.=  6.06126816954611E-05
(PID.TID 0000.0001)  cg2d: iter=    46 ; resid.=  4.56813278785188E-05
(PID.TID 0000.0001)  cg2d: iter=    47 ; resid.=  3.67809589896529E-05
(PID.TID 0000.0001)  cg2d: iter=    48 ; resid.=  3.03387484707527E-05
(PID.TID 0000.0001)  cg2d: iter=    49 ; resid.=  2.55352823134916E-05
(PID.TID 0000.0001)  cg2d: iter=    50 ; resid.=  2.21500494409345E-05
(PID.TID 0000.0001)  cg2d: iter=    51 ; resid.=  1.96959171172759E-05
(PID.TID 0000.0001)  cg2d: iter=    52 ; resid.=  1.73473031825491E-05
(PID.TID 0000.0001)  cg2d: iter=    53 ; resid.=  1.50408577589735E-05
(PID.TID 0000.0001)  cg2d: iter=    54 ; resid.=  1.23262030933886E-05
(PID.TID 0000.0001)  cg2d: iter=    55 ; resid.=  1.05310525724779E-05
(PID.TID 0000.0001)  cg2d: iter=    56 ; resid.=  8.97470145324995E-06
(PID.TID 0000.0001)  cg2d: iter=    57 ; resid.=  7.38938285932817E-06
(PID.TID 0000.0001)  cg2d: iter=    58 ; resid.=  5.97841564485288E-06
(PID.TID 0000.0001)  cg2d: iter=    59 ; resid.=  4.46050743940148E-06
(PID.TID 0000.0001)  cg2d: iter=    60 ; resid.=  3.59203682208596E-06
(PID.TID 0000.0001)  cg2d: iter=    61 ; resid.=  3.06689407990859E-06
(PID.TID 0000.0001)  cg2d: iter=    62 ; resid.=  2.61244552742598E-06
(PID.TID 0000.0001)  cg2d: iter=    63 ; resid.=  2.29563295402448E-06
(PID.TID 0000.0001)  cg2d: iter=    64 ; resid.=  1.85177231509871E-06
(PID.TID 0000.0001)  cg2d: iter=    65 ; resid.=  1.47665045330657E-06
(PID.TID 0000.0001)  cg2d: iter=    66 ; resid.=  1.19715403007896E-06
(PID.TID 0000.0001)  cg2d: iter=    67 ; resid.=  1.00871133820683E-06
(PID.TID 0000.0001)  cg2d: iter=    68 ; resid.=  9.54791782712126E-07
(PID.TID 0000.0001)  cg2d: iter=    69 ; resid.=  8.24588183154670E-07
(PID.TID 0000.0001)  cg2d: iter=    70 ; resid.=  7.08980740520070E-07
(PID.TID 0000.0001)  cg2d: iter=    71 ; resid.=  5.91944260239403E-07
(PID.TID 0000.0001)  cg2d: iter=    72 ; resid.=  5.16420632849140E-07
(PID.TID 0000.0001)  cg2d: iter=    73 ; resid.=  4.68257129639978E-07
(PID.TID 0000.0001)  cg2d: iter=    74 ; resid.=  4.09731536978540E-07
(PID.TID 0000.0001)  cg2d: iter=    75 ; resid.=  3.44792386515978E-07
(PID.TID 0000.0001)  cg2d: iter=    76 ; resid.=  2.81963867837157E-07
(PID.TID 0000.0001)  cg2d: iter=    77 ; resid.=  2.28436954337621E-07
(PID.TID 0000.0001)  cg2d: iter=    78 ; resid.=  1.78476497546185E-07
(PID.TID 0000.0001)  cg2d: iter=    79 ; resid.=  1.39990437703520E-07
(PID.TID 0000.0001)  cg2d: iter=    80 ; resid.=  1.02018449212617E-07
(PID.TID 0000.0001)  cg2d: iter=    81 ; resid.=  7.48224040744670E-08
(PID.TID 0000.0001)  cg2d: iter=    82 ; resid.=  5.26894875884172E-08
(PID.TID 0000.0001)  cg2d: iter=    83 ; resid.=  3.86723920040855E-08
(PID.TID 0000.0001)  cg2d: iter=    84 ; resid.=  2.90889822237271E-08
(PID.TID 0000.0001)  cg2d: iter=    85 ; resid.=  2.11082409395596E-08
(PID.TID 0000.0001)  cg2d: iter=    86 ; resid.=  1.61651526763976E-08
(PID.TID 0000.0001)  cg2d: iter=    87 ; resid.=  1.29977020618728E-08
(PID.TID 0000.0001)  cg2d: iter=    88 ; resid.=  1.04463698584709E-08
(PID.TID 0000.0001)  cg2d: iter=    89 ; resid.=  9.76573138707916E-09
(PID.TID 0000.0001)  cg2d: iter=    90 ; resid.=  8.27927670778850E-09
(PID.TID 0000.0001)  cg2d: iter=    91 ; resid.=  6.68585872353355E-09
(PID.TID 0000.0001)  cg2d: iter=    92 ; resid.=  5.60590388260183E-09
(PID.TID 0000.0001)  cg2d: iter=    93 ; resid.=  4.50136931798469E-09
(PID.TID 0000.0001)  cg2d: iter=    94 ; resid.=  3.52970729633049E-09
(PID.TID 0000.0001)  cg2d: iter=    95 ; resid.=  2.88067422738726E-09
(PID.TID 0000.0001)  cg2d: iter=    96 ; resid.=  2.19719941455616E-09
(PID.TID 0000.0001)  cg2d: iter=    97 ; resid.=  1.67685947698720E-09
(PID.TID 0000.0001)  cg2d: iter=    98 ; resid.=  1.41001493553794E-09
(PID.TID 0000.0001)  cg2d: iter=    99 ; resid.=  1.20277627023738E-09
(PID.TID 0000.0001)  cg2d: iter=   100 ; resid.=  1.08240396711644E-09
(PID.TID 0000.0001)  cg2d: iter=   101 ; resid.=  8.22755074505984E-10
(PID.TID 0000.0001)  cg2d: iter=   102 ; resid.=  6.52407821608736E-10
(PID.TID 0000.0001)  cg2d: iter=   103 ; resid.=  5.14437137476163E-10
(PID.TID 0000.0001)  cg2d: iter=   104 ; resid.=  4.12807461745084E-10
(PID.TID 0000.0001)  cg2d: iter=   105 ; resid.=  3.15818405855971E-10
(PID.TID 0000.0001)  cg2d: iter=   106 ; resid.=  2.53274069934700E-10
(PID.TID 0000.0001)  cg2d: iter=   107 ; resid.=  1.79740390367816E-10
(PID.TID 0000.0001)  cg2d: iter=   108 ; resid.=  1.31404138542041E-10
(PID.TID 0000.0001)  cg2d: iter=   109 ; resid.=  9.63199247590949E-11
(PID.TID 0000.0001)  cg2d: iter=   110 ; resid.=  7.07409320032479E-11
(PID.TID 0000.0001)  cg2d: iter=   111 ; resid.=  5.66079270955419E-11
(PID.TID 0000.0001)  cg2d: iter=   112 ; resid.=  4.36510958177166E-11
(PID.TID 0000.0001)  cg2d: iter=   113 ; resid.=  3.32334703480298E-11
(PID.TID 0000.0001)  cg2d: iter=   114 ; resid.=  2.52189287484613E-11
(PID.TID 0000.0001)  cg2d: iter=   115 ; resid.=  2.01194750995485E-11
(PID.TID 0000.0001)  cg2d: iter=   116 ; resid.=  1.57326875955546E-11
(PID.TID 0000.0001)  cg2d: iter=   117 ; resid.=  1.31401753459165E-11
(PID.TID 0000.0001)  cg2d: iter=   118 ; resid.=  9.88874104188316E-12
(PID.TID 0000.0001)  cg2d: iter=   119 ; resid.=  7.25191770421015E-12
(PID.TID 0000.0001)  cg2d: iter=   120 ; resid.=  5.57793113773674E-12
(PID.TID 0000.0001)  cg2d: iter=   121 ; resid.=  4.11064416522996E-12
(PID.TID 0000.0001)  cg2d: iter=   122 ; resid.=  3.06830603806215E-12
(PID.TID 0000.0001)  cg2d: iter=   123 ; resid.=  2.41598570020560E-12
(PID.TID 0000.0001)  cg2d: iter=   124 ; resid.=  1.94592973610240E-12
(PID.TID 0000.0001)  cg2d: iter=   125 ; resid.=  1.44925007099956E-12
(PID.TID 0000.0001)  cg2d: iter=   126 ; resid.=  1.01086664721773E-12
(PID.TID 0000.0001)  cg2d: iter=   127 ; resid.=  6.50936312554753E-13
(PID.TID 0000.0001)  cg2d: iter=   128 ; resid.=  4.55889278322675E-13
(PID.TID 0000.0001)  cg2d: iter=   129 ; resid.=  3.06965083048106E-13
(PID.TID 0000.0001)  cg2d: iter=   130 ; resid.=  2.10375652723958E-13
(PID.TID 0000.0001)  cg2d: iter=   131 ; resid.=  1.50633168909498E-13
(PID.TID 0000.0001)  cg2d: iter=   132 ; resid.=  1.10777928247307E-13
(PID.TID 0000.0001)  cg2d: iter=   133 ; resid.=  8.76746597367895E-14
DEBUG_STATS_RL:    cg2d_x (SOLVE_FOR_PRESSURE)  min= -1.89614576441297E+01
DEBUG_STATS_RL:    cg2d_x (SOLVE_FOR_PRESSURE)  max=  9.07600898892787E+00
DEBUG_STATS_RL:    cg2d_x (SOLVE_FOR_PRESSURE) mean= -1.85133964439134E+00
DEBUG_STATS_RL:    cg2d_x (SOLVE_FOR_PRESSURE) S.D.=  7.54002733015958E+00
(PID.TID 0000.0001)      cg2d_init_res =   3.19489994426227E-01
(PID.TID 0000.0001)      cg2d_iters(min,last) =      -1     133
(PID.TID 0000.0001)      cg2d_last_res =   8.76746597367895E-14
(PID.TID 0000.0001) // =======================================================
(PID.TID 0000.0001) // Begin MONITOR dynamic field statistics
(PID.TID 0000.0001) // =======================================================
(PID.TID 0000.0001) %MON time_tsnumber                =                    69
(PID.TID 0000.0001) %MON time_secondsf                =   5.9616000000000E+06
(PID.TID 0000.0001) %MON dynstat_eta_max              =   9.2517930570116E-01
(PID.TID 0000.0001) %MON dynstat_eta_min              =  -1.9328703001152E+00
(PID.TID 0000.0001) %MON dynstat_eta_mean             =  -4.9824529477646E-03
(PID.TID 0000.0001) %MON dynstat_eta_sd               =   6.6850442444147E-01
(PID.TID 0000.0001) %MON dynstat_eta_del2             =   2.4137223378801E-03
(PID.TID 0000.0001) %MON dynstat_uvel_max             =   1.4853712947865E-01
(PID.TID 0000.0001) %MON dynstat_uvel_min             =  -1.3327209597230E-01
(PID.TID 0000.0001) %MON dynstat_uvel_mean            =   2.4761909857473E-03
(PID.TID 0000.0001) %MON dynstat_uvel_sd              =   1.7099049651943E-02
(PID.TID 0000.0001) %MON dynstat_uvel_del2            =   1.0967151847999E-04
(PID.TID 0000.0001) %MON dynstat_vvel_max             =   1.5662154554997E-01
(PID.TID 0000.0001) %MON dynstat_vvel_min             =  -9.3082822183582E-02
(PID.TID 0000.0001) %MON dynstat_vvel_mean            =  -7.5734317263678E-05
(PID.TID 0000.0001) %MON dynstat_vvel_sd              =   9.4198235405018E-03
(PID.TID 0000.0001) %MON dynstat_vvel_del2            =   8.1491175227991E-05
(PID.TID 0000.0001) %MON dynstat_wvel_max             =   8.5550960435569E-05
(PID.TID 0000.0001) %MON dynstat_wvel_min             =  -9.3690276345374E-05
(PID.TID 0000.0001) %MON dynstat_wvel_mean            =   6.7868921253928E-23
(PID.TID 0000.0001) %MON dynstat_wvel_sd              =   1.2912106933328E-05
(PID.TID 0000.0001) %MON dynstat_wvel_del2            =   1.2610619700954E-07
(PID.TID 0000.0001) %MON dynstat_theta_max            =   3.0782103689664E+01
(PID.TID 0000.0001) %MON dynstat_theta_min            =  -1.9529152806862E+00
(PID.TID 0000.0001) %MON dynstat_theta_mean           =   3.6435786471135E+00
(PID.TID 0000.0001) %MON dynstat_theta_sd             =   4.4254039927026E+00
(PID.TID 0000.0001) %MON dynstat_theta_del2           =   4.8988336542529E-03
(PID.TID 0000.0001) %MON dynstat_salt_max             =   3.7487219639113E+01
(PID.TID 0000.0001) %MON dynstat_salt_min             =   2.9914206192031E+01
(PID.TID 0000.0001) %MON dynstat_salt_mean            =   3.4737995420729E+01
(PID.TID 0000.0001) %MON dynstat_salt_sd              =   2.9649236252475E-01
(PID.TID 0000.0001) %MON dynstat_salt_del2            =   9.9089335561751E-04
(PID.TID 0000.0001) %MON dynstat_sst_max              =   3.0782103689664E+01
(PID.TID 0000.0001) %MON dynstat_sst_min              =  -1.9529152806862E+00
(PID.TID 0000.0001) %MON dynstat_sst_mean             =   1.9053825728912E+01
(PID.TID 0000.0001) %MON dynstat_sst_sd               =   9.1045794530454E+00
(PID.TID 0000.0001) %MON dynstat_sst_del2             =   2.8363326429479E-02
(PID.TID 0000.0001) %MON dynstat_sss_max              =   3.7471534308503E+01
(PID.TID 0000.0001) %MON dynstat_sss_min              =   2.9914206192031E+01
(PID.TID 0000.0001) %MON dynstat_sss_mean             =   3.4858608425781E+01
(PID.TID 0000.0001) %MON dynstat_sss_sd               =   9.8354557896763E-01
(PID.TID 0000.0001) %MON dynstat_sss_del2             =   8.0874663316303E-03
(PID.TID 0000.0001) %MON forcing_qnet_max             =   2.9409475199382E+02
(PID.TID 0000.0001) %MON forcing_qnet_min             =  -1.6595054575602E+02
(PID.TID 0000.0001) %MON forcing_qnet_mean            =  -8.8284424875309E+00
(PID.TID 0000.0001) %MON forcing_qnet_sd              =   5.1556716411678E+01
(PID.TID 0000.0001) %MON forcing_qnet_del2            =   8.6047167969994E-01
(PID.TID 0000.0001) %MON forcing_qsw_max              =   0.0000000000000E+00
(PID.TID 0000.0001) %MON forcing_qsw_min              =   0.0000000000000E+00
(PID.TID 0000.0001) %MON forcing_qsw_mean             =   0.0000000000000E+00
(PID.TID 0000.0001) %MON forcing_qsw_sd               =   0.0000000000000E+00
(PID.TID 0000.0001) %MON forcing_qsw_del2             =   0.0000000000000E+00
(PID.TID 0000.0001) %MON forcing_empmr_max            =   6.9149116181203E-05
(PID.TID 0000.0001) %MON forcing_empmr_min            =  -8.0470160431408E-05
(PID.TID 0000.0001) %MON forcing_empmr_mean           =   6.4234056979919E-07
(PID.TID 0000.0001) %MON forcing_empmr_sd             =   2.6492034709442E-05
(PID.TID 0000.0001) %MON forcing_empmr_del2           =   3.5902970702507E-07
(PID.TID 0000.0001) %MON forcing_fu_max               =   3.4396148622036E-01
(PID.TID 0000.0001) %MON forcing_fu_min               =  -3.4395158787568E-01
(PID.TID 0000.0001) %MON forcing_fu_mean              =   1.9797332174179E-02
(PID.TID 0000.0001) %MON forcing_fu_sd                =   9.8445033933998E-02
(PID.TID 0000.0001) %MON forcing_fu_del2              =   7.6829958802129E-04
(PID.TID 0000.0001) %MON forcing_fv_max               =   1.5652424618602E-01
(PID.TID 0000.0001) %MON forcing_fv_min               =  -1.8284709403912E-01
(PID.TID 0000.0001) %MON forcing_fv_mean              =  -7.4565769902582E-03
(PID.TID 0000.0001) %MON forcing_fv_sd                =   4.1818730949016E-02
(PID.TID 0000.0001) %MON forcing_fv_del2              =   4.7523888340989E-04
(PID.TID 0000.0001) %MON trAdv_CFL_u_max              =   4.8444833815572E-02
(PID.TID 0000.0001) %MON trAdv_CFL_v_max              =   3.0080308160134E-02
(PID.TID 0000.0001) %MON trAdv_CFL_w_max              =   3.7763711506773E-02
(PID.TID 0000.0001) %MON advcfl_uvel_max              =   4.9096811966616E-02
(PID.TID 0000.0001) %MON advcfl_vvel_max              =   3.0429054392765E-02
(PID.TID 0000.0001) %MON advcfl_wvel_max              =   4.2051914236915E-02
(PID.TID 0000.0001) %MON advcfl_W_hf_max              =   4.9561184636364E-02
(PID.TID 0000.0001) %MON pe_b_mean                    =   5.7189183502706E-04
(PID.TID 0000.0001) %MON ke_max                       =   1.5388204685989E-02
(PID.TID 0000.0001) %MON ke_mean                      =   1.7545590780365E-04
(PID.TID 0000.0001) %MON ke_vol                       =   1.3226782436723E+18
(PID.TID 0000.0001) %MON vort_r_min                   =  -3.0130482213802E-07
(PID.TID 0000.0001) %MON vort_r_max                   =   5.3284647012030E-07
(PID.TID 0000.0001) %MON vort_a_mean                  =  -2.5274806753977E-05
(PID.TID 0000.0001) %MON vort_a_sd                    =   7.3604688966593E-05
(PID.TID 0000.0001) %MON vort_p_mean                  =  -3.1845654988710E-05
(PID.TID 0000.0001) %MON vort_p_sd                    =   1.3162466353882E-04
(PID.TID 0000.0001) %MON surfExpan_theta_mean         =   8.6111492927733E-07
(PID.TID 0000.0001) %MON surfExpan_salt_mean          =  -2.1628703206514E-07
(PID.TID 0000.0001) // =======================================================
(PID.TID 0000.0001) // End MONITOR dynamic field statistics
(PID.TID 0000.0001) // =======================================================
 EXTERNAL_FIELDS_LOAD,        69 : iP,iLd,i0,i1=    2    3    2    3 ; Wght=  0.2000000000  0.8000000000
 EXTERNAL_FIELDS_LOAD: (fu0,1),fu,fv= -1.4435E-02 -2.7199E-02 -2.4646E-02 -3.9896E-03
 EXTERNAL_FIELDS_LOAD: SST,SSS,Q,E-P= -2.5350E-01  3.4548E+01  2.2041E+02  8.9401E-06
DEBUG_STATS_RL:          Uvel (THERMODYNAMICS)  min= -1.33272095972302E-01
DEBUG_STATS_RL:          Uvel (THERMODYNAMICS)  max=  1.48537129478654E-01
DEBUG_STATS_RL:          Uvel (THERMODYNAMICS) mean=  6.17057897851618E-03
DEBUG_STATS_RL:          Uvel (THERMODYNAMICS) S.D.=  2.43419979335412E-02
DEBUG_STATS_RL:          Vvel (THERMODYNAMICS)  min= -9.30828221835815E-02
DEBUG_STATS_RL:          Vvel (THERMODYNAMICS)  max=  1.56621545549970E-01
DEBUG_STATS_RL:          Vvel (THERMODYNAMICS) mean=  3.41500517625097E-04
DEBUG_STATS_RL:          Vvel (THERMODYNAMICS) S.D.=  1.43214265875310E-02
DEBUG_STATS_RL:          Wvel (THERMODYNAMICS)  min= -9.36902763453735E-05
DEBUG_STATS_RL:          Wvel (THERMODYNAMICS)  max=  8.55509604355686E-05
DEBUG_STATS_RL:          Wvel (THERMODYNAMICS) mean= -1.40569342365751E-07
DEBUG_STATS_RL:          Wvel (THERMODYNAMICS) S.D.=  1.11792852806490E-05
DEBUG_STATS_RL:         Theta (THERMODYNAMICS)  min= -1.95235458055615E+00
DEBUG_STATS_RL:         Theta (THERMODYNAMICS)  max=  3.08019225182747E+01
DEBUG_STATS_RL:         Theta (THERMODYNAMICS) mean=  3.24084428098344E+00
DEBUG_STATS_RL:         Theta (THERMODYNAMICS) S.D.=  5.88190597463542E+00
DEBUG_STATS_RL:          Salt (THERMODYNAMICS)  min=  2.00000000000000E-02
DEBUG_STATS_RL:          Salt (THERMODYNAMICS)  max=  3.74871226677374E+01
DEBUG_STATS_RL:          Salt (THERMODYNAMICS) mean=  1.88647456184790E+01
DEBUG_STATS_RL:          Salt (THERMODYNAMICS) S.D.=  1.73002882569901E+01
DEBUG_STATS_RL:         GtNm1 (THERMODYNAMICS)  min= -2.02398457019172E-06
DEBUG_STATS_RL:         GtNm1 (THERMODYNAMICS)  max=  1.67965277748911E-06
DEBUG_STATS_RL:         GtNm1 (THERMODYNAMICS) mean=  2.93858932293124E-09
DEBUG_STATS_RL:         GtNm1 (THERMODYNAMICS) S.D.=  1.57598943476106E-07
DEBUG_STATS_RL:         GsNm1 (THERMODYNAMICS)  min= -3.56086673334197E-07
DEBUG_STATS_RL:         GsNm1 (THERMODYNAMICS)  max=  2.45790266408637E-07
DEBUG_STATS_RL:         GsNm1 (THERMODYNAMICS) mean= -8.50092952907935E-11
DEBUG_STATS_RL:         GsNm1 (THERMODYNAMICS) S.D.=  1.45972185542029E-08
DEBUG_STATS_RL:                EtaN (DYNAMICS)  min= -1.93287030011519E+00
DEBUG_STATS_RL:                EtaN (DYNAMICS)  max=  9.25179305701156E-01
DEBUG_STATS_RL:                EtaN (DYNAMICS) mean= -1.88719637552634E-01
DEBUG_STATS_RL:                EtaN (DYNAMICS) S.D.=  7.68606251800161E-01
DEBUG_STATS_RL:                Uvel (DYNAMICS)  min= -1.33272095972302E-01
DEBUG_STATS_RL:                Uvel (DYNAMICS)  max=  1.48537129478654E-01
DEBUG_STATS_RL:                Uvel (DYNAMICS) mean=  6.17057897851618E-03
DEBUG_STATS_RL:                Uvel (DYNAMICS) S.D.=  2.43419979335412E-02
DEBUG_STATS_RL:                Vvel (DYNAMICS)  min= -9.30828221835815E-02
DEBUG_STATS_RL:                Vvel (DYNAMICS)  max=  1.56621545549970E-01
DEBUG_STATS_RL:                Vvel (DYNAMICS) mean=  3.41500517625097E-04
DEBUG_STATS_RL:                Vvel (DYNAMICS) S.D.=  1.43214265875310E-02
DEBUG_STATS_RL:                Wvel (DYNAMICS)  min= -9.36902763453735E-05
DEBUG_STATS_RL:                Wvel (DYNAMICS)  max=  8.55509604355686E-05
DEBUG_STATS_RL:                Wvel (DYNAMICS) mean= -1.40569342365751E-07
DEBUG_STATS_RL:                Wvel (DYNAMICS) S.D.=  1.11792852806490E-05
DEBUG_STATS_RL:               Theta (DYNAMICS)  min= -1.95235458055615E+00
DEBUG_STATS_RL:               Theta (DYNAMICS)  max=  3.08019225182747E+01
DEBUG_STATS_RL:               Theta (DYNAMICS) mean=  3.24084428098344E+00
DEBUG_STATS_RL:               Theta (DYNAMICS) S.D.=  5.88190597463542E+00
DEBUG_STATS_RL:                Salt (DYNAMICS)  min=  2.00000000000000E-02
DEBUG_STATS_RL:                Salt (DYNAMICS)  max=  3.74871226677374E+01
DEBUG_STATS_RL:                Salt (DYNAMICS) mean=  1.88647456184790E+01
DEBUG_STATS_RL:                Salt (DYNAMICS) S.D.=  1.73002882569901E+01
DEBUG_STATS_RL:                  Gu (DYNAMICS)  min= -1.31564352282289E-01
DEBUG_STATS_RL:                  Gu (DYNAMICS)  max=  1.48450734489733E-01
DEBUG_STATS_RL:                  Gu (DYNAMICS) mean=  6.09377255461196E-03
DEBUG_STATS_RL:                  Gu (DYNAMICS) S.D.=  2.48062586281262E-02
DEBUG_STATS_RL:                  Gv (DYNAMICS)  min= -9.50474726789388E-02
DEBUG_STATS_RL:                  Gv (DYNAMICS)  max=  1.57270440854204E-01
DEBUG_STATS_RL:                  Gv (DYNAMICS) mean=  3.24008689358750E-03
DEBUG_STATS_RL:                  Gv (DYNAMICS) S.D.=  1.53871590514451E-02
DEBUG_STATS_RL:               GuNm1 (DYNAMICS)  min= -1.04646177441521E-05
DEBUG_STATS_RL:               GuNm1 (DYNAMICS)  max=  9.39379502360128E-06
DEBUG_STATS_RL:               GuNm1 (DYNAMICS) mean=  7.45916421494353E-09
DEBUG_STATS_RL:               GuNm1 (DYNAMICS) S.D.=  1.21045990187679E-06
DEBUG_STATS_RL:               GvNm1 (DYNAMICS)  min= -1.03194308920566E-05
DEBUG_STATS_RL:               GvNm1 (DYNAMICS)  max=  1.55997955018809E-05
DEBUG_STATS_RL:               GvNm1 (DYNAMICS) mean=  7.41497693819342E-07
DEBUG_STATS_RL:               GvNm1 (DYNAMICS) S.D.=  2.64409145919424E-06
DEBUG_STATS_RL:               GtNm1 (DYNAMICS)  min= -2.02398457019172E-06
DEBUG_STATS_RL:               GtNm1 (DYNAMICS)  max=  1.67965277748911E-06
DEBUG_STATS_RL:               GtNm1 (DYNAMICS) mean=  2.93858932293124E-09
DEBUG_STATS_RL:               GtNm1 (DYNAMICS) S.D.=  1.57598943476106E-07
DEBUG_STATS_RL:               GsNm1 (DYNAMICS)  min= -3.56086673334197E-07
DEBUG_STATS_RL:               GsNm1 (DYNAMICS)  max=  2.45790266408637E-07
DEBUG_STATS_RL:               GsNm1 (DYNAMICS) mean= -8.50092952907935E-11
DEBUG_STATS_RL:               GsNm1 (DYNAMICS) S.D.=  1.45972185542029E-08
DEBUG_STATS_RL:    cg2d_b (SOLVE_FOR_PRESSURE)  min= -1.89570491705270E+04
DEBUG_STATS_RL:    cg2d_b (SOLVE_FOR_PRESSURE)  max=  2.55649304763492E+04
DEBUG_STATS_RL:    cg2d_b (SOLVE_FOR_PRESSURE) mean=  4.82566368883307E+00
DEBUG_STATS_RL:    cg2d_b (SOLVE_FOR_PRESSURE) S.D.=  3.98225324033802E+03
 cg2d: Sum(rhs),rhsMax =   4.36981882269666E-01  1.67917308188879E+00
(PID.TID 0000.0001)  cg2d: iter=     1 ; resid.=  1.94580836880604E-01
(PID.TID 0000.0001)  cg2d: iter=     2 ; resid.=  2.02348631786267E-01
(PID.TID 0000.0001)  cg2d: iter=     3 ; resid.=  1.91764985940401E-01
(PID.TID 0000.0001)  cg2d: iter=     4 ; resid.=  1.73108773761839E-01
(PID.TID 0000.0001)  cg2d: iter=     5 ; resid.=  1.70817166424695E-01
(PID.TID 0000.0001)  cg2d: iter=     6 ; resid.=  1.45212187403316E-01
(PID.TID 0000.0001)  cg2d: iter=     7 ; resid.=  1.08405162556097E-01
(PID.TID 0000.0001)  cg2d: iter=     8 ; resid.=  7.73347443814567E-02
(PID.TID 0000.0001)  cg2d: iter=     9 ; resid.=  5.84199073514493E-02
(PID.TID 0000.0001)  cg2d: iter=    10 ; resid.=  4.43843246923534E-02
(PID.TID 0000.0001)  cg2d: iter=    11 ; resid.=  4.01759169195668E-02
(PID.TID 0000.0001)  cg2d: iter=    12 ; resid.=  3.52080502482140E-02
(PID.TID 0000.0001)  cg2d: iter=    13 ; resid.=  2.94422144255235E-02
(PID.TID 0000.0001)  cg2d: iter=    14 ; resid.=  2.52894457756366E-02
(PID.TID 0000.0001)  cg2d: iter=    15 ; resid.=  2.03189592310843E-02
(PID.TID 0000.0001)  cg2d: iter=    16 ; resid.=  1.80410095930525E-02
(PID.TID 0000.0001)  cg2d: iter=    17 ; resid.=  1.61015473443238E-02
(PID.TID 0000.0001)  cg2d: iter=    18 ; resid.=  1.28395657868903E-02
(PID.TID 0000.0001)  cg2d: iter=    19 ; resid.=  1.00285960345975E-02
(PID.TID 0000.0001)  cg2d: iter=    20 ; resid.=  7.94546640135319E-03
(PID.TID 0000.0001)  cg2d: iter=    21 ; resid.=  7.15736420889084E-03
(PID.TID 0000.0001)  cg2d: iter=    22 ; resid.=  6.43681556649386E-03
(PID.TID 0000.0001)  cg2d: iter=    23 ; resid.=  5.29892758604659E-03
(PID.TID 0000.0001)  cg2d: iter=    24 ; resid.=  4.47534443152516E-03
(PID.TID 0000.0001)  cg2d: iter=    25 ; resid.=  3.42780167460663E-03
(PID.TID 0000.0001)  cg2d: iter=    26 ; resid.=  2.62307255357174E-03
(PID.TID 0000.0001)  cg2d: iter=    27 ; resid.=  1.98632297371833E-03
(PID.TID 0000.0001)  cg2d: iter=    28 ; resid.=  1.55195359065461E-03
(PID.TID 0000.0001)  cg2d: iter=    29 ; resid.=  1.25465326709039E-03
(PID.TID 0000.0001)  cg2d: iter=    30 ; resid.=  1.05714447311580E-03
(PID.TID 0000.0001)  cg2d: iter=    31 ; resid.=  8.92907450568476E-04
(PID.TID 0000.0001)  cg2d: iter=    32 ; resid.=  6.68455380602087E-04
(PID.TID 0000.0001)  cg2d: iter=    33 ; resid.=  5.63373212428720E-04
(PID.TID 0000.0001)  cg2d: iter=    34 ; resid.=  5.04047206908141E-04
(PID.TID 0000.0001)  cg2d: iter=    35 ; resid.=  4.23747588172433E-04
(PID.TID 0000.0001)  cg2d: iter=    36 ; resid.=  3.56647010423369E-04
(PID.TID 0000.0001)  cg2d: iter=    37 ; resid.=  2.90300682767479E-04
(PID.TID 0000.0001)  cg2d: iter=    38 ; resid.=  2.50639977623034E-04
(PID.TID 0000.0001)  cg2d: iter=    39 ; resid.=  2.07869039912020E-04
(PID.TID 0000.0001)  cg2d: iter=    40 ; resid.=  1.78116812672312E-04
(PID.TID 0000.0001)  cg2d: iter=    41 ; resid.=  1.45525606713206E-04
(PID.TID 0000.0001)  cg2d: iter=    42 ; resid.=  1.24638565604024E-04
(PID.TID 0000.0001)  cg2d: iter=    43 ; resid.=  9.71792200522148E-05
(PID.TID 0000.0001)  cg2d: iter=    44 ; resid.=  7.61835274787449E-05
(PID.TID 0000.0001)  cg2d: iter=    45 ; resid.=  6.51587047415904E-05
(PID.TID 0000.0001)  cg2d: iter=    46 ; resid.=  4.97822683632432E-05
(PID.TID 0000.0001)  cg2d: iter=    47 ; resid.=  4.18703263282523E-05
(PID.TID 0000.0001)  cg2d: iter=    48 ; resid.=  3.54932332035074E-05
(PID.TID 0000.0001)  cg2d: iter=    49 ; resid.=  3.07692951013371E-05
(PID.TID 0000.0001)  cg2d: iter=    50 ; resid.=  2.77181256435836E-05
(PID.TID 0000.0001)  cg2d: iter=    51 ; resid.=  2.48588916120930E-05
(PID.TID 0000.0001)  cg2d: iter=    52 ; resid.=  2.17505431636045E-05
(PID.TID 0000.0001)  cg2d: iter=    53 ; resid.=  1.83487116735608E-05
(PID.TID 0000.0001)  cg2d: iter=    54 ; resid.=  1.45478106234858E-05
(PID.TID 0000.0001)  cg2d: iter=    55 ; resid.=  1.21420228609225E-05
(PID.TID 0000.0001)  cg2d: iter=    56 ; resid.=  1.04081572368890E-05
(PID.TID 0000.0001)  cg2d: iter=    57 ; resid.=  8.84308660235037E-06
(PID.TID 0000.0001)  cg2d: iter=    58 ; resid.=  7.20247511212466E-06
(PID.TID 0000.0001)  cg2d: iter=    59 ; resid.=  5.53686125524500E-06
(PID.TID 0000.0001)  cg2d: iter=    60 ; resid.=  4.48065008624072E-06
(PID.TID 0000.0001)  cg2d: iter=    61 ; resid.=  3.78927184414155E-06
(PID.TID 0000.0001)  cg2d: iter=    62 ; resid.=  3.21288213476845E-06
(PID.TID 0000.0001)  cg2d: iter=    63 ; resid.=  2.84006954557776E-06
(PID.TID 0000.0001)  cg2d: iter=    64 ; resid.=  2.29305375323236E-06
(PID.TID 0000.0001)  cg2d: iter=    65 ; resid.=  1.83508630058964E-06
(PID.TID 0000.0001)  cg2d: iter=    66 ; resid.=  1.52553149644265E-06
(PID.TID 0000.0001)  cg2d: iter=    67 ; resid.=  1.29264476017461E-06
(PID.TID 0000.0001)  cg2d: iter=    68 ; resid.=  1.18660564573537E-06
(PID.TID 0000.0001)  cg2d: iter=    69 ; resid.=  1.02436015849281E-06
(PID.TID 0000.0001)  cg2d: iter=    70 ; resid.=  8.52175499554862E-07
(PID.TID 0000.0001)  cg2d: iter=    71 ; resid.=  6.88514909535543E-07
(PID.TID 0000.0001)  cg2d: iter=    72 ; resid.=  5.94267033423702E-07
(PID.TID 0000.0001)  cg2d: iter=    73 ; resid.=  5.34744316641605E-07
(PID.TID 0000.0001)  cg2d: iter=    74 ; resid.=  4.54858194503422E-07
(PID.TID 0000.0001)  cg2d: iter=    75 ; resid.=  3.73179715058084E-07
(PID.TID 0000.0001)  cg2d: iter=    76 ; resid.=  3.02520395771191E-07
(PID.TID 0000.0001)  cg2d: iter=    77 ; resid.=  2.37165170700408E-07
(PID.TID 0000.0001)  cg2d: iter=    78 ; resid.=  1.81169263855826E-07
(PID.TID 0000.0001)  cg2d: iter=    79 ; resid.=  1.43963319067907E-07
(PID.TID 0000.0001)  cg2d: iter=    80 ; resid.=  1.05170081263541E-07
(PID.TID 0000.0001)  cg2d: iter=    81 ; resid.=  7.71182881119289E-08
(PID.TID 0000.0001)  cg2d: iter=    82 ; resid.=  5.40198453285716E-08
(PID.TID 0000.0001)  cg2d: iter=    83 ; resid.=  3.96544107658803E-08
(PID.TID 0000.0001)  cg2d: iter=    84 ; resid.=  2.91251848460696E-08
(PID.TID 0000.0001)  cg2d: iter=    85 ; resid.=  2.11471947029314E-08
(PID.TID 0000.0001)  cg2d: iter=    86 ; resid.=  1.64415019720905E-08
(PID.TID 0000.0001)  cg2d: iter=    87 ; resid.=  1.34581699629482E-08
(PID.TID 0000.0001)  cg2d: iter=    88 ; resid.=  1.10582938540484E-08
(PID.TID 0000.0001)  cg2d: iter=    89 ; resid.=  1.05186413978491E-08
(PID.TID 0000.0001)  cg2d: iter=    90 ; resid.=  8.93048337309429E-09
(PID.TID 0000.0001)  cg2d: iter=    91 ; resid.=  6.97127685820697E-09
(PID.TID 0000.0001)  cg2d: iter=    92 ; resid.=  5.63256878178990E-09
(PID.TID 0000.0001)  cg2d: iter=    93 ; resid.=  4.41711428355353E-09
(PID.TID 0000.0001)  cg2d: iter=    94 ; resid.=  3.37517083025243E-09
(PID.TID 0000.0001)  cg2d: iter=    95 ; resid.=  2.70564475393290E-09
(PID.TID 0000.0001)  cg2d: iter=    96 ; resid.=  2.07797635798449E-09
(PID.TID 0000.0001)  cg2d: iter=    97 ; resid.=  1.60722187257729E-09
(PID.TID 0000.0001)  cg2d: iter=    98 ; resid.=  1.38516276120682E-09
(PID.TID 0000.0001)  cg2d: iter=    99 ; resid.=  1.22382114361903E-09
(PID.TID 0000.0001)  cg2d: iter=   100 ; resid.=  1.15193812150900E-09
(PID.TID 0000.0001)  cg2d: iter=   101 ; resid.=  8.72382605562586E-10
(PID.TID 0000.0001)  cg2d: iter=   102 ; resid.=  6.86271979074187E-10
(PID.TID 0000.0001)  cg2d: iter=   103 ; resid.=  5.22360845168118E-10
(PID.TID 0000.0001)  cg2d: iter=   104 ; resid.=  3.98106848525990E-10
(PID.TID 0000.0001)  cg2d: iter=   105 ; resid.=  2.98931997150122E-10
(PID.TID 0000.0001)  cg2d: iter=   106 ; resid.=  2.38971794462623E-10
(PID.TID 0000.0001)  cg2d: iter=   107 ; resid.=  1.68808726516135E-10
(PID.TID 0000.0001)  cg2d: iter=   108 ; resid.=  1.25707321410905E-10
(PID.TID 0000.0001)  cg2d: iter=   109 ; resid.=  9.37897445479039E-11
(PID.TID 0000.0001)  cg2d: iter=   110 ; resid.=  6.88760747589829E-11
(PID.TID 0000.0001)  cg2d: iter=   111 ; resid.=  5.66590047078480E-11
(PID.TID 0000.0001)  cg2d: iter=   112 ; resid.=  4.49476310152675E-11
(PID.TID 0000.0001)  cg2d: iter=   113 ; resid.=  3.47011906262896E-11
(PID.TID 0000.0001)  cg2d: iter=   114 ; resid.=  2.64794994122065E-11
(PID.TID 0000.0001)  cg2d: iter=   115 ; resid.=  2.14882320155706E-11
(PID.TID 0000.0001)  cg2d: iter=   116 ; resid.=  1.65729434899907E-11
(PID.TID 0000.0001)  cg2d: iter=   117 ; resid.=  1.35064642139018E-11
(PID.TID 0000.0001)  cg2d: iter=   118 ; resid.=  9.97435859723484E-12
(PID.TID 0000.0001)  cg2d: iter=   119 ; resid.=  6.87709356123364E-12
(PID.TID 0000.0001)  cg2d: iter=   120 ; resid.=  4.83123548949463E-12
(PID.TID 0000.0001)  cg2d: iter=   121 ; resid.=  3.36359277607203E-12
(PID.TID 0000.0001)  cg2d: iter=   122 ; resid.=  2.39137364957441E-12
(PID.TID 0000.0001)  cg2d: iter=   123 ; resid.=  1.77100051629154E-12
(PID.TID 0000.0001)  cg2d: iter=   124 ; resid.=  1.41748885812189E-12
(PID.TID 0000.0001)  cg2d: iter=   125 ; resid.=  1.12693141795822E-12
(PID.TID 0000.0001)  cg2d: iter=   126 ; resid.=  8.24354916501752E-13
(PID.TID 0000.0001)  cg2d: iter=   127 ; resid.=  5.51774058965245E-13
(PID.TID 0000.0001)  cg2d: iter=   128 ; resid.=  3.98978583054785E-13
(PID.TID 0000.0001)  cg2d: iter=   129 ; resid.=  2.79277639134224E-13
(PID.TID 0000.0001)  cg2d: iter=   130 ; resid.=  1.98535529223091E-13
(PID.TID 0000.0001)  cg2d: iter=   131 ; resid.=  1.45180635057940E-13
(PID.TID 0000.0001)  cg2d: iter=   132 ; resid.=  1.06993501300244E-13
(PID.TID 0000.0001)  cg2d: iter=   133 ; resid.=  8.42458142581870E-14
DEBUG_STATS_RL:    cg2d_x (SOLVE_FOR_PRESSURE)  min= -1.93956658479567E+01
DEBUG_STATS_RL:    cg2d_x (SOLVE_FOR_PRESSURE)  max=  9.43761836361153E+00
DEBUG_STATS_RL:    cg2d_x (SOLVE_FOR_PRESSURE) mean= -1.88812495489975E+00
DEBUG_STATS_RL:    cg2d_x (SOLVE_FOR_PRESSURE) S.D.=  7.71019292276615E+00
(PID.TID 0000.0001)      cg2d_init_res =   3.19324777283431E-01
(PID.TID 0000.0001)      cg2d_iters(min,last) =      -1     133
(PID.TID 0000.0001)      cg2d_last_res =   8.42458142581870E-14
(PID.TID 0000.0001) // =======================================================
(PID.TID 0000.0001) // Begin MONITOR dynamic field statistics
(PID.TID 0000.0001) // =======================================================
(PID.TID 0000.0001) %MON time_tsnumber                =                    70
(PID.TID 0000.0001) %MON time_secondsf                =   6.0480000000000E+06
(PID.TID 0000.0001) %MON dynstat_eta_max              =   9.6204060791146E-01
(PID.TID 0000.0001) %MON dynstat_eta_min              =  -1.9771320945930E+00
(PID.TID 0000.0001) %MON dynstat_eta_mean             =  -5.0349816967539E-03
(PID.TID 0000.0001) %MON dynstat_eta_sd               =   6.8870311987966E-01
(PID.TID 0000.0001) %MON dynstat_eta_del2             =   2.4203763326410E-03
(PID.TID 0000.0001) %MON dynstat_uvel_max             =   1.4946159189400E-01
(PID.TID 0000.0001) %MON dynstat_uvel_min             =  -1.3228028932808E-01
(PID.TID 0000.0001) %MON dynstat_uvel_mean            =   2.4839796191057E-03
(PID.TID 0000.0001) %MON dynstat_uvel_sd              =   1.7110009941865E-02
(PID.TID 0000.0001) %MON dynstat_uvel_del2            =   1.1008427472602E-04
(PID.TID 0000.0001) %MON dynstat_vvel_max             =   1.5737504089735E-01
(PID.TID 0000.0001) %MON dynstat_vvel_min             =  -9.1771264955958E-02
(PID.TID 0000.0001) %MON dynstat_vvel_mean            =  -1.0183140727931E-04
(PID.TID 0000.0001) %MON dynstat_vvel_sd              =   9.3437478217646E-03
(PID.TID 0000.0001) %MON dynstat_vvel_del2            =   8.1336832700320E-05
(PID.TID 0000.0001) %MON dynstat_wvel_max             =   8.4150050111011E-05
(PID.TID 0000.0001) %MON dynstat_wvel_min             =  -9.4944842784787E-05
(PID.TID 0000.0001) %MON dynstat_wvel_mean            =   1.8561704843290E-22
(PID.TID 0000.0001) %MON dynstat_wvel_sd              =   1.2836194945109E-05
(PID.TID 0000.0001) %MON dynstat_wvel_del2            =   1.2477249238005E-07
(PID.TID 0000.0001) %MON dynstat_theta_max            =   3.0801922518275E+01
(PID.TID 0000.0001) %MON dynstat_theta_min            =  -1.9523545805562E+00
(PID.TID 0000.0001) %MON dynstat_theta_mean           =   3.6436070113447E+00
(PID.TID 0000.0001) %MON dynstat_theta_sd             =   4.4255568666785E+00
(PID.TID 0000.0001) %MON dynstat_theta_del2           =   4.8963185873096E-03
(PID.TID 0000.0001) %MON dynstat_salt_max             =   3.7487122667737E+01
(PID.TID 0000.0001) %MON dynstat_salt_min             =   2.9914877069879E+01
(PID.TID 0000.0001) %MON dynstat_salt_mean            =   3.4738001083520E+01
(PID.TID 0000.0001) %MON dynstat_salt_sd              =   2.9650955029334E-01
(PID.TID 0000.0001) %MON dynstat_salt_del2            =   9.9119245237356E-04
(PID.TID 0000.0001) %MON dynstat_sst_max              =   3.0801922518275E+01
(PID.TID 0000.0001) %MON dynstat_sst_min              =  -1.9523545805562E+00
(PID.TID 0000.0001) %MON dynstat_sst_mean             =   1.9057885163574E+01
(PID.TID 0000.0001) %MON dynstat_sst_sd               =   9.1099953705392E+00
(PID.TID 0000.0001) %MON dynstat_sst_del2             =   2.8440817926307E-02
(PID.TID 0000.0001) %MON dynstat_sss_max              =   3.7472365174875E+01
(PID.TID 0000.0001) %MON dynstat_sss_min              =   2.9914877069879E+01
(PID.TID 0000.0001) %MON dynstat_sss_mean             =   3.4858552795376E+01
(PID.TID 0000.0001) %MON dynstat_sss_sd               =   9.8387255853616E-01
(PID.TID 0000.0001) %MON dynstat_sss_del2             =   8.0990007707629E-03
(PID.TID 0000.0001) %MON forcing_qnet_max             =   2.9129660034180E+02
(PID.TID 0000.0001) %MON forcing_qnet_min             =  -1.6565126647949E+02
(PID.TID 0000.0001) %MON forcing_qnet_mean            =  -8.6051029879044E+00
(PID.TID 0000.0001) %MON forcing_qnet_sd              =   5.0688573492058E+01
(PID.TID 0000.0001) %MON forcing_qnet_del2            =   8.5873863831928E-01
(PID.TID 0000.0001) %MON forcing_qsw_max              =   0.0000000000000E+00
(PID.TID 0000.0001) %MON forcing_qsw_min              =   0.0000000000000E+00
(PID.TID 0000.0001) %MON forcing_qsw_mean             =   0.0000000000000E+00
(PID.TID 0000.0001) %MON forcing_qsw_sd               =   0.0000000000000E+00
(PID.TID 0000.0001) %MON forcing_qsw_del2             =   0.0000000000000E+00
(PID.TID 0000.0001) %MON forcing_empmr_max            =   6.9143359837653E-05
(PID.TID 0000.0001) %MON forcing_empmr_min            =  -8.0869340024492E-05
(PID.TID 0000.0001) %MON forcing_empmr_mean           =   6.2925063892483E-07
(PID.TID 0000.0001) %MON forcing_empmr_sd             =   2.6455536925131E-05
(PID.TID 0000.0001) %MON forcing_empmr_del2           =   3.5991612840969E-07
(PID.TID 0000.0001) %MON forcing_fu_max               =   3.4590290188789E-01
(PID.TID 0000.0001) %MON forcing_fu_min               =  -3.5032370686531E-01
(PID.TID 0000.0001) %MON forcing_fu_mean              =   1.9891531763637E-02
(PID.TID 0000.0001) %MON forcing_fu_sd                =   9.8919389593516E-02
(PID.TID 0000.0001) %MON forcing_fu_del2              =   7.7806315234272E-04
(PID.TID 0000.0001) %MON forcing_fv_max               =   1.6034940332174E-01
(PID.TID 0000.0001) %MON forcing_fv_min               =  -1.8434488475323E-01
(PID.TID 0000.0001) %MON forcing_fv_mean              =  -7.4670053402277E-03
(PID.TID 0000.0001) %MON forcing_fv_sd                =   4.1889461618814E-02
(PID.TID 0000.0001) %MON forcing_fv_del2              =   4.7843997600298E-04
(PID.TID 0000.0001) %MON trAdv_CFL_u_max              =   4.9106783880273E-02
(PID.TID 0000.0001) %MON trAdv_CFL_v_max              =   3.0305055403279E-02
(PID.TID 0000.0001) %MON trAdv_CFL_w_max              =   3.7800583807930E-02
(PID.TID 0000.0001) %MON advcfl_uvel_max              =   4.9402379722878E-02
(PID.TID 0000.0001) %MON advcfl_vvel_max              =   3.0575446454149E-02
(PID.TID 0000.0001) %MON advcfl_wvel_max              =   4.0905995324525E-02
(PID.TID 0000.0001) %MON advcfl_W_hf_max              =   4.8210637346761E-02
(PID.TID 0000.0001) %MON pe_b_mean                    =   6.0697179766996E-04
(PID.TID 0000.0001) %MON ke_max                       =   1.5643263040063E-02
(PID.TID 0000.0001) %MON ke_mean                      =   1.7500503532081E-04
(PID.TID 0000.0001) %MON ke_vol                       =   1.3226782436723E+18
(PID.TID 0000.0001) %MON vort_r_min                   =  -3.0712246707845E-07
(PID.TID 0000.0001) %MON vort_r_max                   =   5.2376468611892E-07
(PID.TID 0000.0001) %MON vort_a_mean                  =  -2.5274806651965E-05
(PID.TID 0000.0001) %MON vort_a_sd                    =   7.3604693915079E-05
(PID.TID 0000.0001) %MON vort_p_mean                  =  -3.1845654860178E-05
(PID.TID 0000.0001) %MON vort_p_sd                    =   1.3162479163591E-04
(PID.TID 0000.0001) %MON surfExpan_theta_mean         =   8.6022676446411E-07
(PID.TID 0000.0001) %MON surfExpan_salt_mean          =  -2.1241916309574E-07
(PID.TID 0000.0001) // =======================================================
(PID.TID 0000.0001) // End MONITOR dynamic field statistics
(PID.TID 0000.0001) // =======================================================
(PID.TID 0000.0001) // =======================================================
(PID.TID 0000.0001) // Field Current uVel   at iteration         70
(PID.TID 0000.0001) // CMIN =         -1.322802893280757E-01
(PID.TID 0000.0001) // CMAX =          1.494615918939982E-01
(PID.TID 0000.0001) // CINT =          1.043488448970644E-02
(PID.TID 0000.0001) // SYMBOLS (CMIN->CMAX): -abcdefghijklmnopqrstuvwxyz+
(PID.TID 0000.0001) //                  0.0: .
(PID.TID 0000.0001) // RANGE I (Lo:Hi:Step):(     1:    90:     1)
(PID.TID 0000.0001) // RANGE J (Lo:Hi:Step):(    40:     1:    -1)
(PID.TID 0000.0001) // RANGE K (Lo:Hi:Step):(   1:   1:   1)
(PID.TID 0000.0001) // =======================================================
(PID.TID 0000.0001) K =   1
(PID.TID 0000.0001)                I=10      I=20      I=30      I=40      I=50      I=60      I=70      I=80      I=90
(PID.TID 0000.0001) |--J--|123456789|123456789|123456789|123456789|123456789|123456789|123456789|123456789|123456789|
(PID.TID 0000.0001)     40 lmlll..llllllllllmm...................................................................llll
(PID.TID 0000.0001)     39 mnnmlkkkkllllm....m......................................................mmm.........lkllm
(PID.TID 0000.0001)     38 noponnnnnmmmm............................................................mmlm.......kjjkmm
(PID.TID 0000.0001)     37 non...................................................................m....kl....klkk..lmn
(PID.TID 0000.0001)     36 on..........................................kll.....................lmmnnnmkjk..kkklllmlln
(PID.TID 0000.0001)     35 nm..................................lll...lkjjkm....lmmm............mm.....ljkmjjmnnnnnnnm
(PID.TID 0000.0001)     34 ....................................lll..lkkjkkl..mlklmmm...................nlllnopqqqpn..
(PID.TID 0000.0001)     33 .....................................kkkkklllmmmnnnnnnnnmml..................mnorsssrqpml.
(PID.TID 0000.0001)     32 .....................................jkllmnooppppppoooonnmm.................mnooqrrqpoonn.
(PID.TID 0000.0001)     31 .....................................lmnoooppqqqqppoooononn...............nsurqqqqponnmm..
(PID.TID 0000.0001)     30 ....................................qqqppqqqqqqqqqpppppoonm.............ppqrrrrqqqponmll..
(PID.TID 0000.0001)     29 ..................................qsussrrrrrssrqpppqqqponnmm............trrqqpoonnmmlkkj..
(PID.TID 0000.0001)     28 ................................oqsssqqqrrrrrrqponooooonmlllm..........rrpooonmllkjjiijk..
(PID.TID 0000.0001)     27 ...............m...............mnooponnnooooonnmmlllmmmlkkkkkm....mmn..oooonnmlkjiiiii....
(PID.TID 0000.0001)     26 ...............nl............jiknmmmlkklmmmmllllkjklllmlllmllmnm..mmllnnnoonnmmmlkkkkk....
(PID.TID 0000.0001)     25 ...............pon....mm....mmmmqponmllllllmllllllmmnnnooopooooon....lmmqqqqqppppooonm....
(PID.TID 0000.0001)     24 .............poonno..onl....op..nommkkkkklkkkllmmnnnnnnoononnnmmmmmn..mlmnpqppppppnnoo....
(PID.TID 0000.0001)     23 .............lhhhik..khj....lm...gggfedefffffggijjjjkkkklklkjihhiiikl.....mmfhijjjikmo....
(PID.TID 0000.0001)     22 m............c-aabccdddg....l..fccfdba-acdcbcddghghhjklnommkjjihihhhij.......jhfddgikopqnl
(PID.TID 0000.0001)     21 nno.........fdecaabbdgjjn......ggnniggdefhhgghhijiihiklmnmlkllmmnmljii.........idchjlopoon
(PID.TID 0000.0001)     20 mmo........kjklkkjigjnpnm.........nnnkhklnonnmmmmlkiijjikihhikllmlkjij..........idhjjlmkkl
(PID.TID 0000.0001)     19 lno........ihijkmnmjklnmkmn....ln......nnprqqqponmmkiiihigedeeefggfffh............ihghihhi
(PID.TID 0000.0001)     18 ilo........hedefhijijkjjijlkkkjlm....nponopppppnlkkljjihhggeeddddedddfk...........kigggggg
(PID.TID 0000.0001)     17 hjl..........ghhigiilnlkkllkjjj......mmmllmoonnnljikkjkjiiiihhhggggghhi..........mmkihhhih
(PID.TID 0000.0001)     16 kkk.......k..ljjijjjlmnlkmnnml........lmllmoomnonljkkkllkjjkkkkkkkklllll.........nmlkjjjkk
(PID.TID 0000.0001)     15 kjij.....no..onnnnllmnomlmnoo..........mmnopopqqqommnnnnmllmlllmnmlmmmllk.......nnmmlkkkkk
(PID.TID 0000.0001)     14 jhfg.....mlmpqqqqqpponomlllln..........nnnoqprrrsrqqrqqqpppommmmmmlllljjk......nooooonmkkj
(PID.TID 0000.0001)     13 kigf.....llmnoppppqpnmnmlkjik..........noopprrqpqqqqrrrrrrqpponmmmmmlljjk.....klmnoopponml
(PID.TID 0000.0001)     12 llkiifeijmnnnnmmnnnnnnnnmkkkklmmmm.....mnopppoonoooooooooppoponmlmmmllkk......kmmmnoppponm
(PID.TID 0000.0001)     11 onmllkkmoqqqqqpooopooooonmmmmmmnmmn...lmmmo..oonmmmmmnmmmmnnnnmmmmmmmmml.....knoooopppppoo
(PID.TID 0000.0001)     10 rqppprsttuwxwvvutuvusrrrrrqpppponmmm..nnnno..ssonmmmmnmmmmmnnnnnoooonnoo...lmopqrrrrssssrr
(PID.TID 0000.0001)      9 vuuvvvwwwyzywwxxwxyxwwvvwwvuutssrrqqqqqqpo..rusqpppoooopppppppppqqqppppo..psrsstttuuvvwwww
(PID.TID 0000.0001)      8 wxyyyxwvwxxwwvvvvwwvxyyxxxxxxwwwwxxyxxwvutxzvutttuuuutttuuttssssssrrrrrp..prqrssstuuvvwwww
(PID.TID 0000.0001)      7 tuvvutstttttttssttsstuuuuvvvvvvwwxyz++zzyxxwuuuuvvwxyyyxwwvttttuutttttuwvsqqqrrrppqrsssstt
(PID.TID 0000.0001)      6 ppppppqqqrrqqqqqqqqpoopqqrrssttttuutuuvwxxxwuuuuuvvvwxxxwutssstttuuuuuuuutttutsqpooopppppp
(PID.TID 0000.0001)      5 lllmmnoooonnnnnnnoonnmmmmnnoopppppppppqrtuuuttssttttssrssrrrrrssssssstsssqppponnnnmmnnnnmm
(PID.TID 0000.0001)      4 kkkkllmmmmlllllllmmmlllkiikllllmmmmmmmmnnopppqqpppooonnnnoppppppppppppponn...mllllllllllkk
(PID.TID 0000.0001)      3 lkkkkkllll.............................llllllmmmmllllllllmmmmmmmmnmmmmmmm...lllllllkkkkkll
(PID.TID 0000.0001)      2 ...........................................lllmmmmmmmmmmmmmmmmll...lll......mmmmmmmmmmm...
(PID.TID 0000.0001)      1 ..........................................................................................
(PID.TID 0000.0001) // =======================================================
(PID.TID 0000.0001) // END OF FIELD                                          =
(PID.TID 0000.0001) // =======================================================
(PID.TID 0000.0001) 
(PID.TID 0000.0001) // =======================================================
(PID.TID 0000.0001) // Field Current vVel   at iteration         70
(PID.TID 0000.0001) // CMIN =         -9.177126495595839E-02
(PID.TID 0000.0001) // CMAX =          1.573750408973543E-01
(PID.TID 0000.0001) // CINT =          9.227640957530099E-03
(PID.TID 0000.0001) // SYMBOLS (CMIN->CMAX): -abcdefghijklmnopqrstuvwxyz+
(PID.TID 0000.0001) //                  0.0: .
(PID.TID 0000.0001) // RANGE I (Lo:Hi:Step):(     1:    90:     1)
(PID.TID 0000.0001) // RANGE J (Lo:Hi:Step):(    40:     1:    -1)
(PID.TID 0000.0001) // RANGE K (Lo:Hi:Step):(   1:   1:   1)
(PID.TID 0000.0001) // =======================================================
(PID.TID 0000.0001) K =   1
(PID.TID 0000.0001)                I=10      I=20      I=30      I=40      I=50      I=60      I=70      I=80      I=90
(PID.TID 0000.0001) |--J--|123456789|123456789|123456789|123456789|123456789|123456789|123456789|123456789|123456789|
(PID.TID 0000.0001)     40 iknom.ghjjjkki...jj..................................................................jhhhh
(PID.TID 0000.0001)     39 jjklkjjjjjjkk...........................................................iijk........hiiiji
(PID.TID 0000.0001)     38 jll.......................................................................iji......hf.klkj
(PID.TID 0000.0001)     37 lm...................................................................ji...jig...gilki.ijij
(PID.TID 0000.0001)     36 kk.........................................lllk....................ikk....iggh.gdhjiiihjji
(PID.TID 0000.0001)     35 ...................................jjkj..kkllkji...ijlll...................ffhhfghiihhkm..
(PID.TID 0000.0001)     34 ....................................jkl.jjijjjjj.iiiiklml...................eegijkkkjhik..
(PID.TID 0000.0001)     33 ....................................hkllkjjiijihhhhhijkkkll.................fbfjkkkkjhgjk.
(PID.TID 0000.0001)     32 ....................................fhiiiiihhihggggghhhiijk................jgdhkkjjjihhj..
(PID.TID 0000.0001)     31 ....................................ihggggfeffeddddddeeffgi..............gjjhghhhhhhiiij..
(PID.TID 0000.0001)     30 ...................................khfdcccbabbbbbbbbccdddde............nkggfeefffffhiiii..
(PID.TID 0000.0001)     29 .................................kihgebaccbabcdeeedefffffede...........njgeeefghhhhiiiii..
(PID.TID 0000.0001)     28 ...............................nnkjhhhffhhgghiiiiijjjjiiihfff.........lljiiiiijjjjjjji....
(PID.TID 0000.0001)     27 ..............ij..............klkklmllllmmlkklklllllkkkjjihhgh...jklo.kmllllkjjkkkjjjj....
(PID.TID 0000.0001)     26 ..............ikj...........gilkiiklmmmmmmlkkjjkkjiiijjjjjjjjjkk....nmllhijjiiiijjiijk....
(PID.TID 0000.0001)     25 ..............nomi...iij...jjj.ljkkklllmmmmmlllmlkkkklmmnonnnmlkj....mkjjklmnnnnonnnmk....
(PID.TID 0000.0001)     24 ............ortspki.lkkk...mll..nnprstuvutttssssssssstuvwwusqonmlllk.....qqotuuuuttspk....
(PID.TID 0000.0001)     23 ............otutrnm.knpo...kk...hlquwxz+zxwxwwwvuuuuvvvvvvutronnmlmml.......utuvuuttsm....
(PID.TID 0000.0001)     22 j...........joqrqomljmpr......hfeeinqrtuussrrrrrqqqrsstuvuusqommlllmlj........nprtsrqnjllk
(PID.TID 0000.0001)     21 jii........lmoppmlkjjkllk......d.aeghlpommmmlllmnmmmnopqrrrrqonmmllkif.........jmsrommlllk
(PID.TID 0000.0001)     20 gfi.......lmqqplhfgffhife......d......mjhghhhghijkjjkjkkkjjklkjiiiiiih...........tqmlllkih
(PID.TID 0000.0001)     19 eeh.......jlqpjd-abccceddfi...iij.....mkiiiihiiijklmmkjihgfffeddeffghi...........mkhghgfee
(PID.TID 0000.0001)     18 dfh.......g.pqjecefggffffgijkki.....jmommnmllmmllllnnmkihggfedcddddeffi..........jkhggebbd
(PID.TID 0000.0001)     17 fhi.......j.kokiighiijihijkkki.......kkklllkmnnmlkklmmmljjjjihhgggffggj.........gjkihhgeff
(PID.TID 0000.0001)     16 lmm......ll.ijhgfdgihfghijjij.........iihhgikkkkjhhijjiiiiiiijjjiijjjklm........fhiiijkkkl
(PID.TID 0000.0001)     15 lnom....kjj.gfedddehgdefhjjii.........hfeddefghggffgghgffggghjjkiijkkmnnk......jffgfghhjkk
(PID.TID 0000.0001)     14 llmm....hhkgfgfedegiheehjjiii.........ifffggfggfgggfffffghhhilkkkjkllmnml.....jiggggghijkk
(PID.TID 0000.0001)     13 nmlm....gimljjkjijkkihilmljjj.........ihjkkihhiiiiiihhiiijjjlmllmmlmmmmk.....fikjkkijkkmnn
(PID.TID 0000.0001)     12 nnmllighgjnnmlnmlllmlkkmmmllkjjjki....iklmn.hhjjkkjjjjjkkkllmllmoommmmmj.....fklklmllmmnoo
(PID.TID 0000.0001)     11 mmmlihihhilnkijkkkjkkkllllmlkkkkkkj..hjkkjm.fghijjjjjjjklkkllkklnonmlllk....dgllkkkjijjkmn
(PID.TID 0000.0001)     10 kkklkjihjmnnkihikkhghjkkkkkkkjjjiikk.ijjjg..ffggiiiijiijkllkkjjlnnnmlllj..iifimmljiiggijkk
(PID.TID 0000.0001)      9 jjklmkiikmnnnlkjnqkhiklmlkkkkjiiihjmkiijki.pmjhhiiiiiiijjlmlkkklnnnmmlif.pnnllopnkjihhjkkk
(PID.TID 0000.0001)      8 mmmlllkkllmnnmmkmrqnmmmnnnmllkkkjjlnmjiijmqrnlkkllkjkkkmmmmmlllmnnnmmlgb.urrqpqrpmljjkllmm
(PID.TID 0000.0001)      7 nnmlkkllmllmmmmmmnqqpnmnnmmmmmnnmmoomkihjmpponmnonnmlkklmmmmmmmmnnnnnnmmopopqrrqpnmkklmmno
(PID.TID 0000.0001)      6 mlkjjklmmlkllkkklmnonmmmlkkllmmmmlmnmlkjjlmnnoopoooonljjjklnnmmmnnonnnnoopooooonmmlkklmmmm
(PID.TID 0000.0001)      5 jjiiiijjkjiiiiiijjjkjjihhhhijjjiijjjkkkjklllklnonnnnmlkjjjlmmmllmmmmmmmlkk..llmlkkkkkkkkkk
(PID.TID 0000.0001)      4 hgfggfffgh............................jiijjjjjklllkkjjjjkklllkkjjkkkkjiii...jjjjjjjjjjjiih
(PID.TID 0000.0001)      3 ..........................................jiihhhiiiiiiijkkkjiihi..jiii.....jiiihhiijkkj...
(PID.TID 0000.0001)      2 ..........................................................................................
(PID.TID 0000.0001)      1 ..........................................................................................
(PID.TID 0000.0001) // =======================================================
(PID.TID 0000.0001) // END OF FIELD                                          =
(PID.TID 0000.0001) // =======================================================
(PID.TID 0000.0001) 
(PID.TID 0000.0001) // =======================================================
(PID.TID 0000.0001) // Field Current theta  at iteration         70
(PID.TID 0000.0001) // CMIN =         -1.952354580556153E+00
(PID.TID 0000.0001) // CMAX =          3.080192251827470E+01
(PID.TID 0000.0001) // CINT =          1.213121374030772E+00
(PID.TID 0000.0001) // SYMBOLS (CMIN->CMAX): -abcdefghijklmnopqrstuvwxyz+
(PID.TID 0000.0001) //                  0.0: .
(PID.TID 0000.0001) // RANGE I (Lo:Hi:Step):(     1:    90:     1)
(PID.TID 0000.0001) // RANGE J (Lo:Hi:Step):(    40:     1:    -1)
(PID.TID 0000.0001) // RANGE K (Lo:Hi:Step):(   1:   1:   1)
(PID.TID 0000.0001) // =======================================================
(PID.TID 0000.0001) K =   1
(PID.TID 0000.0001)                I=10      I=20      I=30      I=40      I=50      I=60      I=70      I=80      I=90
(PID.TID 0000.0001) |--J--|123456789|123456789|123456789|123456789|123456789|123456789|123456789|123456789|123456789|
(PID.TID 0000.0001)     40 -bbccba-------abcddbbbbbbbbbbbbbbbbbbbbbbbbbbbbbbbbbbbbbbbbbbbbbbbbbbbbbbbbbbbbbbbbbbaaa--
(PID.TID 0000.0001)     39 bbccccbbaa----bbbddbbbbbbbbbbbbbbbbbbbbbbbbbbbbbbbbbbbbbbbbbbbbbbbbbbbbb----bbbbbbbbbaaaaa
(PID.TID 0000.0001)     38 deeeeecccbba-bbbbbbbbbbbbbbbbbbbbbbbbbbbbbbbbbbbbbbbbbbbbbbbbbbbbbbbbbbb-----bbbbbbb---bcd
(PID.TID 0000.0001)     37 ffgbbbbbbbbbbbbbbbbbbbbbbbbbbbbbbbbbbbbbbbbbbbbbbbbbbbbbbbbbbbbbbbbbbbbbbba-abbbcbeeebcdde
(PID.TID 0000.0001)     36 ggbbbbbbbbbbbbbbbbbbbbbbbbbbbbbbbbbbbbbbbbbba--bbbbbbbbbbbbbbbbbbbbccccbaaabbcbceffghhhggg
(PID.TID 0000.0001)     35 ffbbbbbbbbbbbbbbbbbbbbbbbbbbbbbbbbb----bbbbcccb-bbbddeefbbbbbbbbbbbbbbbbbbbcddddefghhiiihg
(PID.TID 0000.0001)     34 bbbbbbbbbbbbbbbbbbbbbbbbbbbbbbbbbbb----bacccccccbccedefffbbbbbbbbbbbbbbbbbbbabdeffghiijibb
(PID.TID 0000.0001)     33 bbbbbbbbbbbbbbbbbbbbbbbbbbbbbbbbbbbb--abbcccccdddeeeefffgghbbbbbbbbbbbbbbbbbaacghijjkkkjjb
(PID.TID 0000.0001)     32 bbbbbbbbbbbbbbbbbbbbbbbbbbbbbbbbbbbb-abbccddddeefgggggghhhibbbbbbbbbbbbbbbbdcaaiklllllkkjb
(PID.TID 0000.0001)     31 bbbbbbbbbbbbbbbbbbbbbbbbbbbbbbbbbbbbdeefggghhihhiiiiijjjjjjbbbbbbbbbbbbbbhilkgjlmmmmmlllbb
(PID.TID 0000.0001)     30 bbbbbbbbbbbbbbbbbbbbbbbbbbbbbbbbbbbkkjjjkkkklkkkkkklllmmmllbbbbbbbbbbbbmmnoooooooooonnnnbb
(PID.TID 0000.0001)     29 bbbbbbbbbbbbbbbbbbbbbbbbbbbbbbbbbnnnnnnnnnnnnnnnnnnnnoooonmmbbbbbbbbbbboqqqqqpppppppoooobb
(PID.TID 0000.0001)     28 bbbbbbbbbbbbbbbbbbbbbbbbbbbbbbbmoppppppoppppppppppqpqqqqponnnbbbbbbbbbrrrrrrrrqqqqqpppppbb
(PID.TID 0000.0001)     27 bbbbbbbbbbbbbbuubbbbbbbbbbbbbbqqrrrrsrrrssssssssssssssrrqqppppbbbrrssbttttttttssssrrrqbbbb
(PID.TID 0000.0001)     26 bbbbbbbbbbbbbbuttbbbbbbbbbbbtstttttuuuuuuuuuuuutuuuttsssrrqqqrsubttuvuuuuuuuuuuttssrrqbbbb
(PID.TID 0000.0001)     25 bbbbbbbbbbbbbbuuvvbbbwvwbbbuuvvvvvwwwwwwwvvvvvvuvuuuuttttsssstuvwbbbvvvvvvvuuuuutssrqqbbbb
(PID.TID 0000.0001)     24 bbbbbbbbbbbbvuvvwxybwwwxbbbwwvbwwwxxxwwwwwvvwwvvvvvvvvvvvvvvvvwwwvvwbwvvvvvvuvuuutttssbbbb
(PID.TID 0000.0001)     23 bbbbbbbbbbbbwvwxxyybwwxxbbbxwwbbwxxxxxxxxxxwwwwwwwwwwwwwwwwwwvwwwwwwvbbbbwvvvvvvvvvvvvbbbb
(PID.TID 0000.0001)     22 wbbbbbbbbbbbwwwxxyyyxxyybbbxxbzyxxxyyxyyyyxxxxxxxxxxxxxwwwwwwwwwwwwvvwbbbbbbxwwwwwxxxyxxxw
(PID.TID 0000.0001)     21 wvvbbbbbbbbxxxxxxxyyyzz++bbbbbzyzzzzzzzzzzzyyyyyyyyyyyxxxxxxxxxxxwwvvvbbbbbbbbyxxyyyyzzyxw
(PID.TID 0000.0001)     20 wwvbbbbbbbyyyyyyyyzzzzzz+bbbbbbzbzzzzz+++++zzzzzzzzzyyyyxxxyxxxxxxxwwvbbbbbbbbbyyyyyyyyxxx
(PID.TID 0000.0001)     19 wvwbbbbbbbzzzyyyyyyyzyzyzzybbbzzzbbbbbzzzz++zzzzzzzzyyyxxxxxxwwvvwwvvvbbbbbbbbbbbyxxwwwvww
(PID.TID 0000.0001)     18 vuubbbbbbbzzyxxxxxyyyyyyyyzzzz+zzbbb++zzzz+zzzzzzzzzyyyyxxxxwwwvvvvvuutbbbbbbbbbbyxxwwvvwv
(PID.TID 0000.0001)     17 uutbbbbbbbzbyxxxxxxyyyyyyyyyyzzbbbbbzzzzzzzzzzzzzzzzyyyyxxxxwwwvuvvuttvbbbbbbbbbxyyxxvuvvu
(PID.TID 0000.0001)     16 utsbbbbbbyzbyxxxxwxwxxxwwxxxxzbbbbbbbyxxyyyzzyzzyyyyyyyxxxxxxwwwvvvuutttbbbbbbbbyyyyxwvvvu
(PID.TID 0000.0001)     15 tsrrbbbbwxxbwxxwwwwwwwwvvvvvxbbbbbbbbbwwxxxxxxxxxxxxxxxxxyyxxwwwwvvuttssrbbbbbbxxxxxxxxwvu
(PID.TID 0000.0001)     14 utrqbbbbwxwwwwwvwwwvvuuuttttubbbbbbbbbvvvwwwwwwwwwxxxxxwxxxxxwwwvvvvtssssbbbbbvwxxxxxxwwvu
(PID.TID 0000.0001)     13 uttrbbbbvxwvwwvuvvvvuuutsstssbbbbbbbbbuvvvvvvvvvvvuvvvwwwwwxxwwvvuuuussspbbbbvvwwwwwwwwvvu
(PID.TID 0000.0001)     12 tssstsrsuvutuutttssstutrrssrrqqrrqbbbbtuuutttttsststttttttuvuutttstttsrrbbbbbtvvvuuuuuuttt
(PID.TID 0000.0001)     11 qpppqrrsssrrrsrqqqppprrppqpppqqqqqqbbssssssbrrrqrrrrrrrrrrssqqrrrqrrrrqpbbbbpqsssrrrsrrrqq
(PID.TID 0000.0001)     10 mmllmnopppoooponnmnnnnnmmmmllnnooppobqrrqrqbpqqqqqqpppqpppppooppoooopppobbooppppooonopponn
(PID.TID 0000.0001)      9 jjiiijjjjjkkkkjjjijjjjjiiijjijkklmnmmnooopbnnoooooooooooonmmmmnnmmllmmmmbmnnnnmmlllkkllkjj
(PID.TID 0000.0001)      8 ggggggghhghhiiiihghhhihggghhhiijjjkkkkllmmmllmlllllmmmllllkkkkkkkkkkkklkbklllkkjiiihhhhggf
(PID.TID 0000.0001)      7 eeeeffffggfffggggfffffeeffgggggghhhhhiijkkkjjjkkkjjjiiiiiiiiiiiiiiiiijjjiijjiihhgffffffeee
(PID.TID 0000.0001)      6 ddddeeeeeeeeeeffffeeeeeffeeeeeefffffggghhhihhhhiihggffgggggggffgghhhhhhhhhhhhggfeeeeeddddd
(PID.TID 0000.0001)      5 dddeeedddeeeeeeeeeeeeeeedddeeeeeeeeeeefffffgffffffeddeeeeeeeeeeefffffffffffeeeeedddddddddd
(PID.TID 0000.0001)      4 dddddddccddcccccccccccccbbbccccccccccccddddddddcddddddddddddddddddddddddddbbbbbccccddccccd
(PID.TID 0000.0001)      3 ccccbbbaaabbbbbbbbbbbbbbbbbbbbbbbbbbbbbbbbbbcccccccccccbbbbbbbbbbbbbbbbbbbbbbaaabbcccccbbb
(PID.TID 0000.0001)      2 bbbbbbbbbbbbbbbbbbbbbbbbbbbbbbbbbbbbbbbbbbbbbbcbbbbbbaaaaaaaaababbaaaabbbbbaaaaabbbbbbbbbb
(PID.TID 0000.0001)      1 bbbbbbbbbbbbbbbbbbbbbbbbbbbbbbbbbbbbbbbbbbbbbbbbbbbbbbbbbbbbbbbbbbbbbbbbbbbbbbbbbbbbbbbbbb
(PID.TID 0000.0001) // =======================================================
(PID.TID 0000.0001) // END OF FIELD                                          =
(PID.TID 0000.0001) // =======================================================
(PID.TID 0000.0001) 
(PID.TID 0000.0001) // =======================================================
(PID.TID 0000.0001) // Field Current etaN   at iteration         70
(PID.TID 0000.0001) // CMIN =         -1.977132094592950E+00
(PID.TID 0000.0001) // CMAX =          9.620406079114598E-01
(PID.TID 0000.0001) // CINT =          1.088582482409041E-01
(PID.TID 0000.0001) // SYMBOLS (CMIN->CMAX): -abcdefghijklmnopqrstuvwxyz+
(PID.TID 0000.0001) //                  0.0: .
(PID.TID 0000.0001) // RANGE I (Lo:Hi:Step):(    -1:    92:     1)
(PID.TID 0000.0001) // RANGE J (Lo:Hi:Step):(    42:    -1:    -1)
(PID.TID 0000.0001) // RANGE K (Lo:Hi:Step):(   1:   1:   1)
(PID.TID 0000.0001) // =======================================================
(PID.TID 0000.0001) K =   1
(PID.TID 0000.0001)                I=8       I=18      I=28      I=38      I=48      I=58      I=68      I=78      I=88
(PID.TID 0000.0001) |--J--|101234567|901234567|901234567|901234567|901234567|901234567|901234567|901234567|901234567|9012
(PID.TID 0000.0001)     42 ............................................abbbbcccddddddddcccccc..dccc.....-aaaabbbbbbb.....
(PID.TID 0000.0001)     41 ..............................................................................................
(PID.TID 0000.0001)     40 kkkkkkk.ooooopppppppp..................................................................lllkkkk
(PID.TID 0000.0001)     39 lkkkkkllmmmnnoop...pp.....................................................ooop........mmlllkkk
(PID.TID 0000.0001)     38 llllmmmmmmmmmmn...........................................................ooooo......nllllllll
(PID.TID 0000.0001)     37 llmmn..................................................................pp...non...mmlml.klllmm
(PID.TID 0000.0001)     36 lmmo.........................................stts....................nnopponnnnm.plkkllllllmmo
(PID.TID 0000.0001)     35 nnnn.................................oopp..ssssstt...utstt...........nno....omlllkjjkkkkllnnnn
(PID.TID 0000.0001)     34 .....................................popp.ssssssst.sssrrrst..................mlkjjjjjkllln....
(PID.TID 0000.0001)     33 l.....................................ppqrrrrrrrssssrrrrrssst.................mkkkkkllmmlll...
(PID.TID 0000.0001)     32 n.....................................ppqqqrrrrssssssssssssss................fllklmmmnnmmln...
(PID.TID 0000.0001)     31 ......................................opqqrrssstttttttttttttt..............jjkllmmnnnnnmmm....
(PID.TID 0000.0001)     30 .....................................rrssssttttuuuuuuuuuuuuut............jllmnooppoooonnmm....
(PID.TID 0000.0001)     29 ...................................vvvvvvvvwwwwvvvvvvvvvvvvuut...........nopqqqqppppoonnnn....
(PID.TID 0000.0001)     28 .................................wxxyyyyyxxyyxxxxwwwwvvvvvvvuut.........qqqqqqqqppppoonnnn....
(PID.TID 0000.0001)     27 ................st..............yyzzzzzzzyyyyyyyxxxxwwwwwvvvuuut...qqqq.rrrrqqqqpppooonn......
(PID.TID 0000.0001)     26 ................stt...........yyyzzzzzzzzzzzzyyyyxxxxxxwwwvvuuuttu.qrqrsssssrrqqqpppooon......
(PID.TID 0000.0001)     25 ................sttu...vuv...yyxyzzzzzzzzzzzzyyyyxxxxxwwwwvvvuuuuuv...rsssssrrrqqpppoonn......
(PID.TID 0000.0001)     24 ..............ttttuuu.vvvv...yyx.+zyyyyyyyyyyyxxxxxxxwwwvvvvuuuuvvvuuu.ssssrrrqqqpppoooo......
(PID.TID 0000.0001)     23 ..............uttuuvv.vvvv...zyy..zxxxxxxxxyyxxxxxwwwwwwvvvvvvuuuuuuuuu....rrqqqqpppppop......
(PID.TID 0000.0001)     22 qqq...........uuuuuuvvvvvv...zz.zzzxxxxxxxxyyyxxxxxxxxxwwwwwvvvvvuuuuuuu......rqqqqqqqpqqqqqq.
(PID.TID 0000.0001)     21 qqqqp........vvuuuuuvvvvwww.....zzzyyyyyyyyyyyyyyyyyyxxxxxwwvvvvvvuuuuuu........rqqqqqqqqqqqqq
(PID.TID 0000.0001)     20 ppppp.......wvvvvvuuuvvvwww......y.zzzz+zzzzyzyyyyyyxxxxwwwvvvvvvuuuuuuu.........rrrqqqqqqpppp
(PID.TID 0000.0001)     19 ppppq.......wwvvuuuuuvvvvvvvv...xyy.....zzzyyyyyyxxxxxxwwvvvvvuuutttuutt...........rqqqqpppppp
(PID.TID 0000.0001)     18 ooopp.......xwwvuutuvvvvvvvvvwwxxxy...++zzyyyyyyxxxxxxxwwvvvvvuuutttutttt..........rqqppppooop
(PID.TID 0000.0001)     17 poooo.......y.ywvvvvvwwwvvvvvvwwx.....zzyyyyyyyyyyyxxxxxwwwwwvvvuutuuuttt.........ssrqqppppooo
(PID.TID 0000.0001)     16 qppoo......yy.ywwwwwwwwwwvvvvvvw.......yyyyyyyyyyyyxxxxxxxxxxwwwvvuuuuutts........rrrrrqqqqppo
(PID.TID 0000.0001)     15 rqqpoo....wxw.wwwwwwxwvwwvvuuuv.........xxxyyyyyyyyxxxxxxxxxxxxwwvvvvuuttss......prrrrsrrrrqqp
(PID.TID 0000.0001)     14 rrqqpo....wwvuvwvvvvwvuuvuutttt.........wwxxxxxxxxxxwwxxxxxxxxxxwwvvvuuutss.....pqrrrsssssrrqq
(PID.TID 0000.0001)     13 ssrrqp....vxwvvvvvvvvuuuvvuttss.........vwwxwwwwvvvvvvvwwwwwxxxxwwwvvvuutss....qqqrrrrstttssrr
(PID.TID 0000.0001)     12 ssrrqqqpsuwxwvvvvvuuuuuuuutttssssssr....uvvwvuuuuuuuuuuuvvvvvvwvwwvuuuutts.....qqqqrrrssssssrr
(PID.TID 0000.0001)     11 rrqqqqqstuuvvvuvuuuttttttttsssrrrrsrr..uuuuvw.tuttttttuuuuuuuuuuvvvuttttss....npppppppqqrrrrqq
(PID.TID 0000.0001)     10 pooooooppqrrrqpqqqqqqqrrqqqqqqqqqqqrrq.stttuw.sssttttttuuuutttttuuutsrrrss..mkmnnmlmmmnooppooo
(PID.TID 0000.0001)      9 llllllllllmmlkkkkllkklmnnnnnnnnnoppqrqqrrsss.rrqrssssttttuuutsssttsrrqqqqq.jkkklkjjiijjkllllll
(PID.TID 0000.0001)      8 ggghhhhgghhhhhhgghjhghiijjjjjkkkllmnoooopqrrrpoppqqqrsssssssrrrrrrrqpppopr.ijiiihgfffffggggggh
(PID.TID 0000.0001)      7 ddccccddeeeeeedeeefgfeeeeefffgghhhiijiijklnonmmmnnnnnnooppoooooooooonnnmmmmkkjihgfddccddddddcc
(PID.TID 0000.0001)      6 aaa-aabbccbcccccccdddccccccddeeeeeeefeefghijkkjjjjjjjjiijkkklllllllkkkjjjjiihgfedcccbbbbbbaaa-
(PID.TID 0000.0001)      5 -----aaabbaaaaaabbbbbbbbaaaabbbbcccccdddddeeffgggffffeeeeffghhhhhhhhggggffedccbbbaaaaaaaaa----
(PID.TID 0000.0001)      4 -------aaaaabbbaaaaaaaaaaaaaabbbbbccbccccccccccddcccccccddeeeeeeeeeeeddddcdd..abaaaaaaaa------
(PID.TID 0000.0001)      3 aaaaaaaaaaaa............................bbbbbbbbbccccccccddccccccccccccccdd..bbbaaaaaaaaaaaaaa
(PID.TID 0000.0001)      2 ............................................abbbbcccddddddddcccccc..dccc.....-aaaabbbbbbb.....
(PID.TID 0000.0001)      1 ..............................................................................................
(PID.TID 0000.0001)      0 kkkkkkk.ooooopppppppp..................................................................lllkkkk
(PID.TID 0000.0001)     -1 lkkkkkllmmmnnoop...pp.....................................................ooop........mmlllkkk
(PID.TID 0000.0001) // =======================================================
(PID.TID 0000.0001) // END OF FIELD                                          =
(PID.TID 0000.0001) // =======================================================
(PID.TID 0000.0001) 
(PID.TID 0000.0001)  MDS_WRITE_FIELD: it,rec,kS,kL,kH=      70     1  15   1  15 file=U.0000000070
(PID.TID 0000.0001)  MDS_WRITE_FIELD: it,rec,kS,kL,kH=      70     1  15   1  15 file=V.0000000070
(PID.TID 0000.0001)  MDS_WRITE_FIELD: it,rec,kS,kL,kH=      70     1  15   1  15 file=T.0000000070
(PID.TID 0000.0001)  MDS_WRITE_FIELD: it,rec,kS,kL,kH=      70     1  15   1  15 file=S.0000000070
(PID.TID 0000.0001)  MDS_WRITE_FIELD: it,rec,kS,kL,kH=      70     1   1   1   1 file=Eta.0000000070
(PID.TID 0000.0001)  MDS_WRITE_FIELD: it,rec,kS,kL,kH=      70     1  15   1  15 file=W.0000000070
(PID.TID 0000.0001)  MDS_WRITE_FIELD: it,rec,kS,kL,kH=      70     1  15   1  15 file=PH.0000000070
(PID.TID 0000.0001)  MDS_WRITE_FIELD: it,rec,kS,kL,kH=      70     1   1   1   1 file=PHL.0000000070
(PID.TID 0000.0001)  MDS_WRITE_FIELD: it,rec,kS,kL,kH=      70     1   1   1   1 file=ETAtave.0000000070
(PID.TID 0000.0001)  MDS_WRITE_FIELD: it,rec,kS,kL,kH=      70     1  15   1  15 file=Ttave.0000000070
(PID.TID 0000.0001)  MDS_WRITE_FIELD: it,rec,kS,kL,kH=      70     1  15   1  15 file=Stave.0000000070
(PID.TID 0000.0001)  MDS_WRITE_FIELD: it,rec,kS,kL,kH=      70     1  15   1  15 file=uVeltave.0000000070
(PID.TID 0000.0001)  MDS_WRITE_FIELD: it,rec,kS,kL,kH=      70     1  15   1  15 file=vVeltave.0000000070
(PID.TID 0000.0001)  MDS_WRITE_FIELD: it,rec,kS,kL,kH=      70     1  15   1  15 file=wVeltave.0000000070
(PID.TID 0000.0001)  MDS_WRITE_FIELD: it,rec,kS,kL,kH=      70     1   1   1   1 file=Eta2tave.0000000070
(PID.TID 0000.0001)  MDS_WRITE_FIELD: it,rec,kS,kL,kH=      70     1  15   1  15 file=UTtave.0000000070
(PID.TID 0000.0001)  MDS_WRITE_FIELD: it,rec,kS,kL,kH=      70     1  15   1  15 file=VTtave.0000000070
(PID.TID 0000.0001)  MDS_WRITE_FIELD: it,rec,kS,kL,kH=      70     1  15   1  15 file=WTtave.0000000070
(PID.TID 0000.0001)  MDS_WRITE_FIELD: it,rec,kS,kL,kH=      70     1  15   1  15 file=UStave.0000000070
(PID.TID 0000.0001)  MDS_WRITE_FIELD: it,rec,kS,kL,kH=      70     1  15   1  15 file=VStave.0000000070
(PID.TID 0000.0001)  MDS_WRITE_FIELD: it,rec,kS,kL,kH=      70     1  15   1  15 file=WStave.0000000070
(PID.TID 0000.0001)  MDS_WRITE_FIELD: it,rec,kS,kL,kH=      70     1  15   1  15 file=TTtave.0000000070
(PID.TID 0000.0001)  MDS_WRITE_FIELD: it,rec,kS,kL,kH=      70     1  15   1  15 file=UUtave.0000000070
(PID.TID 0000.0001)  MDS_WRITE_FIELD: it,rec,kS,kL,kH=      70     1  15   1  15 file=VVtave.0000000070
(PID.TID 0000.0001)  MDS_WRITE_FIELD: it,rec,kS,kL,kH=      70     1  15   1  15 file=UVtave.0000000070
(PID.TID 0000.0001)  MDS_WRITE_FIELD: it,rec,kS,kL,kH=      70     1  15   1  15 file=Tdiftave.0000000070
(PID.TID 0000.0001)  MDS_WRITE_FIELD: it,rec,kS,kL,kH=      70     1  15   1  15 file=PhHytave.0000000070
(PID.TID 0000.0001)  MDS_WRITE_FIELD: it,rec,kS,kL,kH=      70     1   1   1   1 file=PHLtave.0000000070
(PID.TID 0000.0001)  MDS_WRITE_FIELD: it,rec,kS,kL,kH=      70     1   1   1   1 file=uFluxtave.0000000070
(PID.TID 0000.0001)  MDS_WRITE_FIELD: it,rec,kS,kL,kH=      70     1   1   1   1 file=vFluxtave.0000000070
(PID.TID 0000.0001)  MDS_WRITE_FIELD: it,rec,kS,kL,kH=      70     1   1   1   1 file=tFluxtave.0000000070
(PID.TID 0000.0001)  MDS_WRITE_FIELD: it,rec,kS,kL,kH=      70     1   1   1   1 file=sFluxtave.0000000070
(PID.TID 0000.0001)  MDS_WRITE_FIELD: it,rec,kS,kL,kH=      70     1   1   1   1 file=PHL2tave.0000000070
(PID.TID 0000.0001)  MDS_WRITE_FIELD: it,rec,kS,kL,kH=      70     1  15   1  15 file=Convtave.0000000070
(PID.TID 0000.0001) // Time-average data written, t-step        70
(PID.TID 0000.0001) 
(PID.TID 0000.0001)  MDS_WRITE_FIELD: it,rec,kS,kL,kH=      70     1  15   1  15 file=GM_Kwx-T.0000000070
(PID.TID 0000.0001)  MDS_WRITE_FIELD: it,rec,kS,kL,kH=      70     1  15   1  15 file=GM_Kwy-T.0000000070
(PID.TID 0000.0001)  MDS_WRITE_FIELD: it,rec,kS,kL,kH=      70     1  15   1  15 file=GM_Kwz-T.0000000070
(PID.TID 0000.0001)  MDS_WRITE_FIELD: it,rec,kS,kL,kH=      70     1  15   1  15 file=pickup_cd.0000000070
(PID.TID 0000.0001)  MDS_WRITE_FIELD: it,rec,kS,kL,kH=      70     2  15   1  15 file=pickup_cd.0000000070
(PID.TID 0000.0001)  MDS_WRITE_FIELD: it,rec,kS,kL,kH=      70     3  15   1  15 file=pickup_cd.0000000070
(PID.TID 0000.0001)  MDS_WRITE_FIELD: it,rec,kS,kL,kH=      70     4  15   1  15 file=pickup_cd.0000000070
(PID.TID 0000.0001)  MDS_WRITE_FIELD: it,rec,kS,kL,kH=      70    61   1   1   1 file=pickup_cd.0000000070
(PID.TID 0000.0001)  MDS_WRITE_FIELD: it,rec,kS,kL,kH=      70    -1  15   1  15 file=pickup.0000000070
(PID.TID 0000.0001)  MDS_WRITE_FIELD: it,rec,kS,kL,kH=      70    -2  15   1  15 file=pickup.0000000070
(PID.TID 0000.0001)  MDS_WRITE_FIELD: it,rec,kS,kL,kH=      70    -3  15   1  15 file=pickup.0000000070
(PID.TID 0000.0001)  MDS_WRITE_FIELD: it,rec,kS,kL,kH=      70    -4  15   1  15 file=pickup.0000000070
(PID.TID 0000.0001)  MDS_WRITE_FIELD: it,rec,kS,kL,kH=      70    -5  15   1  15 file=pickup.0000000070
(PID.TID 0000.0001)  MDS_WRITE_FIELD: it,rec,kS,kL,kH=      70    -6  15   1  15 file=pickup.0000000070
(PID.TID 0000.0001)  MDS_WRITE_FIELD: it,rec,kS,kL,kH=      70    -7  15   1  15 file=pickup.0000000070
(PID.TID 0000.0001)  MDS_WRITE_FIELD: it,rec,kS,kL,kH=      70    -8  15   1  15 file=pickup.0000000070
(PID.TID 0000.0001)  MDS_WRITE_FIELD: it,rec,kS,kL,kH=      70  -121   1   1   1 file=pickup.0000000070
(PID.TID 0000.0001)  MDS_WRITE_FIELD: it,rec,kS,kL,kH=      70  -122   1   1   1 file=pickup.0000000070
(PID.TID 0000.0001)  MDS_WRITE_FIELD: it,rec,kS,kL,kH=      70  -123   1   1   1 file=pickup.0000000070
(PID.TID 0000.0001) %CHECKPOINT        70 0000000070
 EXTERNAL_FIELDS_LOAD,        70 : iP,iLd,i0,i1=    2    3    2    3 ; Wght=  0.1666666667  0.8333333333
 EXTERNAL_FIELDS_LOAD: (fu0,1),fu,fv= -1.4435E-02 -2.7199E-02 -2.5072E-02 -3.4210E-03
 EXTERNAL_FIELDS_LOAD: SST,SSS,Q,E-P= -2.4190E-01  3.4553E+01  2.1958E+02  8.9635E-06
DEBUG_STATS_RL:          Uvel (THERMODYNAMICS)  min= -1.32280289328076E-01
DEBUG_STATS_RL:          Uvel (THERMODYNAMICS)  max=  1.49461591893998E-01
DEBUG_STATS_RL:          Uvel (THERMODYNAMICS) mean=  6.19751957532546E-03
DEBUG_STATS_RL:          Uvel (THERMODYNAMICS) S.D.=  2.44081825021912E-02
DEBUG_STATS_RL:          Vvel (THERMODYNAMICS)  min= -9.17712649559584E-02
DEBUG_STATS_RL:          Vvel (THERMODYNAMICS)  max=  1.57375040897354E-01
DEBUG_STATS_RL:          Vvel (THERMODYNAMICS) mean=  3.67778051038564E-04
DEBUG_STATS_RL:          Vvel (THERMODYNAMICS) S.D.=  1.42664693754070E-02
DEBUG_STATS_RL:          Wvel (THERMODYNAMICS)  min= -9.49448427847868E-05
DEBUG_STATS_RL:          Wvel (THERMODYNAMICS)  max=  8.41500501110110E-05
DEBUG_STATS_RL:          Wvel (THERMODYNAMICS) mean= -1.26662183135148E-07
DEBUG_STATS_RL:          Wvel (THERMODYNAMICS) S.D.=  1.11099777386741E-05
DEBUG_STATS_RL:         Theta (THERMODYNAMICS)  min= -1.95228656586106E+00
DEBUG_STATS_RL:         Theta (THERMODYNAMICS)  max=  3.08219807971522E+01
DEBUG_STATS_RL:         Theta (THERMODYNAMICS) mean=  3.24093827206281E+00
DEBUG_STATS_RL:         Theta (THERMODYNAMICS) S.D.=  5.88235475612539E+00
DEBUG_STATS_RL:          Salt (THERMODYNAMICS)  min=  2.00000000000000E-02
DEBUG_STATS_RL:          Salt (THERMODYNAMICS)  max=  3.74869838932260E+01
DEBUG_STATS_RL:          Salt (THERMODYNAMICS) mean=  1.88647483353524E+01
DEBUG_STATS_RL:          Salt (THERMODYNAMICS) S.D.=  1.73002916404899E+01
DEBUG_STATS_RL:         GtNm1 (THERMODYNAMICS)  min= -1.98659808831032E-06
DEBUG_STATS_RL:         GtNm1 (THERMODYNAMICS)  max=  2.11938594154177E-06
DEBUG_STATS_RL:         GtNm1 (THERMODYNAMICS) mean=  2.73022151881528E-09
DEBUG_STATS_RL:         GtNm1 (THERMODYNAMICS) S.D.=  1.58168972622026E-07
DEBUG_STATS_RL:         GsNm1 (THERMODYNAMICS)  min= -3.48538950274692E-07
DEBUG_STATS_RL:         GsNm1 (THERMODYNAMICS)  max=  2.56057041681185E-07
DEBUG_STATS_RL:         GsNm1 (THERMODYNAMICS) mean= -4.18079756846989E-11
DEBUG_STATS_RL:         GsNm1 (THERMODYNAMICS) S.D.=  1.44807767904389E-08
DEBUG_STATS_RL:                EtaN (DYNAMICS)  min= -1.97713209459295E+00
DEBUG_STATS_RL:                EtaN (DYNAMICS)  max=  9.62040607911460E-01
DEBUG_STATS_RL:                EtaN (DYNAMICS) mean= -1.92469414362869E-01
DEBUG_STATS_RL:                EtaN (DYNAMICS) S.D.=  7.85952387641809E-01
DEBUG_STATS_RL:                Uvel (DYNAMICS)  min= -1.32280289328076E-01
DEBUG_STATS_RL:                Uvel (DYNAMICS)  max=  1.49461591893998E-01
DEBUG_STATS_RL:                Uvel (DYNAMICS) mean=  6.19751957532546E-03
DEBUG_STATS_RL:                Uvel (DYNAMICS) S.D.=  2.44081825021912E-02
DEBUG_STATS_RL:                Vvel (DYNAMICS)  min= -9.17712649559584E-02
DEBUG_STATS_RL:                Vvel (DYNAMICS)  max=  1.57375040897354E-01
DEBUG_STATS_RL:                Vvel (DYNAMICS) mean=  3.67778051038564E-04
DEBUG_STATS_RL:                Vvel (DYNAMICS) S.D.=  1.42664693754070E-02
DEBUG_STATS_RL:                Wvel (DYNAMICS)  min= -9.49448427847868E-05
DEBUG_STATS_RL:                Wvel (DYNAMICS)  max=  8.41500501110110E-05
DEBUG_STATS_RL:                Wvel (DYNAMICS) mean= -1.26662183135148E-07
DEBUG_STATS_RL:                Wvel (DYNAMICS) S.D.=  1.11099777386741E-05
DEBUG_STATS_RL:               Theta (DYNAMICS)  min= -1.95228656586106E+00
DEBUG_STATS_RL:               Theta (DYNAMICS)  max=  3.08219807971522E+01
DEBUG_STATS_RL:               Theta (DYNAMICS) mean=  3.24093827206281E+00
DEBUG_STATS_RL:               Theta (DYNAMICS) S.D.=  5.88235475612539E+00
DEBUG_STATS_RL:                Salt (DYNAMICS)  min=  2.00000000000000E-02
DEBUG_STATS_RL:                Salt (DYNAMICS)  max=  3.74869838932260E+01
DEBUG_STATS_RL:                Salt (DYNAMICS) mean=  1.88647483353524E+01
DEBUG_STATS_RL:                Salt (DYNAMICS) S.D.=  1.73002916404899E+01
DEBUG_STATS_RL:                  Gu (DYNAMICS)  min= -1.30456289928703E-01
DEBUG_STATS_RL:                  Gu (DYNAMICS)  max=  1.48875635769477E-01
DEBUG_STATS_RL:                  Gu (DYNAMICS) mean=  6.13065445522179E-03
DEBUG_STATS_RL:                  Gu (DYNAMICS) S.D.=  2.48478287542880E-02
DEBUG_STATS_RL:                  Gv (DYNAMICS)  min= -9.19765019681673E-02
DEBUG_STATS_RL:                  Gv (DYNAMICS)  max=  1.57949237717155E-01
DEBUG_STATS_RL:                  Gv (DYNAMICS) mean=  3.27659075094032E-03
DEBUG_STATS_RL:                  Gv (DYNAMICS) S.D.=  1.53817722554677E-02
DEBUG_STATS_RL:               GuNm1 (DYNAMICS)  min= -1.05443862217398E-05
DEBUG_STATS_RL:               GuNm1 (DYNAMICS)  max=  9.39089760072303E-06
DEBUG_STATS_RL:               GuNm1 (DYNAMICS) mean=  7.51266758530798E-09
DEBUG_STATS_RL:               GuNm1 (DYNAMICS) S.D.=  1.21251618906351E-06
DEBUG_STATS_RL:               GvNm1 (DYNAMICS)  min= -1.02950467646958E-05
DEBUG_STATS_RL:               GvNm1 (DYNAMICS)  max=  1.55902495936661E-05
DEBUG_STATS_RL:               GvNm1 (DYNAMICS) mean=  7.41153435078486E-07
DEBUG_STATS_RL:               GvNm1 (DYNAMICS) S.D.=  2.64180226854320E-06
DEBUG_STATS_RL:               GtNm1 (DYNAMICS)  min= -1.98659808831032E-06
DEBUG_STATS_RL:               GtNm1 (DYNAMICS)  max=  2.11938594154177E-06
DEBUG_STATS_RL:               GtNm1 (DYNAMICS) mean=  2.73022151881528E-09
DEBUG_STATS_RL:               GtNm1 (DYNAMICS) S.D.=  1.58168972622026E-07
DEBUG_STATS_RL:               GsNm1 (DYNAMICS)  min= -3.48538950274692E-07
DEBUG_STATS_RL:               GsNm1 (DYNAMICS)  max=  2.56057041681185E-07
DEBUG_STATS_RL:               GsNm1 (DYNAMICS) mean= -4.18079756846989E-11
DEBUG_STATS_RL:               GsNm1 (DYNAMICS) S.D.=  1.44807767904389E-08
DEBUG_STATS_RL:    cg2d_b (SOLVE_FOR_PRESSURE)  min= -1.89563429278398E+04
DEBUG_STATS_RL:    cg2d_b (SOLVE_FOR_PRESSURE)  max=  2.55538501130577E+04
DEBUG_STATS_RL:    cg2d_b (SOLVE_FOR_PRESSURE) mean=  4.87496137645580E+00
DEBUG_STATS_RL:    cg2d_b (SOLVE_FOR_PRESSURE) S.D.=  3.98812817195132E+03
 cg2d: Sum(rhs),rhsMax =   4.41637386795594E-01  1.67844529396095E+00
(PID.TID 0000.0001)  cg2d: iter=     1 ; resid.=  1.91350417291353E-01
(PID.TID 0000.0001)  cg2d: iter=     2 ; resid.=  1.92895332155186E-01
(PID.TID 0000.0001)  cg2d: iter=     3 ; resid.=  1.82989381148881E-01
(PID.TID 0000.0001)  cg2d: iter=     4 ; resid.=  1.66993688704621E-01
(PID.TID 0000.0001)  cg2d: iter=     5 ; resid.=  1.63042866788158E-01
(PID.TID 0000.0001)  cg2d: iter=     6 ; resid.=  1.40015726900772E-01
(PID.TID 0000.0001)  cg2d: iter=     7 ; resid.=  1.05558235338951E-01
(PID.TID 0000.0001)  cg2d: iter=     8 ; resid.=  7.51878870072599E-02
(PID.TID 0000.0001)  cg2d: iter=     9 ; resid.=  5.71469495721761E-02
(PID.TID 0000.0001)  cg2d: iter=    10 ; resid.=  4.33801375563951E-02
(PID.TID 0000.0001)  cg2d: iter=    11 ; resid.=  3.92860527938152E-02
(PID.TID 0000.0001)  cg2d: iter=    12 ; resid.=  3.39835969949936E-02
(PID.TID 0000.0001)  cg2d: iter=    13 ; resid.=  2.82652342736456E-02
(PID.TID 0000.0001)  cg2d: iter=    14 ; resid.=  2.42603924061954E-02
(PID.TID 0000.0001)  cg2d: iter=    15 ; resid.=  1.95027691695896E-02
(PID.TID 0000.0001)  cg2d: iter=    16 ; resid.=  1.74455775621429E-02
(PID.TID 0000.0001)  cg2d: iter=    17 ; resid.=  1.56824558450040E-02
(PID.TID 0000.0001)  cg2d: iter=    18 ; resid.=  1.28277328966231E-02
(PID.TID 0000.0001)  cg2d: iter=    19 ; resid.=  9.90307879244563E-03
(PID.TID 0000.0001)  cg2d: iter=    20 ; resid.=  7.67409945734018E-03
(PID.TID 0000.0001)  cg2d: iter=    21 ; resid.=  6.85608588939240E-03
(PID.TID 0000.0001)  cg2d: iter=    22 ; resid.=  6.11617308038272E-03
(PID.TID 0000.0001)  cg2d: iter=    23 ; resid.=  5.07480231608374E-03
(PID.TID 0000.0001)  cg2d: iter=    24 ; resid.=  4.34292953787086E-03
(PID.TID 0000.0001)  cg2d: iter=    25 ; resid.=  3.37306870908596E-03
(PID.TID 0000.0001)  cg2d: iter=    26 ; resid.=  2.61067226530881E-03
(PID.TID 0000.0001)  cg2d: iter=    27 ; resid.=  1.97110991611399E-03
(PID.TID 0000.0001)  cg2d: iter=    28 ; resid.=  1.54943277767756E-03
(PID.TID 0000.0001)  cg2d: iter=    29 ; resid.=  1.24944628745985E-03
(PID.TID 0000.0001)  cg2d: iter=    30 ; resid.=  1.05508633309532E-03
(PID.TID 0000.0001)  cg2d: iter=    31 ; resid.=  8.90292885173299E-04
(PID.TID 0000.0001)  cg2d: iter=    32 ; resid.=  6.66580553433680E-04
(PID.TID 0000.0001)  cg2d: iter=    33 ; resid.=  5.68869740411861E-04
(PID.TID 0000.0001)  cg2d: iter=    34 ; resid.=  5.05883072039401E-04
(PID.TID 0000.0001)  cg2d: iter=    35 ; resid.=  4.28475900049667E-04
(PID.TID 0000.0001)  cg2d: iter=    36 ; resid.=  3.65471019851968E-04
(PID.TID 0000.0001)  cg2d: iter=    37 ; resid.=  3.00361588798582E-04
(PID.TID 0000.0001)  cg2d: iter=    38 ; resid.=  2.61682904931031E-04
(PID.TID 0000.0001)  cg2d: iter=    39 ; resid.=  2.17100040702206E-04
(PID.TID 0000.0001)  cg2d: iter=    40 ; resid.=  1.88949347863412E-04
(PID.TID 0000.0001)  cg2d: iter=    41 ; resid.=  1.55432009200613E-04
(PID.TID 0000.0001)  cg2d: iter=    42 ; resid.=  1.34057934119643E-04
(PID.TID 0000.0001)  cg2d: iter=    43 ; resid.=  1.05032601884868E-04
(PID.TID 0000.0001)  cg2d: iter=    44 ; resid.=  8.26908596839577E-05
(PID.TID 0000.0001)  cg2d: iter=    45 ; resid.=  7.04445452675581E-05
(PID.TID 0000.0001)  cg2d: iter=    46 ; resid.=  5.46253638305943E-05
(PID.TID 0000.0001)  cg2d: iter=    47 ; resid.=  4.73679558177135E-05
(PID.TID 0000.0001)  cg2d: iter=    48 ; resid.=  4.05765578864566E-05
(PID.TID 0000.0001)  cg2d: iter=    49 ; resid.=  3.54760127541386E-05
(PID.TID 0000.0001)  cg2d: iter=    50 ; resid.=  3.21389228512731E-05
(PID.TID 0000.0001)  cg2d: iter=    51 ; resid.=  2.84526418789104E-05
(PID.TID 0000.0001)  cg2d: iter=    52 ; resid.=  2.45559845361057E-05
(PID.TID 0000.0001)  cg2d: iter=    53 ; resid.=  2.02276347503013E-05
(PID.TID 0000.0001)  cg2d: iter=    54 ; resid.=  1.57027947312012E-05
(PID.TID 0000.0001)  cg2d: iter=    55 ; resid.=  1.29737355228868E-05
(PID.TID 0000.0001)  cg2d: iter=    56 ; resid.=  1.12060650276409E-05
(PID.TID 0000.0001)  cg2d: iter=    57 ; resid.=  9.76475783249967E-06
(PID.TID 0000.0001)  cg2d: iter=    58 ; resid.=  7.90076986448323E-06
(PID.TID 0000.0001)  cg2d: iter=    59 ; resid.=  6.14744423834344E-06
(PID.TID 0000.0001)  cg2d: iter=    60 ; resid.=  4.92493986218350E-06
(PID.TID 0000.0001)  cg2d: iter=    61 ; resid.=  4.07860357616309E-06
(PID.TID 0000.0001)  cg2d: iter=    62 ; resid.=  3.42639036272517E-06
(PID.TID 0000.0001)  cg2d: iter=    63 ; resid.=  3.04275333011495E-06
(PID.TID 0000.0001)  cg2d: iter=    64 ; resid.=  2.44999848845377E-06
(PID.TID 0000.0001)  cg2d: iter=    65 ; resid.=  1.94830647654842E-06
(PID.TID 0000.0001)  cg2d: iter=    66 ; resid.=  1.63064795041568E-06
(PID.TID 0000.0001)  cg2d: iter=    67 ; resid.=  1.37136082459719E-06
(PID.TID 0000.0001)  cg2d: iter=    68 ; resid.=  1.21945802899559E-06
(PID.TID 0000.0001)  cg2d: iter=    69 ; resid.=  1.06180382521181E-06
(PID.TID 0000.0001)  cg2d: iter=    70 ; resid.=  8.68021669105600E-07
(PID.TID 0000.0001)  cg2d: iter=    71 ; resid.=  6.95629771310913E-07
(PID.TID 0000.0001)  cg2d: iter=    72 ; resid.=  6.01327438764866E-07
(PID.TID 0000.0001)  cg2d: iter=    73 ; resid.=  5.43436574313611E-07
(PID.TID 0000.0001)  cg2d: iter=    74 ; resid.=  4.59441144353463E-07
(PID.TID 0000.0001)  cg2d: iter=    75 ; resid.=  3.73311822388563E-07
(PID.TID 0000.0001)  cg2d: iter=    76 ; resid.=  3.05452775875410E-07
(PID.TID 0000.0001)  cg2d: iter=    77 ; resid.=  2.36490214423778E-07
(PID.TID 0000.0001)  cg2d: iter=    78 ; resid.=  1.80456492922010E-07
(PID.TID 0000.0001)  cg2d: iter=    79 ; resid.=  1.46999811662070E-07
(PID.TID 0000.0001)  cg2d: iter=    80 ; resid.=  1.08161529972180E-07
(PID.TID 0000.0001)  cg2d: iter=    81 ; resid.=  7.99441560065223E-08
(PID.TID 0000.0001)  cg2d: iter=    82 ; resid.=  5.59634426645824E-08
(PID.TID 0000.0001)  cg2d: iter=    83 ; resid.=  4.13233459931358E-08
(PID.TID 0000.0001)  cg2d: iter=    84 ; resid.=  2.98372324526113E-08
(PID.TID 0000.0001)  cg2d: iter=    85 ; resid.=  2.17367752777170E-08
(PID.TID 0000.0001)  cg2d: iter=    86 ; resid.=  1.71390770866685E-08
(PID.TID 0000.0001)  cg2d: iter=    87 ; resid.=  1.40859527752313E-08
(PID.TID 0000.0001)  cg2d: iter=    88 ; resid.=  1.16038257682200E-08
(PID.TID 0000.0001)  cg2d: iter=    89 ; resid.=  1.09323785573359E-08
(PID.TID 0000.0001)  cg2d: iter=    90 ; resid.=  9.22548234466810E-09
(PID.TID 0000.0001)  cg2d: iter=    91 ; resid.=  6.97368894163879E-09
(PID.TID 0000.0001)  cg2d: iter=    92 ; resid.=  5.51577177360094E-09
(PID.TID 0000.0001)  cg2d: iter=    93 ; resid.=  4.35005111460181E-09
(PID.TID 0000.0001)  cg2d: iter=    94 ; resid.=  3.33393601815948E-09
(PID.TID 0000.0001)  cg2d: iter=    95 ; resid.=  2.68101612542842E-09
(PID.TID 0000.0001)  cg2d: iter=    96 ; resid.=  2.07903862088554E-09
(PID.TID 0000.0001)  cg2d: iter=    97 ; resid.=  1.61515107427832E-09
(PID.TID 0000.0001)  cg2d: iter=    98 ; resid.=  1.38272749295017E-09
(PID.TID 0000.0001)  cg2d: iter=    99 ; resid.=  1.22327097311962E-09
(PID.TID 0000.0001)  cg2d: iter=   100 ; resid.=  1.17743015069259E-09
(PID.TID 0000.0001)  cg2d: iter=   101 ; resid.=  8.85598203519017E-10
(PID.TID 0000.0001)  cg2d: iter=   102 ; resid.=  7.03643756299377E-10
(PID.TID 0000.0001)  cg2d: iter=   103 ; resid.=  5.35519945320065E-10
(PID.TID 0000.0001)  cg2d: iter=   104 ; resid.=  4.02930195485037E-10
(PID.TID 0000.0001)  cg2d: iter=   105 ; resid.=  3.07273359910347E-10
(PID.TID 0000.0001)  cg2d: iter=   106 ; resid.=  2.48136981633815E-10
(PID.TID 0000.0001)  cg2d: iter=   107 ; resid.=  1.76520850456197E-10
(PID.TID 0000.0001)  cg2d: iter=   108 ; resid.=  1.34065446283786E-10
(PID.TID 0000.0001)  cg2d: iter=   109 ; resid.=  1.00696546201765E-10
(PID.TID 0000.0001)  cg2d: iter=   110 ; resid.=  7.27501058165350E-11
(PID.TID 0000.0001)  cg2d: iter=   111 ; resid.=  5.97720839562691E-11
(PID.TID 0000.0001)  cg2d: iter=   112 ; resid.=  4.73179645058439E-11
(PID.TID 0000.0001)  cg2d: iter=   113 ; resid.=  3.61764713351603E-11
(PID.TID 0000.0001)  cg2d: iter=   114 ; resid.=  2.75730087105847E-11
(PID.TID 0000.0001)  cg2d: iter=   115 ; resid.=  2.25310177773973E-11
(PID.TID 0000.0001)  cg2d: iter=   116 ; resid.=  1.71780005183472E-11
(PID.TID 0000.0001)  cg2d: iter=   117 ; resid.=  1.37531597895352E-11
(PID.TID 0000.0001)  cg2d: iter=   118 ; resid.=  1.01454354859311E-11
(PID.TID 0000.0001)  cg2d: iter=   119 ; resid.=  6.86812635218540E-12
(PID.TID 0000.0001)  cg2d: iter=   120 ; resid.=  4.64294005463088E-12
(PID.TID 0000.0001)  cg2d: iter=   121 ; resid.=  3.27027616348840E-12
(PID.TID 0000.0001)  cg2d: iter=   122 ; resid.=  2.38213022667047E-12
(PID.TID 0000.0001)  cg2d: iter=   123 ; resid.=  1.73002090668962E-12
(PID.TID 0000.0001)  cg2d: iter=   124 ; resid.=  1.36473003698350E-12
(PID.TID 0000.0001)  cg2d: iter=   125 ; resid.=  1.07800938042105E-12
(PID.TID 0000.0001)  cg2d: iter=   126 ; resid.=  7.65866908903568E-13
(PID.TID 0000.0001)  cg2d: iter=   127 ; resid.=  5.04990987377782E-13
(PID.TID 0000.0001)  cg2d: iter=   128 ; resid.=  3.64196322867606E-13
(PID.TID 0000.0001)  cg2d: iter=   129 ; resid.=  2.60211492742279E-13
(PID.TID 0000.0001)  cg2d: iter=   130 ; resid.=  1.90129765994814E-13
(PID.TID 0000.0001)  cg2d: iter=   131 ; resid.=  1.41759497472096E-13
(PID.TID 0000.0001)  cg2d: iter=   132 ; resid.=  1.03626155754093E-13
(PID.TID 0000.0001)  cg2d: iter=   133 ; resid.=  7.94064354618274E-14
DEBUG_STATS_RL:    cg2d_x (SOLVE_FOR_PRESSURE)  min= -1.98218108743699E+01
DEBUG_STATS_RL:    cg2d_x (SOLVE_FOR_PRESSURE)  max=  9.86892674942489E+00
DEBUG_STATS_RL:    cg2d_x (SOLVE_FOR_PRESSURE) mean= -1.92415124205761E+00
DEBUG_STATS_RL:    cg2d_x (SOLVE_FOR_PRESSURE) S.D.=  7.88999116045239E+00
(PID.TID 0000.0001)      cg2d_init_res =   3.18181912696871E-01
(PID.TID 0000.0001)      cg2d_iters(min,last) =      -1     133
(PID.TID 0000.0001)      cg2d_last_res =   7.94064354618274E-14
(PID.TID 0000.0001) // =======================================================
(PID.TID 0000.0001) // Begin MONITOR dynamic field statistics
(PID.TID 0000.0001) // =======================================================
(PID.TID 0000.0001) %MON time_tsnumber                =                    71
(PID.TID 0000.0001) %MON time_secondsf                =   6.1344000000000E+06
(PID.TID 0000.0001) %MON dynstat_eta_max              =   1.0060068042227E+00
(PID.TID 0000.0001) %MON dynstat_eta_min              =  -2.0205719545739E+00
(PID.TID 0000.0001) %MON dynstat_eta_mean             =  -5.0864177210777E-03
(PID.TID 0000.0001) %MON dynstat_eta_sd               =   7.0981222953622E-01
(PID.TID 0000.0001) %MON dynstat_eta_del2             =   2.4281770259541E-03
(PID.TID 0000.0001) %MON dynstat_uvel_max             =   1.4931149468775E-01
(PID.TID 0000.0001) %MON dynstat_uvel_min             =  -1.3104048678071E-01
(PID.TID 0000.0001) %MON dynstat_uvel_mean            =   2.4896885477099E-03
(PID.TID 0000.0001) %MON dynstat_uvel_sd              =   1.7097515609292E-02
(PID.TID 0000.0001) %MON dynstat_uvel_del2            =   1.1042694821500E-04
(PID.TID 0000.0001) %MON dynstat_vvel_max             =   1.5771682355654E-01
(PID.TID 0000.0001) %MON dynstat_vvel_min             =  -9.1160465182610E-02
(PID.TID 0000.0001) %MON dynstat_vvel_mean            =  -1.2232293491611E-04
(PID.TID 0000.0001) %MON dynstat_vvel_sd              =   9.2791948633222E-03
(PID.TID 0000.0001) %MON dynstat_vvel_del2            =   8.1178200382724E-05
(PID.TID 0000.0001) %MON dynstat_wvel_max             =   8.3009238239368E-05
(PID.TID 0000.0001) %MON dynstat_wvel_min             =  -9.4895924622549E-05
(PID.TID 0000.0001) %MON dynstat_wvel_mean            =  -1.4030515727699E-22
(PID.TID 0000.0001) %MON dynstat_wvel_sd              =   1.2772908217529E-05
(PID.TID 0000.0001) %MON dynstat_wvel_del2            =   1.2372811485362E-07
(PID.TID 0000.0001) %MON dynstat_theta_max            =   3.0821980797152E+01
(PID.TID 0000.0001) %MON dynstat_theta_min            =  -1.9522865658611E+00
(PID.TID 0000.0001) %MON dynstat_theta_mean           =   3.6436344850838E+00
(PID.TID 0000.0001) %MON dynstat_theta_sd             =   4.4257112800611E+00
(PID.TID 0000.0001) %MON dynstat_theta_del2           =   4.8923659619741E-03
(PID.TID 0000.0001) %MON dynstat_salt_max             =   3.7486983893226E+01
(PID.TID 0000.0001) %MON dynstat_salt_min             =   2.9915422615974E+01
(PID.TID 0000.0001) %MON dynstat_salt_mean            =   3.4738006554054E+01
(PID.TID 0000.0001) %MON dynstat_salt_sd              =   2.9652672888200E-01
(PID.TID 0000.0001) %MON dynstat_salt_del2            =   9.9142938888005E-04
(PID.TID 0000.0001) %MON dynstat_sst_max              =   3.0821980797152E+01
(PID.TID 0000.0001) %MON dynstat_sst_min              =  -1.9522865658611E+00
(PID.TID 0000.0001) %MON dynstat_sst_mean             =   1.9061571607931E+01
(PID.TID 0000.0001) %MON dynstat_sst_sd               =   9.1158579541873E+00
(PID.TID 0000.0001) %MON dynstat_sst_del2             =   2.8485785674769E-02
(PID.TID 0000.0001) %MON dynstat_sss_max              =   3.7473165994735E+01
(PID.TID 0000.0001) %MON dynstat_sss_min              =   2.9915422615974E+01
(PID.TID 0000.0001) %MON dynstat_sss_mean             =   3.4858504127252E+01
(PID.TID 0000.0001) %MON dynstat_sss_sd               =   9.8419358527451E-01
(PID.TID 0000.0001) %MON dynstat_sss_del2             =   8.1088659664547E-03
(PID.TID 0000.0001) %MON forcing_qnet_max             =   2.8849844868978E+02
(PID.TID 0000.0001) %MON forcing_qnet_min             =  -1.6535198720296E+02
(PID.TID 0000.0001) %MON forcing_qnet_mean            =  -8.3817634882777E+00
(PID.TID 0000.0001) %MON forcing_qnet_sd              =   4.9864795267644E+01
(PID.TID 0000.0001) %MON forcing_qnet_del2            =   8.5719679671987E-01
(PID.TID 0000.0001) %MON forcing_qsw_max              =   0.0000000000000E+00
(PID.TID 0000.0001) %MON forcing_qsw_min              =   0.0000000000000E+00
(PID.TID 0000.0001) %MON forcing_qsw_mean             =   0.0000000000000E+00
(PID.TID 0000.0001) %MON forcing_qsw_sd               =   0.0000000000000E+00
(PID.TID 0000.0001) %MON forcing_qsw_del2             =   0.0000000000000E+00
(PID.TID 0000.0001) %MON forcing_empmr_max            =   6.9137603494103E-05
(PID.TID 0000.0001) %MON forcing_empmr_min            =  -8.1268519617576E-05
(PID.TID 0000.0001) %MON forcing_empmr_mean           =   6.1616070805047E-07
(PID.TID 0000.0001) %MON forcing_empmr_sd             =   2.6421504912725E-05
(PID.TID 0000.0001) %MON forcing_empmr_del2           =   3.6086334081367E-07
(PID.TID 0000.0001) %MON forcing_fu_max               =   3.4784431755543E-01
(PID.TID 0000.0001) %MON forcing_fu_min               =  -3.5669582585494E-01
(PID.TID 0000.0001) %MON forcing_fu_mean              =   1.9985731353096E-02
(PID.TID 0000.0001) %MON forcing_fu_sd                =   9.9411775460539E-02
(PID.TID 0000.0001) %MON forcing_fu_del2              =   7.8843066227507E-04
(PID.TID 0000.0001) %MON forcing_fv_max               =   1.6417456045747E-01
(PID.TID 0000.0001) %MON forcing_fv_min               =  -1.8584267546733E-01
(PID.TID 0000.0001) %MON forcing_fv_mean              =  -7.4774336901972E-03
(PID.TID 0000.0001) %MON forcing_fv_sd                =   4.1978074219208E-02
(PID.TID 0000.0001) %MON forcing_fv_del2              =   4.8213719373275E-04
(PID.TID 0000.0001) %MON trAdv_CFL_u_max              =   4.9412413699531E-02
(PID.TID 0000.0001) %MON trAdv_CFL_v_max              =   3.0450850914161E-02
(PID.TID 0000.0001) %MON trAdv_CFL_w_max              =   3.7183939583766E-02
(PID.TID 0000.0001) %MON advcfl_uvel_max              =   4.9352767249971E-02
(PID.TID 0000.0001) %MON advcfl_vvel_max              =   3.0641849343294E-02
(PID.TID 0000.0001) %MON advcfl_wvel_max              =   3.8980885281341E-02
(PID.TID 0000.0001) %MON advcfl_W_hf_max              =   4.5941757653009E-02
(PID.TID 0000.0001) %MON pe_b_mean                    =   6.4474867118890E-04
(PID.TID 0000.0001) %MON ke_max                       =   1.5851260184719E-02
(PID.TID 0000.0001) %MON ke_mean                      =   1.7428611798496E-04
(PID.TID 0000.0001) %MON ke_vol                       =   1.3226782436723E+18
(PID.TID 0000.0001) %MON vort_r_min                   =  -3.1729728232890E-07
(PID.TID 0000.0001) %MON vort_r_max                   =   5.0738119990286E-07
(PID.TID 0000.0001) %MON vort_a_mean                  =  -2.5274806569698E-05
(PID.TID 0000.0001) %MON vort_a_sd                    =   7.3604696755628E-05
(PID.TID 0000.0001) %MON vort_p_mean                  =  -3.1845654756523E-05
(PID.TID 0000.0001) %MON vort_p_sd                    =   1.3162492146264E-04
(PID.TID 0000.0001) %MON surfExpan_theta_mean         =   8.3336610750846E-07
(PID.TID 0000.0001) %MON surfExpan_salt_mean          =  -2.0183970232612E-07
(PID.TID 0000.0001) // =======================================================
(PID.TID 0000.0001) // End MONITOR dynamic field statistics
(PID.TID 0000.0001) // =======================================================
 EXTERNAL_FIELDS_LOAD,        71 : iP,iLd,i0,i1=    2    3    2    3 ; Wght=  0.1333333333  0.8666666667
 EXTERNAL_FIELDS_LOAD: (fu0,1),fu,fv= -1.4435E-02 -2.7199E-02 -2.5497E-02 -2.8524E-03
 EXTERNAL_FIELDS_LOAD: SST,SSS,Q,E-P= -2.3030E-01  3.4558E+01  2.1874E+02  8.9870E-06
DEBUG_STATS_RL:          Uvel (THERMODYNAMICS)  min= -1.31040486780711E-01
DEBUG_STATS_RL:          Uvel (THERMODYNAMICS)  max=  1.49311494687748E-01
DEBUG_STATS_RL:          Uvel (THERMODYNAMICS) mean=  6.22625866611454E-03
DEBUG_STATS_RL:          Uvel (THERMODYNAMICS) S.D.=  2.44353324550947E-02
DEBUG_STATS_RL:          Vvel (THERMODYNAMICS)  min= -9.11604651826097E-02
DEBUG_STATS_RL:          Vvel (THERMODYNAMICS)  max=  1.57716823556542E-01
DEBUG_STATS_RL:          Vvel (THERMODYNAMICS) mean=  4.09938676484688E-04
DEBUG_STATS_RL:          Vvel (THERMODYNAMICS) S.D.=  1.42327169716619E-02
DEBUG_STATS_RL:          Wvel (THERMODYNAMICS)  min= -9.48959246225494E-05
DEBUG_STATS_RL:          Wvel (THERMODYNAMICS)  max=  8.30092382393681E-05
DEBUG_STATS_RL:          Wvel (THERMODYNAMICS) mean= -1.10842150891597E-07
DEBUG_STATS_RL:          Wvel (THERMODYNAMICS) S.D.=  1.10557220925349E-05
DEBUG_STATS_RL:         Theta (THERMODYNAMICS)  min= -1.95217699845938E+00
DEBUG_STATS_RL:         Theta (THERMODYNAMICS)  max=  3.08423526202339E+01
DEBUG_STATS_RL:         Theta (THERMODYNAMICS) mean=  3.24101702766850E+00
DEBUG_STATS_RL:         Theta (THERMODYNAMICS) S.D.=  5.88280626522926E+00
DEBUG_STATS_RL:          Salt (THERMODYNAMICS)  min=  2.00000000000000E-02
DEBUG_STATS_RL:          Salt (THERMODYNAMICS)  max=  3.74868035282539E+01
DEBUG_STATS_RL:          Salt (THERMODYNAMICS) mean=  1.88647524764147E+01
DEBUG_STATS_RL:          Salt (THERMODYNAMICS) S.D.=  1.73002963337996E+01
DEBUG_STATS_RL:         GtNm1 (THERMODYNAMICS)  min= -1.95079697624069E-06
DEBUG_STATS_RL:         GtNm1 (THERMODYNAMICS)  max=  1.63327085134100E-06
DEBUG_STATS_RL:         GtNm1 (THERMODYNAMICS) mean=  2.42552568207205E-09
DEBUG_STATS_RL:         GtNm1 (THERMODYNAMICS) S.D.=  1.56064126428489E-07
DEBUG_STATS_RL:         GsNm1 (THERMODYNAMICS)  min= -3.41531216216227E-07
DEBUG_STATS_RL:         GsNm1 (THERMODYNAMICS)  max=  2.47972835412247E-07
DEBUG_STATS_RL:         GsNm1 (THERMODYNAMICS) mean= -6.37163366419895E-12
DEBUG_STATS_RL:         GsNm1 (THERMODYNAMICS) S.D.=  1.42616306706992E-08
DEBUG_STATS_RL:                EtaN (DYNAMICS)  min= -2.02057195457390E+00
DEBUG_STATS_RL:                EtaN (DYNAMICS)  max=  1.00600680422270E+00
DEBUG_STATS_RL:                EtaN (DYNAMICS) mean= -1.96141818762243E-01
DEBUG_STATS_RL:                EtaN (DYNAMICS) S.D.=  8.04280444490555E-01
DEBUG_STATS_RL:                Uvel (DYNAMICS)  min= -1.31040486780711E-01
DEBUG_STATS_RL:                Uvel (DYNAMICS)  max=  1.49311494687748E-01
DEBUG_STATS_RL:                Uvel (DYNAMICS) mean=  6.22625866611454E-03
DEBUG_STATS_RL:                Uvel (DYNAMICS) S.D.=  2.44353324550947E-02
DEBUG_STATS_RL:                Vvel (DYNAMICS)  min= -9.11604651826097E-02
DEBUG_STATS_RL:                Vvel (DYNAMICS)  max=  1.57716823556542E-01
DEBUG_STATS_RL:                Vvel (DYNAMICS) mean=  4.09938676484688E-04
DEBUG_STATS_RL:                Vvel (DYNAMICS) S.D.=  1.42327169716619E-02
DEBUG_STATS_RL:                Wvel (DYNAMICS)  min= -9.48959246225494E-05
DEBUG_STATS_RL:                Wvel (DYNAMICS)  max=  8.30092382393681E-05
DEBUG_STATS_RL:                Wvel (DYNAMICS) mean= -1.10842150891597E-07
DEBUG_STATS_RL:                Wvel (DYNAMICS) S.D.=  1.10557220925349E-05
DEBUG_STATS_RL:               Theta (DYNAMICS)  min= -1.95217699845938E+00
DEBUG_STATS_RL:               Theta (DYNAMICS)  max=  3.08423526202339E+01
DEBUG_STATS_RL:               Theta (DYNAMICS) mean=  3.24101702766850E+00
DEBUG_STATS_RL:               Theta (DYNAMICS) S.D.=  5.88280626522926E+00
DEBUG_STATS_RL:                Salt (DYNAMICS)  min=  2.00000000000000E-02
DEBUG_STATS_RL:                Salt (DYNAMICS)  max=  3.74868035282539E+01
DEBUG_STATS_RL:                Salt (DYNAMICS) mean=  1.88647524764147E+01
DEBUG_STATS_RL:                Salt (DYNAMICS) S.D.=  1.73002963337996E+01
DEBUG_STATS_RL:                  Gu (DYNAMICS)  min= -1.29110165830620E-01
DEBUG_STATS_RL:                  Gu (DYNAMICS)  max=  1.48154061336974E-01
DEBUG_STATS_RL:                  Gu (DYNAMICS) mean=  6.17142408141595E-03
DEBUG_STATS_RL:                  Gu (DYNAMICS) S.D.=  2.48523816735372E-02
DEBUG_STATS_RL:                  Gv (DYNAMICS)  min= -9.12536504896100E-02
DEBUG_STATS_RL:                  Gv (DYNAMICS)  max=  1.58217708300119E-01
DEBUG_STATS_RL:                  Gv (DYNAMICS) mean=  3.31997943111194E-03
DEBUG_STATS_RL:                  Gv (DYNAMICS) S.D.=  1.54034360965516E-02
DEBUG_STATS_RL:               GuNm1 (DYNAMICS)  min= -1.06209679938060E-05
DEBUG_STATS_RL:               GuNm1 (DYNAMICS)  max=  9.38845750033970E-06
DEBUG_STATS_RL:               GuNm1 (DYNAMICS) mean=  7.64113431571751E-09
DEBUG_STATS_RL:               GuNm1 (DYNAMICS) S.D.=  1.21481308348661E-06
DEBUG_STATS_RL:               GvNm1 (DYNAMICS)  min= -1.02581481905665E-05
DEBUG_STATS_RL:               GvNm1 (DYNAMICS)  max=  1.55835428446480E-05
DEBUG_STATS_RL:               GvNm1 (DYNAMICS) mean=  7.40786291387344E-07
DEBUG_STATS_RL:               GvNm1 (DYNAMICS) S.D.=  2.63948358747463E-06
DEBUG_STATS_RL:               GtNm1 (DYNAMICS)  min= -1.95079697624069E-06
DEBUG_STATS_RL:               GtNm1 (DYNAMICS)  max=  1.63327085134100E-06
DEBUG_STATS_RL:               GtNm1 (DYNAMICS) mean=  2.42552568207205E-09
DEBUG_STATS_RL:               GtNm1 (DYNAMICS) S.D.=  1.56064126428489E-07
DEBUG_STATS_RL:               GsNm1 (DYNAMICS)  min= -3.41531216216227E-07
DEBUG_STATS_RL:               GsNm1 (DYNAMICS)  max=  2.47972835412247E-07
DEBUG_STATS_RL:               GsNm1 (DYNAMICS) mean= -6.37163366419895E-12
DEBUG_STATS_RL:               GsNm1 (DYNAMICS) S.D.=  1.42616306706992E-08
DEBUG_STATS_RL:    cg2d_b (SOLVE_FOR_PRESSURE)  min= -1.89758348651997E+04
DEBUG_STATS_RL:    cg2d_b (SOLVE_FOR_PRESSURE)  max=  2.55475729975572E+04
DEBUG_STATS_RL:    cg2d_b (SOLVE_FOR_PRESSURE) mean=  4.92321176698011E+00
DEBUG_STATS_RL:    cg2d_b (SOLVE_FOR_PRESSURE) S.D.=  3.99478974890083E+03
 cg2d: Sum(rhs),rhsMax =   4.46118120169351E-01  1.67803299620838E+00
(PID.TID 0000.0001)  cg2d: iter=     1 ; resid.=  1.85780648775936E-01
(PID.TID 0000.0001)  cg2d: iter=     2 ; resid.=  1.79687357630940E-01
(PID.TID 0000.0001)  cg2d: iter=     3 ; resid.=  1.70893778154528E-01
(PID.TID 0000.0001)  cg2d: iter=     4 ; resid.=  1.57342981938892E-01
(PID.TID 0000.0001)  cg2d: iter=     5 ; resid.=  1.50625695398982E-01
(PID.TID 0000.0001)  cg2d: iter=     6 ; resid.=  1.31307320176231E-01
(PID.TID 0000.0001)  cg2d: iter=     7 ; resid.=  1.00941719854624E-01
(PID.TID 0000.0001)  cg2d: iter=     8 ; resid.=  7.24383121099068E-02
(PID.TID 0000.0001)  cg2d: iter=     9 ; resid.=  5.56775980457480E-02
(PID.TID 0000.0001)  cg2d: iter=    10 ; resid.=  4.25812982080949E-02
(PID.TID 0000.0001)  cg2d: iter=    11 ; resid.=  3.83646056131212E-02
(PID.TID 0000.0001)  cg2d: iter=    12 ; resid.=  3.25357133574112E-02
(PID.TID 0000.0001)  cg2d: iter=    13 ; resid.=  2.66890309712694E-02
(PID.TID 0000.0001)  cg2d: iter=    14 ; resid.=  2.27219655491477E-02
(PID.TID 0000.0001)  cg2d: iter=    15 ; resid.=  1.83551318825162E-02
(PID.TID 0000.0001)  cg2d: iter=    16 ; resid.=  1.65372057584945E-02
(PID.TID 0000.0001)  cg2d: iter=    17 ; resid.=  1.50486089948946E-02
(PID.TID 0000.0001)  cg2d: iter=    18 ; resid.=  1.26736663605137E-02
(PID.TID 0000.0001)  cg2d: iter=    19 ; resid.=  9.70631943575000E-03
(PID.TID 0000.0001)  cg2d: iter=    20 ; resid.=  7.40243139458735E-03
(PID.TID 0000.0001)  cg2d: iter=    21 ; resid.=  6.53548022164678E-03
(PID.TID 0000.0001)  cg2d: iter=    22 ; resid.=  5.77442423818842E-03
(PID.TID 0000.0001)  cg2d: iter=    23 ; resid.=  4.80976969353793E-03
(PID.TID 0000.0001)  cg2d: iter=    24 ; resid.=  4.12173917167381E-03
(PID.TID 0000.0001)  cg2d: iter=    25 ; resid.=  3.25283008540954E-03
(PID.TID 0000.0001)  cg2d: iter=    26 ; resid.=  2.55999968066829E-03
(PID.TID 0000.0001)  cg2d: iter=    27 ; resid.=  1.94600743620799E-03
(PID.TID 0000.0001)  cg2d: iter=    28 ; resid.=  1.55773117037831E-03
(PID.TID 0000.0001)  cg2d: iter=    29 ; resid.=  1.26423752275036E-03
(PID.TID 0000.0001)  cg2d: iter=    30 ; resid.=  1.06941207031374E-03
(PID.TID 0000.0001)  cg2d: iter=    31 ; resid.=  8.92077754722028E-04
(PID.TID 0000.0001)  cg2d: iter=    32 ; resid.=  6.63607981299785E-04
(PID.TID 0000.0001)  cg2d: iter=    33 ; resid.=  5.67187857168234E-04
(PID.TID 0000.0001)  cg2d: iter=    34 ; resid.=  4.98965591737011E-04
(PID.TID 0000.0001)  cg2d: iter=    35 ; resid.=  4.28584686627536E-04
(PID.TID 0000.0001)  cg2d: iter=    36 ; resid.=  3.71330245637658E-04
(PID.TID 0000.0001)  cg2d: iter=    37 ; resid.=  3.10424367601094E-04
(PID.TID 0000.0001)  cg2d: iter=    38 ; resid.=  2.73211669166834E-04
(PID.TID 0000.0001)  cg2d: iter=    39 ; resid.=  2.27030058640327E-04
(PID.TID 0000.0001)  cg2d: iter=    40 ; resid.=  1.99005415272348E-04
(PID.TID 0000.0001)  cg2d: iter=    41 ; resid.=  1.63847781516731E-04
(PID.TID 0000.0001)  cg2d: iter=    42 ; resid.=  1.41717213574391E-04
(PID.TID 0000.0001)  cg2d: iter=    43 ; resid.=  1.11507981205484E-04
(PID.TID 0000.0001)  cg2d: iter=    44 ; resid.=  8.79697230180403E-05
(PID.TID 0000.0001)  cg2d: iter=    45 ; resid.=  7.43936553653731E-05
(PID.TID 0000.0001)  cg2d: iter=    46 ; resid.=  5.83841123488246E-05
(PID.TID 0000.0001)  cg2d: iter=    47 ; resid.=  5.14545012069015E-05
(PID.TID 0000.0001)  cg2d: iter=    48 ; resid.=  4.40504335347938E-05
(PID.TID 0000.0001)  cg2d: iter=    49 ; resid.=  3.83128425449965E-05
(PID.TID 0000.0001)  cg2d: iter=    50 ; resid.=  3.41943569744125E-05
(PID.TID 0000.0001)  cg2d: iter=    51 ; resid.=  2.98419638195749E-05
(PID.TID 0000.0001)  cg2d: iter=    52 ; resid.=  2.55450478918243E-05
(PID.TID 0000.0001)  cg2d: iter=    53 ; resid.=  2.08319622147456E-05
(PID.TID 0000.0001)  cg2d: iter=    54 ; resid.=  1.61367252220729E-05
(PID.TID 0000.0001)  cg2d: iter=    55 ; resid.=  1.33519860319171E-05
(PID.TID 0000.0001)  cg2d: iter=    56 ; resid.=  1.16024263778704E-05
(PID.TID 0000.0001)  cg2d: iter=    57 ; resid.=  1.02144003308804E-05
(PID.TID 0000.0001)  cg2d: iter=    58 ; resid.=  8.09722816341560E-06
(PID.TID 0000.0001)  cg2d: iter=    59 ; resid.=  6.32224627289077E-06
(PID.TID 0000.0001)  cg2d: iter=    60 ; resid.=  5.04022128744058E-06
(PID.TID 0000.0001)  cg2d: iter=    61 ; resid.=  4.14881209853302E-06
(PID.TID 0000.0001)  cg2d: iter=    62 ; resid.=  3.49806618399788E-06
(PID.TID 0000.0001)  cg2d: iter=    63 ; resid.=  3.15072295854154E-06
(PID.TID 0000.0001)  cg2d: iter=    64 ; resid.=  2.51652481783110E-06
(PID.TID 0000.0001)  cg2d: iter=    65 ; resid.=  1.97137901583438E-06
(PID.TID 0000.0001)  cg2d: iter=    66 ; resid.=  1.62982529572727E-06
(PID.TID 0000.0001)  cg2d: iter=    67 ; resid.=  1.35281405942823E-06
(PID.TID 0000.0001)  cg2d: iter=    68 ; resid.=  1.16841408891722E-06
(PID.TID 0000.0001)  cg2d: iter=    69 ; resid.=  1.02972982785767E-06
(PID.TID 0000.0001)  cg2d: iter=    70 ; resid.=  8.42643356469849E-07
(PID.TID 0000.0001)  cg2d: iter=    71 ; resid.=  6.84579989287226E-07
(PID.TID 0000.0001)  cg2d: iter=    72 ; resid.=  5.95378055141843E-07
(PID.TID 0000.0001)  cg2d: iter=    73 ; resid.=  5.36841501113712E-07
(PID.TID 0000.0001)  cg2d: iter=    74 ; resid.=  4.49155143925464E-07
(PID.TID 0000.0001)  cg2d: iter=    75 ; resid.=  3.58310468346162E-07
(PID.TID 0000.0001)  cg2d: iter=    76 ; resid.=  2.95423093285235E-07
(PID.TID 0000.0001)  cg2d: iter=    77 ; resid.=  2.29279306796792E-07
(PID.TID 0000.0001)  cg2d: iter=    78 ; resid.=  1.77737157808293E-07
(PID.TID 0000.0001)  cg2d: iter=    79 ; resid.=  1.49508844974200E-07
(PID.TID 0000.0001)  cg2d: iter=    80 ; resid.=  1.11692610503722E-07
(PID.TID 0000.0001)  cg2d: iter=    81 ; resid.=  8.36023548927482E-08
(PID.TID 0000.0001)  cg2d: iter=    82 ; resid.=  5.86284697925386E-08
(PID.TID 0000.0001)  cg2d: iter=    83 ; resid.=  4.35640400492438E-08
(PID.TID 0000.0001)  cg2d: iter=    84 ; resid.=  3.10699436853101E-08
(PID.TID 0000.0001)  cg2d: iter=    85 ; resid.=  2.26205803759456E-08
(PID.TID 0000.0001)  cg2d: iter=    86 ; resid.=  1.79822893040745E-08
(PID.TID 0000.0001)  cg2d: iter=    87 ; resid.=  1.46877286706260E-08
(PID.TID 0000.0001)  cg2d: iter=    88 ; resid.=  1.19255295729720E-08
(PID.TID 0000.0001)  cg2d: iter=    89 ; resid.=  1.09891511839479E-08
(PID.TID 0000.0001)  cg2d: iter=    90 ; resid.=  9.23678222305043E-09
(PID.TID 0000.0001)  cg2d: iter=    91 ; resid.=  6.82316309088750E-09
(PID.TID 0000.0001)  cg2d: iter=    92 ; resid.=  5.34449645012515E-09
(PID.TID 0000.0001)  cg2d: iter=    93 ; resid.=  4.31906234522916E-09
(PID.TID 0000.0001)  cg2d: iter=    94 ; resid.=  3.37977204891910E-09
(PID.TID 0000.0001)  cg2d: iter=    95 ; resid.=  2.74384676128395E-09
(PID.TID 0000.0001)  cg2d: iter=    96 ; resid.=  2.13439657622142E-09
(PID.TID 0000.0001)  cg2d: iter=    97 ; resid.=  1.65013471912942E-09
(PID.TID 0000.0001)  cg2d: iter=    98 ; resid.=  1.36784247625528E-09
(PID.TID 0000.0001)  cg2d: iter=    99 ; resid.=  1.18512436102242E-09
(PID.TID 0000.0001)  cg2d: iter=   100 ; resid.=  1.15193153275720E-09
(PID.TID 0000.0001)  cg2d: iter=   101 ; resid.=  8.65670825783291E-10
(PID.TID 0000.0001)  cg2d: iter=   102 ; resid.=  7.08564808014692E-10
(PID.TID 0000.0001)  cg2d: iter=   103 ; resid.=  5.54169416064345E-10
(PID.TID 0000.0001)  cg2d: iter=   104 ; resid.=  4.25702961462469E-10
(PID.TID 0000.0001)  cg2d: iter=   105 ; resid.=  3.36751565592741E-10
(PID.TID 0000.0001)  cg2d: iter=   106 ; resid.=  2.75934287162617E-10
(PID.TID 0000.0001)  cg2d: iter=   107 ; resid.=  1.98658207745456E-10
(PID.TID 0000.0001)  cg2d: iter=   108 ; resid.=  1.52618268817025E-10
(PID.TID 0000.0001)  cg2d: iter=   109 ; resid.=  1.13451204484309E-10
(PID.TID 0000.0001)  cg2d: iter=   110 ; resid.=  7.99388492956087E-11
(PID.TID 0000.0001)  cg2d: iter=   111 ; resid.=  6.45485734409123E-11
(PID.TID 0000.0001)  cg2d: iter=   112 ; resid.=  5.04257161969801E-11
(PID.TID 0000.0001)  cg2d: iter=   113 ; resid.=  3.82806052775339E-11
(PID.TID 0000.0001)  cg2d: iter=   114 ; resid.=  2.94177976115447E-11
(PID.TID 0000.0001)  cg2d: iter=   115 ; resid.=  2.41180021240297E-11
(PID.TID 0000.0001)  cg2d: iter=   116 ; resid.=  1.81025380390847E-11
(PID.TID 0000.0001)  cg2d: iter=   117 ; resid.=  1.42235326200037E-11
(PID.TID 0000.0001)  cg2d: iter=   118 ; resid.=  1.05381678345821E-11
(PID.TID 0000.0001)  cg2d: iter=   119 ; resid.=  7.26083580292956E-12
(PID.TID 0000.0001)  cg2d: iter=   120 ; resid.=  5.00497698052476E-12
(PID.TID 0000.0001)  cg2d: iter=   121 ; resid.=  3.83406642021482E-12
(PID.TID 0000.0001)  cg2d: iter=   122 ; resid.=  3.02394958778804E-12
(PID.TID 0000.0001)  cg2d: iter=   123 ; resid.=  2.21875481376724E-12
(PID.TID 0000.0001)  cg2d: iter=   124 ; resid.=  1.74136060698797E-12
(PID.TID 0000.0001)  cg2d: iter=   125 ; resid.=  1.28867077441399E-12
(PID.TID 0000.0001)  cg2d: iter=   126 ; resid.=  8.54530031716543E-13
(PID.TID 0000.0001)  cg2d: iter=   127 ; resid.=  5.46097083301827E-13
(PID.TID 0000.0001)  cg2d: iter=   128 ; resid.=  3.88664697243766E-13
(PID.TID 0000.0001)  cg2d: iter=   129 ; resid.=  2.78362026779156E-13
(PID.TID 0000.0001)  cg2d: iter=   130 ; resid.=  2.02553799230361E-13
(PID.TID 0000.0001)  cg2d: iter=   131 ; resid.=  1.47173558134647E-13
(PID.TID 0000.0001)  cg2d: iter=   132 ; resid.=  1.02172262539402E-13
(PID.TID 0000.0001)  cg2d: iter=   133 ; resid.=  7.37385314658568E-14
DEBUG_STATS_RL:    cg2d_x (SOLVE_FOR_PRESSURE)  min= -2.02295231442292E+01
DEBUG_STATS_RL:    cg2d_x (SOLVE_FOR_PRESSURE)  max=  1.03266088289044E+01
DEBUG_STATS_RL:    cg2d_x (SOLVE_FOR_PRESSURE) mean= -1.95831841978790E+00
DEBUG_STATS_RL:    cg2d_x (SOLVE_FOR_PRESSURE) S.D.=  8.07083164938231E+00
(PID.TID 0000.0001)      cg2d_init_res =   3.16161122354225E-01
(PID.TID 0000.0001)      cg2d_iters(min,last) =      -1     133
(PID.TID 0000.0001)      cg2d_last_res =   7.37385314658568E-14
(PID.TID 0000.0001) // =======================================================
(PID.TID 0000.0001) // Begin MONITOR dynamic field statistics
(PID.TID 0000.0001) // =======================================================
(PID.TID 0000.0001) %MON time_tsnumber                =                    72
(PID.TID 0000.0001) %MON time_secondsf                =   6.2208000000000E+06
(PID.TID 0000.0001) %MON dynstat_eta_max              =   1.0526614504490E+00
(PID.TID 0000.0001) %MON dynstat_eta_min              =  -2.0621328383516E+00
(PID.TID 0000.0001) %MON dynstat_eta_mean             =  -5.1367610207376E-03
(PID.TID 0000.0001) %MON dynstat_eta_sd               =   7.3073998897554E-01
(PID.TID 0000.0001) %MON dynstat_eta_del2             =   2.4370499596344E-03
(PID.TID 0000.0001) %MON dynstat_uvel_max             =   1.4813602286914E-01
(PID.TID 0000.0001) %MON dynstat_uvel_min             =  -1.2955880150475E-01
(PID.TID 0000.0001) %MON dynstat_uvel_mean            =   2.4943611718492E-03
(PID.TID 0000.0001) %MON dynstat_uvel_sd              =   1.7064852267483E-02
(PID.TID 0000.0001) %MON dynstat_uvel_del2            =   1.1074186176032E-04
(PID.TID 0000.0001) %MON dynstat_vvel_max             =   1.5764628719654E-01
(PID.TID 0000.0001) %MON dynstat_vvel_min             =  -9.0034287774574E-02
(PID.TID 0000.0001) %MON dynstat_vvel_mean            =  -1.3656787304441E-04
(PID.TID 0000.0001) %MON dynstat_vvel_sd              =   9.2283293044250E-03
(PID.TID 0000.0001) %MON dynstat_vvel_del2            =   8.1044929865358E-05
(PID.TID 0000.0001) %MON dynstat_wvel_max             =   8.2199008209514E-05
(PID.TID 0000.0001) %MON dynstat_wvel_min             =  -9.3597097728504E-05
(PID.TID 0000.0001) %MON dynstat_wvel_mean            =   8.9132882324404E-23
(PID.TID 0000.0001) %MON dynstat_wvel_sd              =   1.2721981483105E-05
(PID.TID 0000.0001) %MON dynstat_wvel_del2            =   1.2303224666210E-07
(PID.TID 0000.0001) %MON dynstat_theta_max            =   3.0842352620234E+01
(PID.TID 0000.0001) %MON dynstat_theta_min            =  -1.9521769984594E+00
(PID.TID 0000.0001) %MON dynstat_theta_mean           =   3.6436616746780E+00
(PID.TID 0000.0001) %MON dynstat_theta_sd             =   4.4258688120788E+00
(PID.TID 0000.0001) %MON dynstat_theta_del2           =   4.8885144709628E-03
(PID.TID 0000.0001) %MON dynstat_salt_max             =   3.7486803528254E+01
(PID.TID 0000.0001) %MON dynstat_salt_min             =   2.9915921218255E+01
(PID.TID 0000.0001) %MON dynstat_salt_mean            =   3.4738011685298E+01
(PID.TID 0000.0001) %MON dynstat_salt_sd              =   2.9654348291571E-01
(PID.TID 0000.0001) %MON dynstat_salt_del2            =   9.9171694628513E-04
(PID.TID 0000.0001) %MON dynstat_sst_max              =   3.0842352620234E+01
(PID.TID 0000.0001) %MON dynstat_sst_min              =  -1.9521769984594E+00
(PID.TID 0000.0001) %MON dynstat_sst_mean             =   1.9064923195186E+01
(PID.TID 0000.0001) %MON dynstat_sst_sd               =   9.1220463046277E+00
(PID.TID 0000.0001) %MON dynstat_sst_del2             =   2.8531452621044E-02
(PID.TID 0000.0001) %MON dynstat_sss_max              =   3.7473931196061E+01
(PID.TID 0000.0001) %MON dynstat_sss_min              =   2.9915921218255E+01
(PID.TID 0000.0001) %MON dynstat_sss_mean             =   3.4858470890827E+01
(PID.TID 0000.0001) %MON dynstat_sss_sd               =   9.8451061025036E-01
(PID.TID 0000.0001) %MON dynstat_sss_del2             =   8.1191345542874E-03
(PID.TID 0000.0001) %MON forcing_qnet_max             =   2.8570029703776E+02
(PID.TID 0000.0001) %MON forcing_qnet_min             =  -1.6505270792643E+02
(PID.TID 0000.0001) %MON forcing_qnet_mean            =  -8.1584239886512E+00
(PID.TID 0000.0001) %MON forcing_qnet_sd              =   4.9087615346713E+01
(PID.TID 0000.0001) %MON forcing_qnet_del2            =   8.5584718826358E-01
(PID.TID 0000.0001) %MON forcing_qsw_max              =   0.0000000000000E+00
(PID.TID 0000.0001) %MON forcing_qsw_min              =   0.0000000000000E+00
(PID.TID 0000.0001) %MON forcing_qsw_mean             =   0.0000000000000E+00
(PID.TID 0000.0001) %MON forcing_qsw_sd               =   0.0000000000000E+00
(PID.TID 0000.0001) %MON forcing_qsw_del2             =   0.0000000000000E+00
(PID.TID 0000.0001) %MON forcing_empmr_max            =   6.9131847150553E-05
(PID.TID 0000.0001) %MON forcing_empmr_min            =  -8.1667699210660E-05
(PID.TID 0000.0001) %MON forcing_empmr_mean           =   6.0307077717612E-07
(PID.TID 0000.0001) %MON forcing_empmr_sd             =   2.6389948211674E-05
(PID.TID 0000.0001) %MON forcing_empmr_del2           =   3.6187086686805E-07
(PID.TID 0000.0001) %MON forcing_fu_max               =   3.4978573322296E-01
(PID.TID 0000.0001) %MON forcing_fu_min               =  -3.6306794484456E-01
(PID.TID 0000.0001) %MON forcing_fu_mean              =   2.0079930942554E-02
(PID.TID 0000.0001) %MON forcing_fu_sd                =   9.9921924992738E-02
(PID.TID 0000.0001) %MON forcing_fu_del2              =   7.9937861961633E-04
(PID.TID 0000.0001) %MON forcing_fv_max               =   1.6799971759319E-01
(PID.TID 0000.0001) %MON forcing_fv_min               =  -1.8734046618144E-01
(PID.TID 0000.0001) %MON forcing_fv_mean              =  -7.4878620401667E-03
(PID.TID 0000.0001) %MON forcing_fv_sd                =   4.2084455794319E-02
(PID.TID 0000.0001) %MON forcing_fv_del2              =   4.8631922143069E-04
(PID.TID 0000.0001) %MON trAdv_CFL_u_max              =   4.9362791149976E-02
(PID.TID 0000.0001) %MON trAdv_CFL_v_max              =   3.0516983210240E-02
(PID.TID 0000.0001) %MON trAdv_CFL_w_max              =   3.5965154653074E-02
(PID.TID 0000.0001) %MON advcfl_uvel_max              =   4.8964231945345E-02
(PID.TID 0000.0001) %MON advcfl_vvel_max              =   3.0628145259812E-02
(PID.TID 0000.0001) %MON advcfl_wvel_max              =   3.6349329909090E-02
(PID.TID 0000.0001) %MON advcfl_W_hf_max              =   4.2840281678570E-02
(PID.TID 0000.0001) %MON pe_b_mean                    =   6.8332672854103E-04
(PID.TID 0000.0001) %MON ke_max                       =   1.6009174059052E-02
(PID.TID 0000.0001) %MON ke_mean                      =   1.7336876949264E-04
(PID.TID 0000.0001) %MON ke_vol                       =   1.3226782436723E+18
(PID.TID 0000.0001) %MON vort_r_min                   =  -3.2843357544606E-07
(PID.TID 0000.0001) %MON vort_r_max                   =   4.8454495450919E-07
(PID.TID 0000.0001) %MON vort_a_mean                  =  -2.5274806509689E-05
(PID.TID 0000.0001) %MON vort_a_sd                    =   7.3604697676305E-05
(PID.TID 0000.0001) %MON vort_p_mean                  =  -3.1845654680914E-05
(PID.TID 0000.0001) %MON vort_p_sd                    =   1.3162504859633E-04
(PID.TID 0000.0001) %MON surfExpan_theta_mean         =   7.8114490128686E-07
(PID.TID 0000.0001) %MON surfExpan_salt_mean          =  -1.8511257402829E-07
(PID.TID 0000.0001) // =======================================================
(PID.TID 0000.0001) // End MONITOR dynamic field statistics
(PID.TID 0000.0001) // =======================================================
 EXTERNAL_FIELDS_LOAD,        72 : iP,iLd,i0,i1=    2    3    2    3 ; Wght=  0.1000000000  0.9000000000
 EXTERNAL_FIELDS_LOAD: (fu0,1),fu,fv= -1.4435E-02 -2.7199E-02 -2.5922E-02 -2.2838E-03
 EXTERNAL_FIELDS_LOAD: SST,SSS,Q,E-P= -2.1870E-01  3.4563E+01  2.1790E+02  9.0104E-06
DEBUG_STATS_RL:          Uvel (THERMODYNAMICS)  min= -1.29558801504752E-01
DEBUG_STATS_RL:          Uvel (THERMODYNAMICS)  max=  1.48136022869140E-01
DEBUG_STATS_RL:          Uvel (THERMODYNAMICS) mean=  6.25693301346831E-03
DEBUG_STATS_RL:          Uvel (THERMODYNAMICS) S.D.=  2.44266873189453E-02
DEBUG_STATS_RL:          Vvel (THERMODYNAMICS)  min= -9.00342877745739E-02
DEBUG_STATS_RL:          Vvel (THERMODYNAMICS)  max=  1.57646287196536E-01
DEBUG_STATS_RL:          Vvel (THERMODYNAMICS) mean=  4.65418430113746E-04
DEBUG_STATS_RL:          Vvel (THERMODYNAMICS) S.D.=  1.42197765998647E-02
DEBUG_STATS_RL:          Wvel (THERMODYNAMICS)  min= -9.35970977285042E-05
DEBUG_STATS_RL:          Wvel (THERMODYNAMICS)  max=  8.21990082095137E-05
DEBUG_STATS_RL:          Wvel (THERMODYNAMICS) mean= -9.38176737982730E-08
DEBUG_STATS_RL:          Wvel (THERMODYNAMICS) S.D.=  1.10180192030944E-05
DEBUG_STATS_RL:         Theta (THERMODYNAMICS)  min= -1.95199052292943E+00
DEBUG_STATS_RL:         Theta (THERMODYNAMICS)  max=  3.08630887848807E+01
DEBUG_STATS_RL:         Theta (THERMODYNAMICS) mean=  3.24108187359032E+00
DEBUG_STATS_RL:         Theta (THERMODYNAMICS) S.D.=  5.88326252992869E+00
DEBUG_STATS_RL:          Salt (THERMODYNAMICS)  min=  2.00000000000000E-02
DEBUG_STATS_RL:          Salt (THERMODYNAMICS)  max=  3.74865826610530E+01
DEBUG_STATS_RL:          Salt (THERMODYNAMICS) mean=  1.88647578055327E+01
DEBUG_STATS_RL:          Salt (THERMODYNAMICS) S.D.=  1.73003021155215E+01
DEBUG_STATS_RL:         GtNm1 (THERMODYNAMICS)  min= -1.90902616117527E-06
DEBUG_STATS_RL:         GtNm1 (THERMODYNAMICS)  max=  2.02588679005661E-06
DEBUG_STATS_RL:         GtNm1 (THERMODYNAMICS) mean=  2.15287141494143E-09
DEBUG_STATS_RL:         GtNm1 (THERMODYNAMICS) S.D.=  1.56234306461702E-07
DEBUG_STATS_RL:         GsNm1 (THERMODYNAMICS)  min= -3.33273111257139E-07
DEBUG_STATS_RL:         GsNm1 (THERMODYNAMICS)  max=  2.49197908200693E-07
DEBUG_STATS_RL:         GsNm1 (THERMODYNAMICS) mean=  2.58228704244277E-11
DEBUG_STATS_RL:         GsNm1 (THERMODYNAMICS) S.D.=  1.41982369359770E-08
DEBUG_STATS_RL:                EtaN (DYNAMICS)  min= -2.06213283835160E+00
DEBUG_STATS_RL:                EtaN (DYNAMICS)  max=  1.05266145044904E+00
DEBUG_STATS_RL:                EtaN (DYNAMICS) mean= -1.99624711497236E-01
DEBUG_STATS_RL:                EtaN (DYNAMICS) S.D.=  8.22714745095035E-01
DEBUG_STATS_RL:                Uvel (DYNAMICS)  min= -1.29558801504752E-01
DEBUG_STATS_RL:                Uvel (DYNAMICS)  max=  1.48136022869140E-01
DEBUG_STATS_RL:                Uvel (DYNAMICS) mean=  6.25693301346831E-03
DEBUG_STATS_RL:                Uvel (DYNAMICS) S.D.=  2.44266873189453E-02
DEBUG_STATS_RL:                Vvel (DYNAMICS)  min= -9.00342877745739E-02
DEBUG_STATS_RL:                Vvel (DYNAMICS)  max=  1.57646287196536E-01
DEBUG_STATS_RL:                Vvel (DYNAMICS) mean=  4.65418430113746E-04
DEBUG_STATS_RL:                Vvel (DYNAMICS) S.D.=  1.42197765998647E-02
DEBUG_STATS_RL:                Wvel (DYNAMICS)  min= -9.35970977285042E-05
DEBUG_STATS_RL:                Wvel (DYNAMICS)  max=  8.21990082095137E-05
DEBUG_STATS_RL:                Wvel (DYNAMICS) mean= -9.38176737982730E-08
DEBUG_STATS_RL:                Wvel (DYNAMICS) S.D.=  1.10180192030944E-05
DEBUG_STATS_RL:               Theta (DYNAMICS)  min= -1.95199052292943E+00
DEBUG_STATS_RL:               Theta (DYNAMICS)  max=  3.08630887848807E+01
DEBUG_STATS_RL:               Theta (DYNAMICS) mean=  3.24108187359032E+00
DEBUG_STATS_RL:               Theta (DYNAMICS) S.D.=  5.88326252992869E+00
DEBUG_STATS_RL:                Salt (DYNAMICS)  min=  2.00000000000000E-02
DEBUG_STATS_RL:                Salt (DYNAMICS)  max=  3.74865826610530E+01
DEBUG_STATS_RL:                Salt (DYNAMICS) mean=  1.88647578055327E+01
DEBUG_STATS_RL:                Salt (DYNAMICS) S.D.=  1.73003021155215E+01
DEBUG_STATS_RL:                  Gu (DYNAMICS)  min= -1.27532550310251E-01
DEBUG_STATS_RL:                  Gu (DYNAMICS)  max=  1.46356427779032E-01
DEBUG_STATS_RL:                  Gu (DYNAMICS) mean=  6.21518453969361E-03
DEBUG_STATS_RL:                  Gu (DYNAMICS) S.D.=  2.48246728569908E-02
DEBUG_STATS_RL:                  Gv (DYNAMICS)  min= -8.96956362173934E-02
DEBUG_STATS_RL:                  Gv (DYNAMICS)  max=  1.58075418494910E-01
DEBUG_STATS_RL:                  Gv (DYNAMICS) mean=  3.36799074882262E-03
DEBUG_STATS_RL:                  Gv (DYNAMICS) S.D.=  1.54475510891741E-02
DEBUG_STATS_RL:               GuNm1 (DYNAMICS)  min= -1.06924554096246E-05
DEBUG_STATS_RL:               GuNm1 (DYNAMICS)  max=  9.38592486359087E-06
DEBUG_STATS_RL:               GuNm1 (DYNAMICS) mean=  7.84512075548396E-09
DEBUG_STATS_RL:               GuNm1 (DYNAMICS) S.D.=  1.21733543379328E-06
DEBUG_STATS_RL:               GvNm1 (DYNAMICS)  min= -1.02100247791269E-05
DEBUG_STATS_RL:               GvNm1 (DYNAMICS)  max=  1.55788112051904E-05
DEBUG_STATS_RL:               GvNm1 (DYNAMICS) mean=  7.40394969818232E-07
DEBUG_STATS_RL:               GvNm1 (DYNAMICS) S.D.=  2.63719081009675E-06
DEBUG_STATS_RL:               GtNm1 (DYNAMICS)  min= -1.90902616117527E-06
DEBUG_STATS_RL:               GtNm1 (DYNAMICS)  max=  2.02588679005661E-06
DEBUG_STATS_RL:               GtNm1 (DYNAMICS) mean=  2.15287141494143E-09
DEBUG_STATS_RL:               GtNm1 (DYNAMICS) S.D.=  1.56234306461702E-07
DEBUG_STATS_RL:               GsNm1 (DYNAMICS)  min= -3.33273111257139E-07
DEBUG_STATS_RL:               GsNm1 (DYNAMICS)  max=  2.49197908200693E-07
DEBUG_STATS_RL:               GsNm1 (DYNAMICS) mean=  2.58228704244277E-11
DEBUG_STATS_RL:               GsNm1 (DYNAMICS) S.D.=  1.41982369359770E-08
DEBUG_STATS_RL:    cg2d_b (SOLVE_FOR_PRESSURE)  min= -1.90141246440387E+04
DEBUG_STATS_RL:    cg2d_b (SOLVE_FOR_PRESSURE)  max=  2.55422375547208E+04
DEBUG_STATS_RL:    cg2d_b (SOLVE_FOR_PRESSURE) mean=  4.97041486040131E+00
DEBUG_STATS_RL:    cg2d_b (SOLVE_FOR_PRESSURE) S.D.=  4.00215973004053E+03
 cg2d: Sum(rhs),rhsMax =   4.50489522586972E-01  1.67768255003762E+00
(PID.TID 0000.0001)  cg2d: iter=     1 ; resid.=  1.78373906826092E-01
(PID.TID 0000.0001)  cg2d: iter=     2 ; resid.=  1.63753771816085E-01
(PID.TID 0000.0001)  cg2d: iter=     3 ; resid.=  1.55992666976364E-01
(PID.TID 0000.0001)  cg2d: iter=     4 ; resid.=  1.44411100653227E-01
(PID.TID 0000.0001)  cg2d: iter=     5 ; resid.=  1.34533751003094E-01
(PID.TID 0000.0001)  cg2d: iter=     6 ; resid.=  1.19182717520750E-01
(PID.TID 0000.0001)  cg2d: iter=     7 ; resid.=  9.41339006588815E-02
(PID.TID 0000.0001)  cg2d: iter=     8 ; resid.=  6.88631390363054E-02
(PID.TID 0000.0001)  cg2d: iter=     9 ; resid.=  5.38160578444840E-02
(PID.TID 0000.0001)  cg2d: iter=    10 ; resid.=  4.17673944523561E-02
(PID.TID 0000.0001)  cg2d: iter=    11 ; resid.=  3.72581260343820E-02
(PID.TID 0000.0001)  cg2d: iter=    12 ; resid.=  3.08806370443159E-02
(PID.TID 0000.0001)  cg2d: iter=    13 ; resid.=  2.48253364598332E-02
(PID.TID 0000.0001)  cg2d: iter=    14 ; resid.=  2.08638786003615E-02
(PID.TID 0000.0001)  cg2d: iter=    15 ; resid.=  1.69866498489287E-02
(PID.TID 0000.0001)  cg2d: iter=    16 ; resid.=  1.53244090437651E-02
(PID.TID 0000.0001)  cg2d: iter=    17 ; resid.=  1.41235905155417E-02
(PID.TID 0000.0001)  cg2d: iter=    18 ; resid.=  1.22355820815868E-02
(PID.TID 0000.0001)  cg2d: iter=    19 ; resid.=  9.35540515108779E-03
(PID.TID 0000.0001)  cg2d: iter=    20 ; resid.=  7.09020584961775E-03
(PID.TID 0000.0001)  cg2d: iter=    21 ; resid.=  6.18656323822768E-03
(PID.TID 0000.0001)  cg2d: iter=    22 ; resid.=  5.43894520536564E-03
(PID.TID 0000.0001)  cg2d: iter=    23 ; resid.=  4.52865690215692E-03
(PID.TID 0000.0001)  cg2d: iter=    24 ; resid.=  3.83410930191425E-03
(PID.TID 0000.0001)  cg2d: iter=    25 ; resid.=  3.06748626823209E-03
(PID.TID 0000.0001)  cg2d: iter=    26 ; resid.=  2.45523798507468E-03
(PID.TID 0000.0001)  cg2d: iter=    27 ; resid.=  1.89064531521781E-03
(PID.TID 0000.0001)  cg2d: iter=    28 ; resid.=  1.54953527100186E-03
(PID.TID 0000.0001)  cg2d: iter=    29 ; resid.=  1.27465830219633E-03
(PID.TID 0000.0001)  cg2d: iter=    30 ; resid.=  1.08017856277552E-03
(PID.TID 0000.0001)  cg2d: iter=    31 ; resid.=  8.88256662004499E-04
(PID.TID 0000.0001)  cg2d: iter=    32 ; resid.=  6.57232984931397E-04
(PID.TID 0000.0001)  cg2d: iter=    33 ; resid.=  5.60300187836432E-04
(PID.TID 0000.0001)  cg2d: iter=    34 ; resid.=  4.86725863831589E-04
(PID.TID 0000.0001)  cg2d: iter=    35 ; resid.=  4.23420401421488E-04
(PID.TID 0000.0001)  cg2d: iter=    36 ; resid.=  3.70399314264510E-04
(PID.TID 0000.0001)  cg2d: iter=    37 ; resid.=  3.14387387664490E-04
(PID.TID 0000.0001)  cg2d: iter=    38 ; resid.=  2.78085901597447E-04
(PID.TID 0000.0001)  cg2d: iter=    39 ; resid.=  2.32813708095710E-04
(PID.TID 0000.0001)  cg2d: iter=    40 ; resid.=  2.05046735660257E-04
(PID.TID 0000.0001)  cg2d: iter=    41 ; resid.=  1.69703363103600E-04
(PID.TID 0000.0001)  cg2d: iter=    42 ; resid.=  1.47079573099450E-04
(PID.TID 0000.0001)  cg2d: iter=    43 ; resid.=  1.16014217461913E-04
(PID.TID 0000.0001)  cg2d: iter=    44 ; resid.=  9.11296803310100E-05
(PID.TID 0000.0001)  cg2d: iter=    45 ; resid.=  7.58929940594501E-05
(PID.TID 0000.0001)  cg2d: iter=    46 ; resid.=  5.98433884621187E-05
(PID.TID 0000.0001)  cg2d: iter=    47 ; resid.=  5.29198907687469E-05
(PID.TID 0000.0001)  cg2d: iter=    48 ; resid.=  4.52130427115486E-05
(PID.TID 0000.0001)  cg2d: iter=    49 ; resid.=  3.89130671668471E-05
(PID.TID 0000.0001)  cg2d: iter=    50 ; resid.=  3.39911672149161E-05
(PID.TID 0000.0001)  cg2d: iter=    51 ; resid.=  2.94443897521821E-05
(PID.TID 0000.0001)  cg2d: iter=    52 ; resid.=  2.51113095349571E-05
(PID.TID 0000.0001)  cg2d: iter=    53 ; resid.=  2.04814368578925E-05
(PID.TID 0000.0001)  cg2d: iter=    54 ; resid.=  1.59791929050102E-05
(PID.TID 0000.0001)  cg2d: iter=    55 ; resid.=  1.32662380650531E-05
(PID.TID 0000.0001)  cg2d: iter=    56 ; resid.=  1.15222422828732E-05
(PID.TID 0000.0001)  cg2d: iter=    57 ; resid.=  1.01228499707227E-05
(PID.TID 0000.0001)  cg2d: iter=    58 ; resid.=  7.84052903788334E-06
(PID.TID 0000.0001)  cg2d: iter=    59 ; resid.=  6.15220159744230E-06
(PID.TID 0000.0001)  cg2d: iter=    60 ; resid.=  4.93937829864156E-06
(PID.TID 0000.0001)  cg2d: iter=    61 ; resid.=  4.10027504892650E-06
(PID.TID 0000.0001)  cg2d: iter=    62 ; resid.=  3.48189363940493E-06
(PID.TID 0000.0001)  cg2d: iter=    63 ; resid.=  3.18130715943694E-06
(PID.TID 0000.0001)  cg2d: iter=    64 ; resid.=  2.50419443950617E-06
(PID.TID 0000.0001)  cg2d: iter=    65 ; resid.=  1.92870596551365E-06
(PID.TID 0000.0001)  cg2d: iter=    66 ; resid.=  1.56358450387470E-06
(PID.TID 0000.0001)  cg2d: iter=    67 ; resid.=  1.28503130073743E-06
(PID.TID 0000.0001)  cg2d: iter=    68 ; resid.=  1.08082477073134E-06
(PID.TID 0000.0001)  cg2d: iter=    69 ; resid.=  9.54946416885599E-07
(PID.TID 0000.0001)  cg2d: iter=    70 ; resid.=  7.86158467760501E-07
(PID.TID 0000.0001)  cg2d: iter=    71 ; resid.=  6.51724319189425E-07
(PID.TID 0000.0001)  cg2d: iter=    72 ; resid.=  5.71414019500540E-07
(PID.TID 0000.0001)  cg2d: iter=    73 ; resid.=  5.13033015951539E-07
(PID.TID 0000.0001)  cg2d: iter=    74 ; resid.=  4.25002425671257E-07
(PID.TID 0000.0001)  cg2d: iter=    75 ; resid.=  3.32854417045613E-07
(PID.TID 0000.0001)  cg2d: iter=    76 ; resid.=  2.75530308215364E-07
(PID.TID 0000.0001)  cg2d: iter=    77 ; resid.=  2.15665618408807E-07
(PID.TID 0000.0001)  cg2d: iter=    78 ; resid.=  1.70924164261200E-07
(PID.TID 0000.0001)  cg2d: iter=    79 ; resid.=  1.47196721285319E-07
(PID.TID 0000.0001)  cg2d: iter=    80 ; resid.=  1.11475615762713E-07
(PID.TID 0000.0001)  cg2d: iter=    81 ; resid.=  8.42917248045535E-08
(PID.TID 0000.0001)  cg2d: iter=    82 ; resid.=  5.92923226012885E-08
(PID.TID 0000.0001)  cg2d: iter=    83 ; resid.=  4.43217667209286E-08
(PID.TID 0000.0001)  cg2d: iter=    84 ; resid.=  3.15543334147607E-08
(PID.TID 0000.0001)  cg2d: iter=    85 ; resid.=  2.30122841122854E-08
(PID.TID 0000.0001)  cg2d: iter=    86 ; resid.=  1.84614511324312E-08
(PID.TID 0000.0001)  cg2d: iter=    87 ; resid.=  1.51078575250801E-08
(PID.TID 0000.0001)  cg2d: iter=    88 ; resid.=  1.20436593868290E-08
(PID.TID 0000.0001)  cg2d: iter=    89 ; resid.=  1.08518902237931E-08
(PID.TID 0000.0001)  cg2d: iter=    90 ; resid.=  9.09245212458622E-09
(PID.TID 0000.0001)  cg2d: iter=    91 ; resid.=  6.54831446379833E-09
(PID.TID 0000.0001)  cg2d: iter=    92 ; resid.=  5.03228993297969E-09
(PID.TID 0000.0001)  cg2d: iter=    93 ; resid.=  4.11500336517687E-09
(PID.TID 0000.0001)  cg2d: iter=    94 ; resid.=  3.29349567068973E-09
(PID.TID 0000.0001)  cg2d: iter=    95 ; resid.=  2.68911337822197E-09
(PID.TID 0000.0001)  cg2d: iter=    96 ; resid.=  2.10550755018277E-09
(PID.TID 0000.0001)  cg2d: iter=    97 ; resid.=  1.63497472330484E-09
(PID.TID 0000.0001)  cg2d: iter=    98 ; resid.=  1.31485650515361E-09
(PID.TID 0000.0001)  cg2d: iter=    99 ; resid.=  1.11613171225011E-09
(PID.TID 0000.0001)  cg2d: iter=   100 ; resid.=  1.09049873779376E-09
(PID.TID 0000.0001)  cg2d: iter=   101 ; resid.=  8.22723451170556E-10
(PID.TID 0000.0001)  cg2d: iter=   102 ; resid.=  6.84208472173030E-10
(PID.TID 0000.0001)  cg2d: iter=   103 ; resid.=  5.45074886823642E-10
(PID.TID 0000.0001)  cg2d: iter=   104 ; resid.=  4.22674053916684E-10
(PID.TID 0000.0001)  cg2d: iter=   105 ; resid.=  3.40935787598561E-10
(PID.TID 0000.0001)  cg2d: iter=   106 ; resid.=  2.83185499901896E-10
(PID.TID 0000.0001)  cg2d: iter=   107 ; resid.=  2.08515419404624E-10
(PID.TID 0000.0001)  cg2d: iter=   108 ; resid.=  1.64202026510837E-10
(PID.TID 0000.0001)  cg2d: iter=   109 ; resid.=  1.22036413680339E-10
(PID.TID 0000.0001)  cg2d: iter=   110 ; resid.=  8.52377925520485E-11
(PID.TID 0000.0001)  cg2d: iter=   111 ; resid.=  6.81196294409960E-11
(PID.TID 0000.0001)  cg2d: iter=   112 ; resid.=  5.25663394474259E-11
(PID.TID 0000.0001)  cg2d: iter=   113 ; resid.=  4.00833576063218E-11
(PID.TID 0000.0001)  cg2d: iter=   114 ; resid.=  3.09722553008511E-11
(PID.TID 0000.0001)  cg2d: iter=   115 ; resid.=  2.53085131717700E-11
(PID.TID 0000.0001)  cg2d: iter=   116 ; resid.=  1.85695662519571E-11
(PID.TID 0000.0001)  cg2d: iter=   117 ; resid.=  1.43017983977288E-11
(PID.TID 0000.0001)  cg2d: iter=   118 ; resid.=  1.06373666569867E-11
(PID.TID 0000.0001)  cg2d: iter=   119 ; resid.=  7.49164105563776E-12
(PID.TID 0000.0001)  cg2d: iter=   120 ; resid.=  5.31461982018453E-12
(PID.TID 0000.0001)  cg2d: iter=   121 ; resid.=  4.31602722332698E-12
(PID.TID 0000.0001)  cg2d: iter=   122 ; resid.=  3.51707168445392E-12
(PID.TID 0000.0001)  cg2d: iter=   123 ; resid.=  2.50886363356279E-12
(PID.TID 0000.0001)  cg2d: iter=   124 ; resid.=  1.90179405513016E-12
(PID.TID 0000.0001)  cg2d: iter=   125 ; resid.=  1.34780360703180E-12
(PID.TID 0000.0001)  cg2d: iter=   126 ; resid.=  8.82007377678226E-13
(PID.TID 0000.0001)  cg2d: iter=   127 ; resid.=  5.72602646603644E-13
(PID.TID 0000.0001)  cg2d: iter=   128 ; resid.=  4.11805739443429E-13
(PID.TID 0000.0001)  cg2d: iter=   129 ; resid.=  3.01038783888261E-13
(PID.TID 0000.0001)  cg2d: iter=   130 ; resid.=  2.20464808707198E-13
(PID.TID 0000.0001)  cg2d: iter=   131 ; resid.=  1.55556558224977E-13
(PID.TID 0000.0001)  cg2d: iter=   132 ; resid.=  1.03696072648573E-13
(PID.TID 0000.0001)  cg2d: iter=   133 ; resid.=  7.18867567936955E-14
DEBUG_STATS_RL:    cg2d_x (SOLVE_FOR_PRESSURE)  min= -2.06082159991196E+01
DEBUG_STATS_RL:    cg2d_x (SOLVE_FOR_PRESSURE)  max=  1.07258711718920E+01
DEBUG_STATS_RL:    cg2d_x (SOLVE_FOR_PRESSURE) mean= -1.98960964430546E+00
DEBUG_STATS_RL:    cg2d_x (SOLVE_FOR_PRESSURE) S.D.=  8.24312986355167E+00
(PID.TID 0000.0001)      cg2d_init_res =   3.13407104983105E-01
(PID.TID 0000.0001)      cg2d_iters(min,last) =      -1     133
(PID.TID 0000.0001)      cg2d_last_res =   7.18867567936955E-14
(PID.TID 0000.0001) // =======================================================
(PID.TID 0000.0001) // Begin MONITOR dynamic field statistics
(PID.TID 0000.0001) // =======================================================
(PID.TID 0000.0001) %MON time_tsnumber                =                    73
(PID.TID 0000.0001) %MON time_secondsf                =   6.3072000000000E+06
(PID.TID 0000.0001) %MON dynstat_eta_max              =   1.0933609757280E+00
(PID.TID 0000.0001) %MON dynstat_eta_min              =  -2.1007355758533E+00
(PID.TID 0000.0001) %MON dynstat_eta_mean             =  -5.1860115957339E-03
(PID.TID 0000.0001) %MON dynstat_eta_sd               =   7.5035658025018E-01
(PID.TID 0000.0001) %MON dynstat_eta_del2             =   2.4468805696797E-03
(PID.TID 0000.0001) %MON dynstat_uvel_max             =   1.4602651826621E-01
(PID.TID 0000.0001) %MON dynstat_uvel_min             =  -1.2784356519371E-01
(PID.TID 0000.0001) %MON dynstat_uvel_mean            =   2.4985592503225E-03
(PID.TID 0000.0001) %MON dynstat_uvel_sd              =   1.7016783641997E-02
(PID.TID 0000.0001) %MON dynstat_uvel_del2            =   1.1106688345181E-04
(PID.TID 0000.0001) %MON dynstat_vvel_max             =   1.5716577340778E-01
(PID.TID 0000.0001) %MON dynstat_vvel_min             =  -8.8398106492315E-02
(PID.TID 0000.0001) %MON dynstat_vvel_mean            =  -1.4428769707305E-04
(PID.TID 0000.0001) %MON dynstat_vvel_sd              =   9.1918644550701E-03
(PID.TID 0000.0001) %MON dynstat_vvel_del2            =   8.0961667283416E-05
(PID.TID 0000.0001) %MON dynstat_wvel_max             =   1.0073303646673E-04
(PID.TID 0000.0001) %MON dynstat_wvel_min             =  -9.1142514009140E-05
(PID.TID 0000.0001) %MON dynstat_wvel_mean            =   2.4481724639463E-22
(PID.TID 0000.0001) %MON dynstat_wvel_sd              =   1.2682245469633E-05
(PID.TID 0000.0001) %MON dynstat_wvel_del2            =   1.2270442736198E-07
(PID.TID 0000.0001) %MON dynstat_theta_max            =   3.0863088784881E+01
(PID.TID 0000.0001) %MON dynstat_theta_min            =  -1.9519905229294E+00
(PID.TID 0000.0001) %MON dynstat_theta_mean           =   3.6436891745913E+00
(PID.TID 0000.0001) %MON dynstat_theta_sd             =   4.4260310704218E+00
(PID.TID 0000.0001) %MON dynstat_theta_del2           =   4.8847891092818E-03
(PID.TID 0000.0001) %MON dynstat_salt_max             =   3.7486582661053E+01
(PID.TID 0000.0001) %MON dynstat_salt_min             =   2.9916448333146E+01
(PID.TID 0000.0001) %MON dynstat_salt_mean            =   3.4738016346303E+01
(PID.TID 0000.0001) %MON dynstat_salt_sd              =   2.9655948278590E-01
(PID.TID 0000.0001) %MON dynstat_salt_del2            =   9.9203916234417E-04
(PID.TID 0000.0001) %MON dynstat_sst_max              =   3.0863088784881E+01
(PID.TID 0000.0001) %MON dynstat_sst_min              =  -1.9519905229294E+00
(PID.TID 0000.0001) %MON dynstat_sst_mean             =   1.9067999762077E+01
(PID.TID 0000.0001) %MON dynstat_sst_sd               =   9.1285133262646E+00
(PID.TID 0000.0001) %MON dynstat_sst_del2             =   2.8579392731456E-02
(PID.TID 0000.0001) %MON dynstat_sss_max              =   3.7474655382544E+01
(PID.TID 0000.0001) %MON dynstat_sss_min              =   2.9916448333146E+01
(PID.TID 0000.0001) %MON dynstat_sss_mean             =   3.4858452990055E+01
(PID.TID 0000.0001) %MON dynstat_sss_sd               =   9.8482568976337E-01
(PID.TID 0000.0001) %MON dynstat_sss_del2             =   8.1295311458275E-03
(PID.TID 0000.0001) %MON forcing_qnet_max             =   2.8290214538574E+02
(PID.TID 0000.0001) %MON forcing_qnet_min             =  -1.6475342864990E+02
(PID.TID 0000.0001) %MON forcing_qnet_mean            =  -7.9350844890245E+00
(PID.TID 0000.0001) %MON forcing_qnet_sd              =   4.8359280419463E+01
(PID.TID 0000.0001) %MON forcing_qnet_del2            =   8.5469072359426E-01
(PID.TID 0000.0001) %MON forcing_qsw_max              =   0.0000000000000E+00
(PID.TID 0000.0001) %MON forcing_qsw_min              =   0.0000000000000E+00
(PID.TID 0000.0001) %MON forcing_qsw_mean             =   0.0000000000000E+00
(PID.TID 0000.0001) %MON forcing_qsw_sd               =   0.0000000000000E+00
(PID.TID 0000.0001) %MON forcing_qsw_del2             =   0.0000000000000E+00
(PID.TID 0000.0001) %MON forcing_empmr_max            =   6.9126090807003E-05
(PID.TID 0000.0001) %MON forcing_empmr_min            =  -8.2066878803744E-05
(PID.TID 0000.0001) %MON forcing_empmr_mean           =   5.8998084630176E-07
(PID.TID 0000.0001) %MON forcing_empmr_sd             =   2.6360875711591E-05
(PID.TID 0000.0001) %MON forcing_empmr_del2           =   3.6293820427634E-07
(PID.TID 0000.0001) %MON forcing_fu_max               =   3.5172714889050E-01
(PID.TID 0000.0001) %MON forcing_fu_min               =  -3.6944006383419E-01
(PID.TID 0000.0001) %MON forcing_fu_mean              =   2.0174130532013E-02
(PID.TID 0000.0001) %MON forcing_fu_sd                =   1.0044956754346E-01
(PID.TID 0000.0001) %MON forcing_fu_del2              =   8.1088351437561E-04
(PID.TID 0000.0001) %MON forcing_fv_max               =   1.7182487472892E-01
(PID.TID 0000.0001) %MON forcing_fv_min               =  -1.8883825689554E-01
(PID.TID 0000.0001) %MON forcing_fv_mean              =  -7.4982903901361E-03
(PID.TID 0000.0001) %MON forcing_fv_sd                =   4.2208471990419E-02
(PID.TID 0000.0001) %MON forcing_fv_del2              =   4.9097367067402E-04
(PID.TID 0000.0001) %MON trAdv_CFL_u_max              =   4.8974176931051E-02
(PID.TID 0000.0001) %MON trAdv_CFL_v_max              =   3.0503334971165E-02
(PID.TID 0000.0001) %MON trAdv_CFL_w_max              =   3.6311380174034E-02
(PID.TID 0000.0001) %MON advcfl_uvel_max              =   4.8266965536628E-02
(PID.TID 0000.0001) %MON advcfl_vvel_max              =   3.0534789137172E-02
(PID.TID 0000.0001) %MON advcfl_wvel_max              =   3.3098773763184E-02
(PID.TID 0000.0001) %MON advcfl_W_hf_max              =   3.9076128414064E-02
(PID.TID 0000.0001) %MON pe_b_mean                    =   7.2050555856617E-04
(PID.TID 0000.0001) %MON ke_max                       =   1.6114563120351E-02
(PID.TID 0000.0001) %MON ke_mean                      =   1.7233342959538E-04
(PID.TID 0000.0001) %MON ke_vol                       =   1.3226782436723E+18
(PID.TID 0000.0001) %MON vort_r_min                   =  -3.3578676340795E-07
(PID.TID 0000.0001) %MON vort_r_max                   =   4.8226727679087E-07
(PID.TID 0000.0001) %MON vort_a_mean                  =  -2.5274806473263E-05
(PID.TID 0000.0001) %MON vort_a_sd                    =   7.3604696870024E-05
(PID.TID 0000.0001) %MON vort_p_mean                  =  -3.1845654635017E-05
(PID.TID 0000.0001) %MON vort_p_sd                    =   1.3162516846047E-04
(PID.TID 0000.0001) %MON surfExpan_theta_mean         =   7.0548618486917E-07
(PID.TID 0000.0001) %MON surfExpan_salt_mean          =  -1.6295675178885E-07
(PID.TID 0000.0001) // =======================================================
(PID.TID 0000.0001) // End MONITOR dynamic field statistics
(PID.TID 0000.0001) // =======================================================
 EXTERNAL_FIELDS_LOAD,        73 : iP,iLd,i0,i1=    2    3    2    3 ; Wght=  0.0666666667  0.9333333333
 EXTERNAL_FIELDS_LOAD: (fu0,1),fu,fv= -1.4435E-02 -2.7199E-02 -2.6348E-02 -1.7152E-03
 EXTERNAL_FIELDS_LOAD: SST,SSS,Q,E-P= -2.0710E-01  3.4569E+01  2.1707E+02  9.0339E-06
DEBUG_STATS_RL:          Uvel (THERMODYNAMICS)  min= -1.27843565193707E-01
DEBUG_STATS_RL:          Uvel (THERMODYNAMICS)  max=  1.46026518266212E-01
DEBUG_STATS_RL:          Uvel (THERMODYNAMICS) mean=  6.28892463689593E-03
DEBUG_STATS_RL:          Uvel (THERMODYNAMICS) S.D.=  2.43878734448220E-02
DEBUG_STATS_RL:          Vvel (THERMODYNAMICS)  min= -8.83981064923146E-02
DEBUG_STATS_RL:          Vvel (THERMODYNAMICS)  max=  1.57165773407782E-01
DEBUG_STATS_RL:          Vvel (THERMODYNAMICS) mean=  5.31226147966981E-04
DEBUG_STATS_RL:          Vvel (THERMODYNAMICS) S.D.=  1.42251115815514E-02
DEBUG_STATS_RL:          Wvel (THERMODYNAMICS)  min= -9.11425140091396E-05
DEBUG_STATS_RL:          Wvel (THERMODYNAMICS)  max=  1.00733036466728E-04
DEBUG_STATS_RL:          Wvel (THERMODYNAMICS) mean= -7.62989411954181E-08
DEBUG_STATS_RL:          Wvel (THERMODYNAMICS) S.D.=  1.09970428897895E-05
DEBUG_STATS_RL:         Theta (THERMODYNAMICS)  min= -1.95169874669392E+00
DEBUG_STATS_RL:         Theta (THERMODYNAMICS)  max=  3.08842162913322E+01
DEBUG_STATS_RL:         Theta (THERMODYNAMICS) mean=  3.24113259088030E+00
DEBUG_STATS_RL:         Theta (THERMODYNAMICS) S.D.=  5.88372268214684E+00
DEBUG_STATS_RL:          Salt (THERMODYNAMICS)  min=  2.00000000000000E-02
DEBUG_STATS_RL:          Salt (THERMODYNAMICS)  max=  3.74863234998523E+01
DEBUG_STATS_RL:          Salt (THERMODYNAMICS) mean=  1.88647639378997E+01
DEBUG_STATS_RL:          Salt (THERMODYNAMICS) S.D.=  1.73003086234124E+01
DEBUG_STATS_RL:         GtNm1 (THERMODYNAMICS)  min= -1.94944507729802E-06
DEBUG_STATS_RL:         GtNm1 (THERMODYNAMICS)  max=  1.62788947837977E-06
DEBUG_STATS_RL:         GtNm1 (THERMODYNAMICS) mean=  1.85393652490606E-09
DEBUG_STATS_RL:         GtNm1 (THERMODYNAMICS) S.D.=  1.54932735666430E-07
DEBUG_STATS_RL:         GsNm1 (THERMODYNAMICS)  min= -3.25077749055335E-07
DEBUG_STATS_RL:         GsNm1 (THERMODYNAMICS)  max=  2.48330891119357E-07
DEBUG_STATS_RL:         GsNm1 (THERMODYNAMICS) mean=  4.67215015597050E-11
DEBUG_STATS_RL:         GsNm1 (THERMODYNAMICS) S.D.=  1.40553688877861E-08
DEBUG_STATS_RL:                EtaN (DYNAMICS)  min= -2.10073557585332E+00
DEBUG_STATS_RL:                EtaN (DYNAMICS)  max=  1.09336097572803E+00
DEBUG_STATS_RL:                EtaN (DYNAMICS) mean= -2.02814438767122E-01
DEBUG_STATS_RL:                EtaN (DYNAMICS) S.D.=  8.40278273552666E-01
DEBUG_STATS_RL:                Uvel (DYNAMICS)  min= -1.27843565193707E-01
DEBUG_STATS_RL:                Uvel (DYNAMICS)  max=  1.46026518266212E-01
DEBUG_STATS_RL:                Uvel (DYNAMICS) mean=  6.28892463689593E-03
DEBUG_STATS_RL:                Uvel (DYNAMICS) S.D.=  2.43878734448220E-02
DEBUG_STATS_RL:                Vvel (DYNAMICS)  min= -8.83981064923146E-02
DEBUG_STATS_RL:                Vvel (DYNAMICS)  max=  1.57165773407782E-01
DEBUG_STATS_RL:                Vvel (DYNAMICS) mean=  5.31226147966981E-04
DEBUG_STATS_RL:                Vvel (DYNAMICS) S.D.=  1.42251115815514E-02
DEBUG_STATS_RL:                Wvel (DYNAMICS)  min= -9.11425140091396E-05
DEBUG_STATS_RL:                Wvel (DYNAMICS)  max=  1.00733036466728E-04
DEBUG_STATS_RL:                Wvel (DYNAMICS) mean= -7.62989411954181E-08
DEBUG_STATS_RL:                Wvel (DYNAMICS) S.D.=  1.09970428897895E-05
DEBUG_STATS_RL:               Theta (DYNAMICS)  min= -1.95169874669392E+00
DEBUG_STATS_RL:               Theta (DYNAMICS)  max=  3.08842162913322E+01
DEBUG_STATS_RL:               Theta (DYNAMICS) mean=  3.24113259088030E+00
DEBUG_STATS_RL:               Theta (DYNAMICS) S.D.=  5.88372268214684E+00
DEBUG_STATS_RL:                Salt (DYNAMICS)  min=  2.00000000000000E-02
DEBUG_STATS_RL:                Salt (DYNAMICS)  max=  3.74863234998523E+01
DEBUG_STATS_RL:                Salt (DYNAMICS) mean=  1.88647639378997E+01
DEBUG_STATS_RL:                Salt (DYNAMICS) S.D.=  1.73003086234124E+01
DEBUG_STATS_RL:                  Gu (DYNAMICS)  min= -1.25732157686907E-01
DEBUG_STATS_RL:                  Gu (DYNAMICS)  max=  1.49420354725289E-01
DEBUG_STATS_RL:                  Gu (DYNAMICS) mean=  6.26034069866598E-03
DEBUG_STATS_RL:                  Gu (DYNAMICS) S.D.=  2.47709375135742E-02
DEBUG_STATS_RL:                  Gv (DYNAMICS)  min= -8.73220383808828E-02
DEBUG_STATS_RL:                  Gv (DYNAMICS)  max=  1.57524899730844E-01
DEBUG_STATS_RL:                  Gv (DYNAMICS) mean=  3.41820730745085E-03
DEBUG_STATS_RL:                  Gv (DYNAMICS) S.D.=  1.55077867232918E-02
DEBUG_STATS_RL:               GuNm1 (DYNAMICS)  min= -1.07569750747295E-05
DEBUG_STATS_RL:               GuNm1 (DYNAMICS)  max=  9.38266674315675E-06
DEBUG_STATS_RL:               GuNm1 (DYNAMICS) mean=  8.13060895792297E-09
DEBUG_STATS_RL:               GuNm1 (DYNAMICS) S.D.=  1.22005872865241E-06
DEBUG_STATS_RL:               GvNm1 (DYNAMICS)  min= -1.01521852982376E-05
DEBUG_STATS_RL:               GvNm1 (DYNAMICS)  max=  1.55751609484481E-05
DEBUG_STATS_RL:               GvNm1 (DYNAMICS) mean=  7.39982388156159E-07
DEBUG_STATS_RL:               GvNm1 (DYNAMICS) S.D.=  2.63496938546983E-06
DEBUG_STATS_RL:               GtNm1 (DYNAMICS)  min= -1.94944507729802E-06
DEBUG_STATS_RL:               GtNm1 (DYNAMICS)  max=  1.62788947837977E-06
DEBUG_STATS_RL:               GtNm1 (DYNAMICS) mean=  1.85393652490606E-09
DEBUG_STATS_RL:               GtNm1 (DYNAMICS) S.D.=  1.54932735666430E-07
DEBUG_STATS_RL:               GsNm1 (DYNAMICS)  min= -3.25077749055335E-07
DEBUG_STATS_RL:               GsNm1 (DYNAMICS)  max=  2.48330891119357E-07
DEBUG_STATS_RL:               GsNm1 (DYNAMICS) mean=  4.67215015597050E-11
DEBUG_STATS_RL:               GsNm1 (DYNAMICS) S.D.=  1.40553688877861E-08
DEBUG_STATS_RL:    cg2d_b (SOLVE_FOR_PRESSURE)  min= -1.90683129659291E+04
DEBUG_STATS_RL:    cg2d_b (SOLVE_FOR_PRESSURE)  max=  2.55334108298915E+04
DEBUG_STATS_RL:    cg2d_b (SOLVE_FOR_PRESSURE) mean=  5.01657065672290E+00
DEBUG_STATS_RL:    cg2d_b (SOLVE_FOR_PRESSURE) S.D.=  4.01003709877488E+03
 cg2d: Sum(rhs),rhsMax =   4.54829993050434E-01  1.67710278711794E+00
(PID.TID 0000.0001)  cg2d: iter=     1 ; resid.=  1.69888288996862E-01
(PID.TID 0000.0001)  cg2d: iter=     2 ; resid.=  1.46432794395853E-01
(PID.TID 0000.0001)  cg2d: iter=     3 ; resid.=  1.38924317339505E-01
(PID.TID 0000.0001)  cg2d: iter=     4 ; resid.=  1.28793404546659E-01
(PID.TID 0000.0001)  cg2d: iter=     5 ; resid.=  1.15869443072368E-01
(PID.TID 0000.0001)  cg2d: iter=     6 ; resid.=  1.03763495608904E-01
(PID.TID 0000.0001)  cg2d: iter=     7 ; resid.=  8.46612296896967E-02
(PID.TID 0000.0001)  cg2d: iter=     8 ; resid.=  6.39448022062047E-02
(PID.TID 0000.0001)  cg2d: iter=     9 ; resid.=  5.11260184729378E-02
(PID.TID 0000.0001)  cg2d: iter=    10 ; resid.=  4.05444250179783E-02
(PID.TID 0000.0001)  cg2d: iter=    11 ; resid.=  3.57098111362047E-02
(PID.TID 0000.0001)  cg2d: iter=    12 ; resid.=  2.89610040937115E-02
(PID.TID 0000.0001)  cg2d: iter=    13 ; resid.=  2.27640892871034E-02
(PID.TID 0000.0001)  cg2d: iter=    14 ; resid.=  1.88681084232296E-02
(PID.TID 0000.0001)  cg2d: iter=    15 ; resid.=  1.54843628594817E-02
(PID.TID 0000.0001)  cg2d: iter=    16 ; resid.=  1.38628072770982E-02
(PID.TID 0000.0001)  cg2d: iter=    17 ; resid.=  1.28670295912303E-02
(PID.TID 0000.0001)  cg2d: iter=    18 ; resid.=  1.14072912599171E-02
(PID.TID 0000.0001)  cg2d: iter=    19 ; resid.=  8.78430637194726E-03
(PID.TID 0000.0001)  cg2d: iter=    20 ; resid.=  6.70221656304453E-03
(PID.TID 0000.0001)  cg2d: iter=    21 ; resid.=  5.79037177198954E-03
(PID.TID 0000.0001)  cg2d: iter=    22 ; resid.=  5.10282823732672E-03
(PID.TID 0000.0001)  cg2d: iter=    23 ; resid.=  4.23059487248268E-03
(PID.TID 0000.0001)  cg2d: iter=    24 ; resid.=  3.50093004301368E-03
(PID.TID 0000.0001)  cg2d: iter=    25 ; resid.=  2.82586352960547E-03
(PID.TID 0000.0001)  cg2d: iter=    26 ; resid.=  2.29893017271170E-03
(PID.TID 0000.0001)  cg2d: iter=    27 ; resid.=  1.80096775938227E-03
(PID.TID 0000.0001)  cg2d: iter=    28 ; resid.=  1.50916858170103E-03
(PID.TID 0000.0001)  cg2d: iter=    29 ; resid.=  1.26266402961730E-03
(PID.TID 0000.0001)  cg2d: iter=    30 ; resid.=  1.07024146272505E-03
(PID.TID 0000.0001)  cg2d: iter=    31 ; resid.=  8.70353359288117E-04
(PID.TID 0000.0001)  cg2d: iter=    32 ; resid.=  6.44775436727561E-04
(PID.TID 0000.0001)  cg2d: iter=    33 ; resid.=  5.49508505364755E-04
(PID.TID 0000.0001)  cg2d: iter=    34 ; resid.=  4.71934368340704E-04
(PID.TID 0000.0001)  cg2d: iter=    35 ; resid.=  4.13380914290883E-04
(PID.TID 0000.0001)  cg2d: iter=    36 ; resid.=  3.60972162348025E-04
(PID.TID 0000.0001)  cg2d: iter=    37 ; resid.=  3.08805465627188E-04
(PID.TID 0000.0001)  cg2d: iter=    38 ; resid.=  2.72632846585685E-04
(PID.TID 0000.0001)  cg2d: iter=    39 ; resid.=  2.31356303469058E-04
(PID.TID 0000.0001)  cg2d: iter=    40 ; resid.=  2.04957984362701E-04
(PID.TID 0000.0001)  cg2d: iter=    41 ; resid.=  1.71817946259005E-04
(PID.TID 0000.0001)  cg2d: iter=    42 ; resid.=  1.49150810513804E-04
(PID.TID 0000.0001)  cg2d: iter=    43 ; resid.=  1.18142950054496E-04
(PID.TID 0000.0001)  cg2d: iter=    44 ; resid.=  9.19961029257204E-05
(PID.TID 0000.0001)  cg2d: iter=    45 ; resid.=  7.49832233062722E-05
(PID.TID 0000.0001)  cg2d: iter=    46 ; resid.=  5.89769717128249E-05
(PID.TID 0000.0001)  cg2d: iter=    47 ; resid.=  5.16815262400719E-05
(PID.TID 0000.0001)  cg2d: iter=    48 ; resid.=  4.40182603214676E-05
(PID.TID 0000.0001)  cg2d: iter=    49 ; resid.=  3.73126237483623E-05
(PID.TID 0000.0001)  cg2d: iter=    50 ; resid.=  3.17763659550120E-05
(PID.TID 0000.0001)  cg2d: iter=    51 ; resid.=  2.74815230552912E-05
(PID.TID 0000.0001)  cg2d: iter=    52 ; resid.=  2.34518213668920E-05
(PID.TID 0000.0001)  cg2d: iter=    53 ; resid.=  1.93017098731100E-05
(PID.TID 0000.0001)  cg2d: iter=    54 ; resid.=  1.52619973905632E-05
(PID.TID 0000.0001)  cg2d: iter=    55 ; resid.=  1.27176124569439E-05
(PID.TID 0000.0001)  cg2d: iter=    56 ; resid.=  1.09770601657914E-05
(PID.TID 0000.0001)  cg2d: iter=    57 ; resid.=  9.54660207985812E-06
(PID.TID 0000.0001)  cg2d: iter=    58 ; resid.=  7.22331522453370E-06
(PID.TID 0000.0001)  cg2d: iter=    59 ; resid.=  5.70820622112853E-06
(PID.TID 0000.0001)  cg2d: iter=    60 ; resid.=  4.64756383504348E-06
(PID.TID 0000.0001)  cg2d: iter=    61 ; resid.=  3.92045096517908E-06
(PID.TID 0000.0001)  cg2d: iter=    62 ; resid.=  3.33964475754867E-06
(PID.TID 0000.0001)  cg2d: iter=    63 ; resid.=  3.08886701803017E-06
(PID.TID 0000.0001)  cg2d: iter=    64 ; resid.=  2.40302455493120E-06
(PID.TID 0000.0001)  cg2d: iter=    65 ; resid.=  1.83918573226749E-06
(PID.TID 0000.0001)  cg2d: iter=    66 ; resid.=  1.46784764058040E-06
(PID.TID 0000.0001)  cg2d: iter=    67 ; resid.=  1.20215233624426E-06
(PID.TID 0000.0001)  cg2d: iter=    68 ; resid.=  9.81805359199566E-07
(PID.TID 0000.0001)  cg2d: iter=    69 ; resid.=  8.50084947968027E-07
(PID.TID 0000.0001)  cg2d: iter=    70 ; resid.=  6.97484983677992E-07
(PID.TID 0000.0001)  cg2d: iter=    71 ; resid.=  5.88124472308919E-07
(PID.TID 0000.0001)  cg2d: iter=    72 ; resid.=  5.22794026331764E-07
(PID.TID 0000.0001)  cg2d: iter=    73 ; resid.=  4.71172770761577E-07
(PID.TID 0000.0001)  cg2d: iter=    74 ; resid.=  3.92403285303481E-07
(PID.TID 0000.0001)  cg2d: iter=    75 ; resid.=  3.05628274268768E-07
(PID.TID 0000.0001)  cg2d: iter=    76 ; resid.=  2.54045524414501E-07
(PID.TID 0000.0001)  cg2d: iter=    77 ; resid.=  1.99410148727196E-07
(PID.TID 0000.0001)  cg2d: iter=    78 ; resid.=  1.60338085557584E-07
(PID.TID 0000.0001)  cg2d: iter=    79 ; resid.=  1.37476999057963E-07
(PID.TID 0000.0001)  cg2d: iter=    80 ; resid.=  1.03675779748690E-07
(PID.TID 0000.0001)  cg2d: iter=    81 ; resid.=  7.80237861204670E-08
(PID.TID 0000.0001)  cg2d: iter=    82 ; resid.=  5.61045876645176E-08
(PID.TID 0000.0001)  cg2d: iter=    83 ; resid.=  4.22459050305890E-08
(PID.TID 0000.0001)  cg2d: iter=    84 ; resid.=  3.03817510755884E-08
(PID.TID 0000.0001)  cg2d: iter=    85 ; resid.=  2.20770340836679E-08
(PID.TID 0000.0001)  cg2d: iter=    86 ; resid.=  1.80393872033107E-08
(PID.TID 0000.0001)  cg2d: iter=    87 ; resid.=  1.46954042034576E-08
(PID.TID 0000.0001)  cg2d: iter=    88 ; resid.=  1.16663530944316E-08
(PID.TID 0000.0001)  cg2d: iter=    89 ; resid.=  1.03250983625868E-08
(PID.TID 0000.0001)  cg2d: iter=    90 ; resid.=  8.68138288228509E-09
(PID.TID 0000.0001)  cg2d: iter=    91 ; resid.=  6.12015053180554E-09
(PID.TID 0000.0001)  cg2d: iter=    92 ; resid.=  4.63762434845791E-09
(PID.TID 0000.0001)  cg2d: iter=    93 ; resid.=  3.71174735900059E-09
(PID.TID 0000.0001)  cg2d: iter=    94 ; resid.=  2.98004330392221E-09
(PID.TID 0000.0001)  cg2d: iter=    95 ; resid.=  2.43173794861830E-09
(PID.TID 0000.0001)  cg2d: iter=    96 ; resid.=  1.88360678823524E-09
(PID.TID 0000.0001)  cg2d: iter=    97 ; resid.=  1.48388635564959E-09
(PID.TID 0000.0001)  cg2d: iter=    98 ; resid.=  1.17405430303791E-09
(PID.TID 0000.0001)  cg2d: iter=    99 ; resid.=  9.98198031005692E-10
(PID.TID 0000.0001)  cg2d: iter=   100 ; resid.=  9.70089750771149E-10
(PID.TID 0000.0001)  cg2d: iter=   101 ; resid.=  7.46501581860699E-10
(PID.TID 0000.0001)  cg2d: iter=   102 ; resid.=  6.25777099407994E-10
(PID.TID 0000.0001)  cg2d: iter=   103 ; resid.=  5.05350946646853E-10
(PID.TID 0000.0001)  cg2d: iter=   104 ; resid.=  3.94926101815836E-10
(PID.TID 0000.0001)  cg2d: iter=   105 ; resid.=  3.20586764135527E-10
(PID.TID 0000.0001)  cg2d: iter=   106 ; resid.=  2.67848145322601E-10
(PID.TID 0000.0001)  cg2d: iter=   107 ; resid.=  2.01344210781733E-10
(PID.TID 0000.0001)  cg2d: iter=   108 ; resid.=  1.64306745128834E-10
(PID.TID 0000.0001)  cg2d: iter=   109 ; resid.=  1.23009585351806E-10
(PID.TID 0000.0001)  cg2d: iter=   110 ; resid.=  8.69507075380300E-11
(PID.TID 0000.0001)  cg2d: iter=   111 ; resid.=  6.96517026201824E-11
(PID.TID 0000.0001)  cg2d: iter=   112 ; resid.=  5.31934614854316E-11
(PID.TID 0000.0001)  cg2d: iter=   113 ; resid.=  4.11338836598064E-11
(PID.TID 0000.0001)  cg2d: iter=   114 ; resid.=  3.17838849324556E-11
(PID.TID 0000.0001)  cg2d: iter=   115 ; resid.=  2.57997688134925E-11
(PID.TID 0000.0001)  cg2d: iter=   116 ; resid.=  1.85753229324214E-11
(PID.TID 0000.0001)  cg2d: iter=   117 ; resid.=  1.41063377693180E-11
(PID.TID 0000.0001)  cg2d: iter=   118 ; resid.=  1.05579005220863E-11
(PID.TID 0000.0001)  cg2d: iter=   119 ; resid.=  7.53955143559262E-12
(PID.TID 0000.0001)  cg2d: iter=   120 ; resid.=  5.46234789956237E-12
(PID.TID 0000.0001)  cg2d: iter=   121 ; resid.=  4.51180959281643E-12
(PID.TID 0000.0001)  cg2d: iter=   122 ; resid.=  3.69598153617799E-12
(PID.TID 0000.0001)  cg2d: iter=   123 ; resid.=  2.58077700198620E-12
(PID.TID 0000.0001)  cg2d: iter=   124 ; resid.=  1.91065284570584E-12
(PID.TID 0000.0001)  cg2d: iter=   125 ; resid.=  1.33803779038763E-12
(PID.TID 0000.0001)  cg2d: iter=   126 ; resid.=  8.94924436965812E-13
(PID.TID 0000.0001)  cg2d: iter=   127 ; resid.=  6.03579597735283E-13
(PID.TID 0000.0001)  cg2d: iter=   128 ; resid.=  4.35941708239735E-13
(PID.TID 0000.0001)  cg2d: iter=   129 ; resid.=  3.21379846399036E-13
(PID.TID 0000.0001)  cg2d: iter=   130 ; resid.=  2.35786603161761E-13
(PID.TID 0000.0001)  cg2d: iter=   131 ; resid.=  1.61783595134730E-13
(PID.TID 0000.0001)  cg2d: iter=   132 ; resid.=  1.05816175337895E-13
(PID.TID 0000.0001)  cg2d: iter=   133 ; resid.=  7.34413951060644E-14
DEBUG_STATS_RL:    cg2d_x (SOLVE_FOR_PRESSURE)  min= -2.09473283233125E+01
DEBUG_STATS_RL:    cg2d_x (SOLVE_FOR_PRESSURE)  max=  1.10591924298632E+01
DEBUG_STATS_RL:    cg2d_x (SOLVE_FOR_PRESSURE) mean= -2.01713470550560E+00
DEBUG_STATS_RL:    cg2d_x (SOLVE_FOR_PRESSURE) S.D.=  8.39729237843656E+00
(PID.TID 0000.0001)      cg2d_init_res =   3.10208691282718E-01
(PID.TID 0000.0001)      cg2d_iters(min,last) =      -1     133
(PID.TID 0000.0001)      cg2d_last_res =   7.34413951060644E-14
(PID.TID 0000.0001) // =======================================================
(PID.TID 0000.0001) // Begin MONITOR dynamic field statistics
(PID.TID 0000.0001) // =======================================================
(PID.TID 0000.0001) %MON time_tsnumber                =                    74
(PID.TID 0000.0001) %MON time_secondsf                =   6.3936000000000E+06
(PID.TID 0000.0001) %MON dynstat_eta_max              =   1.1273386778658E+00
(PID.TID 0000.0001) %MON dynstat_eta_min              =  -2.1353036007453E+00
(PID.TID 0000.0001) %MON dynstat_eta_mean             =  -5.2341694460646E-03
(PID.TID 0000.0001) %MON dynstat_eta_sd               =   7.6759758716024E-01
(PID.TID 0000.0001) %MON dynstat_eta_del2             =   2.4575443408740E-03
(PID.TID 0000.0001) %MON dynstat_uvel_max             =   1.4537676431829E-01
(PID.TID 0000.0001) %MON dynstat_uvel_min             =  -1.2590521425570E-01
(PID.TID 0000.0001) %MON dynstat_uvel_mean            =   2.5023944667009E-03
(PID.TID 0000.0001) %MON dynstat_uvel_sd              =   1.6958731364206E-02
(PID.TID 0000.0001) %MON dynstat_uvel_del2            =   1.1143005293821E-04
(PID.TID 0000.0001) %MON dynstat_vvel_max             =   1.5628044609571E-01
(PID.TID 0000.0001) %MON dynstat_vvel_min             =  -8.6261514346419E-02
(PID.TID 0000.0001) %MON dynstat_vvel_mean            =  -1.4555182894099E-04
(PID.TID 0000.0001) %MON dynstat_vvel_sd              =   9.1690208676324E-03
(PID.TID 0000.0001) %MON dynstat_vvel_del2            =   8.0944385985771E-05
(PID.TID 0000.0001) %MON dynstat_wvel_max             =   1.2304926671215E-04
(PID.TID 0000.0001) %MON dynstat_wvel_min             =  -8.7662290177893E-05
(PID.TID 0000.0001) %MON dynstat_wvel_mean            =  -5.0231861114371E-24
(PID.TID 0000.0001) %MON dynstat_wvel_sd              =   1.2651527049995E-05
(PID.TID 0000.0001) %MON dynstat_wvel_del2            =   1.2270979402339E-07
(PID.TID 0000.0001) %MON dynstat_theta_max            =   3.0884216291332E+01
(PID.TID 0000.0001) %MON dynstat_theta_min            =  -1.9516987466939E+00
(PID.TID 0000.0001) %MON dynstat_theta_mean           =   3.6437174914661E+00
(PID.TID 0000.0001) %MON dynstat_theta_sd             =   4.4261993940738E+00
(PID.TID 0000.0001) %MON dynstat_theta_del2           =   4.8812353589187E-03
(PID.TID 0000.0001) %MON dynstat_salt_max             =   3.7486323499852E+01
(PID.TID 0000.0001) %MON dynstat_salt_min             =   2.9917072500933E+01
(PID.TID 0000.0001) %MON dynstat_salt_mean            =   3.4738020424430E+01
(PID.TID 0000.0001) %MON dynstat_salt_sd              =   2.9657440987003E-01
(PID.TID 0000.0001) %MON dynstat_salt_del2            =   9.9238566363688E-04
(PID.TID 0000.0001) %MON dynstat_sst_max              =   3.0884216291332E+01
(PID.TID 0000.0001) %MON dynstat_sst_min              =  -1.9516987466939E+00
(PID.TID 0000.0001) %MON dynstat_sst_mean             =   1.9070753817851E+01
(PID.TID 0000.0001) %MON dynstat_sst_sd               =   9.1352910499013E+00
(PID.TID 0000.0001) %MON dynstat_sst_del2             =   2.8629432047531E-02
(PID.TID 0000.0001) %MON dynstat_sss_max              =   3.7475333530906E+01
(PID.TID 0000.0001) %MON dynstat_sss_min              =   2.9917072500933E+01
(PID.TID 0000.0001) %MON dynstat_sss_mean             =   3.4858444654180E+01
(PID.TID 0000.0001) %MON dynstat_sss_sd               =   9.8514000264519E-01
(PID.TID 0000.0001) %MON dynstat_sss_del2             =   8.1401033091862E-03
(PID.TID 0000.0001) %MON forcing_qnet_max             =   2.8010399373372E+02
(PID.TID 0000.0001) %MON forcing_qnet_min             =  -1.6445414937337E+02
(PID.TID 0000.0001) %MON forcing_qnet_mean            =  -7.7117449893978E+00
(PID.TID 0000.0001) %MON forcing_qnet_sd              =   4.7682028835488E+01
(PID.TID 0000.0001) %MON forcing_qnet_del2            =   8.5372818761303E-01
(PID.TID 0000.0001) %MON forcing_qsw_max              =   0.0000000000000E+00
(PID.TID 0000.0001) %MON forcing_qsw_min              =   0.0000000000000E+00
(PID.TID 0000.0001) %MON forcing_qsw_mean             =   0.0000000000000E+00
(PID.TID 0000.0001) %MON forcing_qsw_sd               =   0.0000000000000E+00
(PID.TID 0000.0001) %MON forcing_qsw_del2             =   0.0000000000000E+00
(PID.TID 0000.0001) %MON forcing_empmr_max            =   6.9120334463454E-05
(PID.TID 0000.0001) %MON forcing_empmr_min            =  -8.2466058396828E-05
(PID.TID 0000.0001) %MON forcing_empmr_mean           =   5.7689091542740E-07
(PID.TID 0000.0001) %MON forcing_empmr_sd             =   2.6334295639993E-05
(PID.TID 0000.0001) %MON forcing_empmr_del2           =   3.6406482698784E-07
(PID.TID 0000.0001) %MON forcing_fu_max               =   3.5366856455803E-01
(PID.TID 0000.0001) %MON forcing_fu_min               =  -3.7581218282382E-01
(PID.TID 0000.0001) %MON forcing_fu_mean              =   2.0268330121471E-02
(PID.TID 0000.0001) %MON forcing_fu_sd                =   1.0099442893771E-01
(PID.TID 0000.0001) %MON forcing_fu_del2              =   8.2292198802484E-04
(PID.TID 0000.0001) %MON forcing_fv_max               =   1.7565003186464E-01
(PID.TID 0000.0001) %MON forcing_fv_min               =  -1.9033604760965E-01
(PID.TID 0000.0001) %MON forcing_fv_mean              =  -7.5087187401056E-03
(PID.TID 0000.0001) %MON forcing_fv_sd                =   4.2349967885931E-02
(PID.TID 0000.0001) %MON forcing_fv_del2              =   4.9608724441070E-04
(PID.TID 0000.0001) %MON trAdv_CFL_u_max              =   4.8276768902540E-02
(PID.TID 0000.0001) %MON trAdv_CFL_v_max              =   3.0410359276543E-02
(PID.TID 0000.0001) %MON trAdv_CFL_w_max              =   3.7810755564008E-02
(PID.TID 0000.0001) %MON advcfl_uvel_max              =   4.7303295580106E-02
(PID.TID 0000.0001) %MON advcfl_vvel_max              =   3.0362784239380E-02
(PID.TID 0000.0001) %MON advcfl_wvel_max              =   3.2546709098522E-02
(PID.TID 0000.0001) %MON advcfl_W_hf_max              =   3.9056050918226E-02
(PID.TID 0000.0001) %MON pe_b_mean                    =   7.5399522425017E-04
(PID.TID 0000.0001) %MON ke_max                       =   1.6165641745649E-02
(PID.TID 0000.0001) %MON ke_mean                      =   1.7125793670384E-04
(PID.TID 0000.0001) %MON ke_vol                       =   1.3226782436723E+18
(PID.TID 0000.0001) %MON vort_r_min                   =  -3.3924936115316E-07
(PID.TID 0000.0001) %MON vort_r_max                   =   4.7485037799016E-07
(PID.TID 0000.0001) %MON vort_a_mean                  =  -2.5274806460266E-05
(PID.TID 0000.0001) %MON vort_a_sd                    =   7.3604694532427E-05
(PID.TID 0000.0001) %MON vort_p_mean                  =  -3.1845654618642E-05
(PID.TID 0000.0001) %MON vort_p_sd                    =   1.3162527669141E-04
(PID.TID 0000.0001) %MON surfExpan_theta_mean         =   6.0940125575952E-07
(PID.TID 0000.0001) %MON surfExpan_salt_mean          =  -1.3622748885774E-07
(PID.TID 0000.0001) // =======================================================
(PID.TID 0000.0001) // End MONITOR dynamic field statistics
(PID.TID 0000.0001) // =======================================================
 EXTERNAL_FIELDS_LOAD,        74 : iP,iLd,i0,i1=    2    3    2    3 ; Wght=  0.0333333333  0.9666666667
 EXTERNAL_FIELDS_LOAD: (fu0,1),fu,fv= -1.4435E-02 -2.7199E-02 -2.6773E-02 -1.1467E-03
 EXTERNAL_FIELDS_LOAD: SST,SSS,Q,E-P= -1.9550E-01  3.4574E+01  2.1623E+02  9.0573E-06
DEBUG_STATS_RL:          Uvel (THERMODYNAMICS)  min= -1.25905214255696E-01
DEBUG_STATS_RL:          Uvel (THERMODYNAMICS)  max=  1.45376764318288E-01
DEBUG_STATS_RL:          Uvel (THERMODYNAMICS) mean=  6.32097075105147E-03
DEBUG_STATS_RL:          Uvel (THERMODYNAMICS) S.D.=  2.43259011459407E-02
DEBUG_STATS_RL:          Vvel (THERMODYNAMICS)  min= -8.62615143464191E-02
DEBUG_STATS_RL:          Vvel (THERMODYNAMICS)  max=  1.56280446095713E-01
DEBUG_STATS_RL:          Vvel (THERMODYNAMICS) mean=  6.04105473328830E-04
DEBUG_STATS_RL:          Vvel (THERMODYNAMICS) S.D.=  1.42444151422638E-02
DEBUG_STATS_RL:          Wvel (THERMODYNAMICS)  min= -8.76622901778934E-05
DEBUG_STATS_RL:          Wvel (THERMODYNAMICS)  max=  1.23049266712152E-04
DEBUG_STATS_RL:          Wvel (THERMODYNAMICS) mean= -5.89627112879843E-08
DEBUG_STATS_RL:          Wvel (THERMODYNAMICS) S.D.=  1.09910049856503E-05
DEBUG_STATS_RL:         Theta (THERMODYNAMICS)  min= -1.95128263247088E+00
DEBUG_STATS_RL:         Theta (THERMODYNAMICS)  max=  3.09057387921179E+01
DEBUG_STATS_RL:         Theta (THERMODYNAMICS) mean=  3.24116909770629E+00
DEBUG_STATS_RL:         Theta (THERMODYNAMICS) S.D.=  5.88418808647664E+00
DEBUG_STATS_RL:          Salt (THERMODYNAMICS)  min=  2.00000000000000E-02
DEBUG_STATS_RL:          Salt (THERMODYNAMICS)  max=  3.74860295705291E+01
DEBUG_STATS_RL:          Salt (THERMODYNAMICS) mean=  1.88647705459730E+01
DEBUG_STATS_RL:          Salt (THERMODYNAMICS) S.D.=  1.73003155536295E+01
DEBUG_STATS_RL:         GtNm1 (THERMODYNAMICS)  min= -2.14735307580054E-06
DEBUG_STATS_RL:         GtNm1 (THERMODYNAMICS)  max=  1.90831669108595E-06
DEBUG_STATS_RL:         GtNm1 (THERMODYNAMICS) mean=  1.57817053814522E-09
DEBUG_STATS_RL:         GtNm1 (THERMODYNAMICS) S.D.=  1.55398670333676E-07
DEBUG_STATS_RL:         GsNm1 (THERMODYNAMICS)  min= -3.16242401166864E-07
DEBUG_STATS_RL:         GsNm1 (THERMODYNAMICS)  max=  2.48199973435374E-07
DEBUG_STATS_RL:         GsNm1 (THERMODYNAMICS) mean=  6.29735997745161E-11
DEBUG_STATS_RL:         GsNm1 (THERMODYNAMICS) S.D.=  1.40098452566511E-08
DEBUG_STATS_RL:                EtaN (DYNAMICS)  min= -2.13530360074533E+00
DEBUG_STATS_RL:                EtaN (DYNAMICS)  max=  1.12733867786577E+00
DEBUG_STATS_RL:                EtaN (DYNAMICS) mean= -2.05620255403221E-01
DEBUG_STATS_RL:                EtaN (DYNAMICS) S.D.=  8.55993106874267E-01
DEBUG_STATS_RL:                Uvel (DYNAMICS)  min= -1.25905214255696E-01
DEBUG_STATS_RL:                Uvel (DYNAMICS)  max=  1.45376764318288E-01
DEBUG_STATS_RL:                Uvel (DYNAMICS) mean=  6.32097075105147E-03
DEBUG_STATS_RL:                Uvel (DYNAMICS) S.D.=  2.43259011459407E-02
DEBUG_STATS_RL:                Vvel (DYNAMICS)  min= -8.62615143464191E-02
DEBUG_STATS_RL:                Vvel (DYNAMICS)  max=  1.56280446095713E-01
DEBUG_STATS_RL:                Vvel (DYNAMICS) mean=  6.04105473328830E-04
DEBUG_STATS_RL:                Vvel (DYNAMICS) S.D.=  1.42444151422638E-02
DEBUG_STATS_RL:                Wvel (DYNAMICS)  min= -8.76622901778934E-05
DEBUG_STATS_RL:                Wvel (DYNAMICS)  max=  1.23049266712152E-04
DEBUG_STATS_RL:                Wvel (DYNAMICS) mean= -5.89627112879843E-08
DEBUG_STATS_RL:                Wvel (DYNAMICS) S.D.=  1.09910049856503E-05
DEBUG_STATS_RL:               Theta (DYNAMICS)  min= -1.95128263247088E+00
DEBUG_STATS_RL:               Theta (DYNAMICS)  max=  3.09057387921179E+01
DEBUG_STATS_RL:               Theta (DYNAMICS) mean=  3.24116909770629E+00
DEBUG_STATS_RL:               Theta (DYNAMICS) S.D.=  5.88418808647664E+00
DEBUG_STATS_RL:                Salt (DYNAMICS)  min=  2.00000000000000E-02
DEBUG_STATS_RL:                Salt (DYNAMICS)  max=  3.74860295705291E+01
DEBUG_STATS_RL:                Salt (DYNAMICS) mean=  1.88647705459730E+01
DEBUG_STATS_RL:                Salt (DYNAMICS) S.D.=  1.73003155536295E+01
DEBUG_STATS_RL:                  Gu (DYNAMICS)  min= -1.23719725274223E-01
DEBUG_STATS_RL:                  Gu (DYNAMICS)  max=  1.52238712261756E-01
DEBUG_STATS_RL:                  Gu (DYNAMICS) mean=  6.30472548125497E-03
DEBUG_STATS_RL:                  Gu (DYNAMICS) S.D.=  2.46979880045223E-02
DEBUG_STATS_RL:                  Gv (DYNAMICS)  min= -8.47643439092251E-02
DEBUG_STATS_RL:                  Gv (DYNAMICS)  max=  1.56571525736585E-01
DEBUG_STATS_RL:                  Gv (DYNAMICS) mean=  3.46819010726768E-03
DEBUG_STATS_RL:                  Gv (DYNAMICS) S.D.=  1.55768540936536E-02
DEBUG_STATS_RL:               GuNm1 (DYNAMICS)  min= -1.08127587402737E-05
DEBUG_STATS_RL:               GuNm1 (DYNAMICS)  max=  9.37812346668876E-06
DEBUG_STATS_RL:               GuNm1 (DYNAMICS) mean=  8.50210974561140E-09
DEBUG_STATS_RL:               GuNm1 (DYNAMICS) S.D.=  1.22295131615503E-06
DEBUG_STATS_RL:               GvNm1 (DYNAMICS)  min= -1.00862851241761E-05
DEBUG_STATS_RL:               GvNm1 (DYNAMICS)  max=  1.55716991386695E-05
DEBUG_STATS_RL:               GvNm1 (DYNAMICS) mean=  7.39553662592603E-07
DEBUG_STATS_RL:               GvNm1 (DYNAMICS) S.D.=  2.63285332646496E-06
DEBUG_STATS_RL:               GtNm1 (DYNAMICS)  min= -2.14735307580054E-06
DEBUG_STATS_RL:               GtNm1 (DYNAMICS)  max=  1.90831669108595E-06
DEBUG_STATS_RL:               GtNm1 (DYNAMICS) mean=  1.57817053814522E-09
DEBUG_STATS_RL:               GtNm1 (DYNAMICS) S.D.=  1.55398670333676E-07
DEBUG_STATS_RL:               GsNm1 (DYNAMICS)  min= -3.16242401166864E-07
DEBUG_STATS_RL:               GsNm1 (DYNAMICS)  max=  2.48199973435374E-07
DEBUG_STATS_RL:               GsNm1 (DYNAMICS) mean=  6.29735997745161E-11
DEBUG_STATS_RL:               GsNm1 (DYNAMICS) S.D.=  1.40098452566511E-08
DEBUG_STATS_RL:    cg2d_b (SOLVE_FOR_PRESSURE)  min= -1.94536367733875E+04
DEBUG_STATS_RL:    cg2d_b (SOLVE_FOR_PRESSURE)  max=  2.55164247568990E+04
DEBUG_STATS_RL:    cg2d_b (SOLVE_FOR_PRESSURE) mean=  5.06167915594314E+00
DEBUG_STATS_RL:    cg2d_b (SOLVE_FOR_PRESSURE) S.D.=  4.01817735564450E+03
 cg2d: Sum(rhs),rhsMax =   4.59225277743540E-01  1.67598709636484E+00
(PID.TID 0000.0001)  cg2d: iter=     1 ; resid.=  1.61177284371804E-01
(PID.TID 0000.0001)  cg2d: iter=     2 ; resid.=  1.29260566576679E-01
(PID.TID 0000.0001)  cg2d: iter=     3 ; resid.=  1.20839155115061E-01
(PID.TID 0000.0001)  cg2d: iter=     4 ; resid.=  1.11518736557398E-01
(PID.TID 0000.0001)  cg2d: iter=     5 ; resid.=  9.60110147440515E-02
(PID.TID 0000.0001)  cg2d: iter=     6 ; resid.=  8.57148428214400E-02
(PID.TID 0000.0001)  cg2d: iter=     7 ; resid.=  7.22204360328309E-02
(PID.TID 0000.0001)  cg2d: iter=     8 ; resid.=  5.69827122797439E-02
(PID.TID 0000.0001)  cg2d: iter=     9 ; resid.=  4.69278610722190E-02
(PID.TID 0000.0001)  cg2d: iter=    10 ; resid.=  3.82890991723645E-02
(PID.TID 0000.0001)  cg2d: iter=    11 ; resid.=  3.33539225299237E-02
(PID.TID 0000.0001)  cg2d: iter=    12 ; resid.=  2.66698189580097E-02
(PID.TID 0000.0001)  cg2d: iter=    13 ; resid.=  2.05748930174264E-02
(PID.TID 0000.0001)  cg2d: iter=    14 ; resid.=  1.68605748869326E-02
(PID.TID 0000.0001)  cg2d: iter=    15 ; resid.=  1.39439040569339E-02
(PID.TID 0000.0001)  cg2d: iter=    16 ; resid.=  1.22543143470618E-02
(PID.TID 0000.0001)  cg2d: iter=    17 ; resid.=  1.13276115984539E-02
(PID.TID 0000.0001)  cg2d: iter=    18 ; resid.=  1.01873024337499E-02
(PID.TID 0000.0001)  cg2d: iter=    19 ; resid.=  7.97271654193498E-03
(PID.TID 0000.0001)  cg2d: iter=    20 ; resid.=  6.20474669949800E-03
(PID.TID 0000.0001)  cg2d: iter=    21 ; resid.=  5.32529311082897E-03
(PID.TID 0000.0001)  cg2d: iter=    22 ; resid.=  4.74017855276500E-03
(PID.TID 0000.0001)  cg2d: iter=    23 ; resid.=  3.89660981577362E-03
(PID.TID 0000.0001)  cg2d: iter=    24 ; resid.=  3.13610343224721E-03
(PID.TID 0000.0001)  cg2d: iter=    25 ; resid.=  2.54263420462024E-03
(PID.TID 0000.0001)  cg2d: iter=    26 ; resid.=  2.10295713168563E-03
(PID.TID 0000.0001)  cg2d: iter=    27 ; resid.=  1.68275676838601E-03
(PID.TID 0000.0001)  cg2d: iter=    28 ; resid.=  1.43181494630745E-03
(PID.TID 0000.0001)  cg2d: iter=    29 ; resid.=  1.21772898315450E-03
(PID.TID 0000.0001)  cg2d: iter=    30 ; resid.=  1.03014232256716E-03
(PID.TID 0000.0001)  cg2d: iter=    31 ; resid.=  8.35229768912138E-04
(PID.TID 0000.0001)  cg2d: iter=    32 ; resid.=  6.24842152605867E-04
(PID.TID 0000.0001)  cg2d: iter=    33 ; resid.=  5.34705254984443E-04
(PID.TID 0000.0001)  cg2d: iter=    34 ; resid.=  4.54777649915550E-04
(PID.TID 0000.0001)  cg2d: iter=    35 ; resid.=  3.97810903068961E-04
(PID.TID 0000.0001)  cg2d: iter=    36 ; resid.=  3.43204947458875E-04
(PID.TID 0000.0001)  cg2d: iter=    37 ; resid.=  2.93143553428189E-04
(PID.TID 0000.0001)  cg2d: iter=    38 ; resid.=  2.56473398676199E-04
(PID.TID 0000.0001)  cg2d: iter=    39 ; resid.=  2.20943440804900E-04
(PID.TID 0000.0001)  cg2d: iter=    40 ; resid.=  1.96786133975475E-04
(PID.TID 0000.0001)  cg2d: iter=    41 ; resid.=  1.68209229862815E-04
(PID.TID 0000.0001)  cg2d: iter=    42 ; resid.=  1.46188114388112E-04
(PID.TID 0000.0001)  cg2d: iter=    43 ; resid.=  1.17183322248284E-04
(PID.TID 0000.0001)  cg2d: iter=    44 ; resid.=  9.06157323228994E-05
(PID.TID 0000.0001)  cg2d: iter=    45 ; resid.=  7.22506278619562E-05
(PID.TID 0000.0001)  cg2d: iter=    46 ; resid.=  5.63130013869574E-05
(PID.TID 0000.0001)  cg2d: iter=    47 ; resid.=  4.83218357585283E-05
(PID.TID 0000.0001)  cg2d: iter=    48 ; resid.=  4.08175211523652E-05
(PID.TID 0000.0001)  cg2d: iter=    49 ; resid.=  3.38145692384749E-05
(PID.TID 0000.0001)  cg2d: iter=    50 ; resid.=  2.79139002271533E-05
(PID.TID 0000.0001)  cg2d: iter=    51 ; resid.=  2.40606286862356E-05
(PID.TID 0000.0001)  cg2d: iter=    52 ; resid.=  2.06129130128395E-05
(PID.TID 0000.0001)  cg2d: iter=    53 ; resid.=  1.72460102862443E-05
(PID.TID 0000.0001)  cg2d: iter=    54 ; resid.=  1.38861221609013E-05
(PID.TID 0000.0001)  cg2d: iter=    55 ; resid.=  1.16327953613965E-05
(PID.TID 0000.0001)  cg2d: iter=    56 ; resid.=  9.95594294724735E-06
(PID.TID 0000.0001)  cg2d: iter=    57 ; resid.=  8.55615503001592E-06
(PID.TID 0000.0001)  cg2d: iter=    58 ; resid.=  6.33286214800723E-06
(PID.TID 0000.0001)  cg2d: iter=    59 ; resid.=  5.03569426326535E-06
(PID.TID 0000.0001)  cg2d: iter=    60 ; resid.=  4.15344311850199E-06
(PID.TID 0000.0001)  cg2d: iter=    61 ; resid.=  3.55845636493684E-06
(PID.TID 0000.0001)  cg2d: iter=    62 ; resid.=  3.01836861715892E-06
(PID.TID 0000.0001)  cg2d: iter=    63 ; resid.=  2.82310676383160E-06
(PID.TID 0000.0001)  cg2d: iter=    64 ; resid.=  2.20224423431663E-06
(PID.TID 0000.0001)  cg2d: iter=    65 ; resid.=  1.70720193868194E-06
(PID.TID 0000.0001)  cg2d: iter=    66 ; resid.=  1.35751500955914E-06
(PID.TID 0000.0001)  cg2d: iter=    67 ; resid.=  1.11696829554446E-06
(PID.TID 0000.0001)  cg2d: iter=    68 ; resid.=  8.83460088363321E-07
(PID.TID 0000.0001)  cg2d: iter=    69 ; resid.=  7.33317254527213E-07
(PID.TID 0000.0001)  cg2d: iter=    70 ; resid.=  5.89075932317788E-07
(PID.TID 0000.0001)  cg2d: iter=    71 ; resid.=  4.97796356257329E-07
(PID.TID 0000.0001)  cg2d: iter=    72 ; resid.=  4.44787245776184E-07
(PID.TID 0000.0001)  cg2d: iter=    73 ; resid.=  4.01021036560206E-07
(PID.TID 0000.0001)  cg2d: iter=    74 ; resid.=  3.40267916576734E-07
(PID.TID 0000.0001)  cg2d: iter=    75 ; resid.=  2.65410108522326E-07
(PID.TID 0000.0001)  cg2d: iter=    76 ; resid.=  2.23899838083379E-07
(PID.TID 0000.0001)  cg2d: iter=    77 ; resid.=  1.84709750557146E-07
(PID.TID 0000.0001)  cg2d: iter=    78 ; resid.=  1.50692894802360E-07
(PID.TID 0000.0001)  cg2d: iter=    79 ; resid.=  1.31662342923495E-07
(PID.TID 0000.0001)  cg2d: iter=    80 ; resid.=  1.01105943773500E-07
(PID.TID 0000.0001)  cg2d: iter=    81 ; resid.=  7.67283714561061E-08
(PID.TID 0000.0001)  cg2d: iter=    82 ; resid.=  5.46131351142899E-08
(PID.TID 0000.0001)  cg2d: iter=    83 ; resid.=  4.12120318021423E-08
(PID.TID 0000.0001)  cg2d: iter=    84 ; resid.=  2.99743495472428E-08
(PID.TID 0000.0001)  cg2d: iter=    85 ; resid.=  2.18666460296189E-08
(PID.TID 0000.0001)  cg2d: iter=    86 ; resid.=  1.76115915601034E-08
(PID.TID 0000.0001)  cg2d: iter=    87 ; resid.=  1.47769581597506E-08
(PID.TID 0000.0001)  cg2d: iter=    88 ; resid.=  1.14512875607562E-08
(PID.TID 0000.0001)  cg2d: iter=    89 ; resid.=  9.92866807977448E-09
(PID.TID 0000.0001)  cg2d: iter=    90 ; resid.=  8.41532059951515E-09
(PID.TID 0000.0001)  cg2d: iter=    91 ; resid.=  5.85471161483670E-09
(PID.TID 0000.0001)  cg2d: iter=    92 ; resid.=  4.25090113296381E-09
(PID.TID 0000.0001)  cg2d: iter=    93 ; resid.=  3.31712574241727E-09
(PID.TID 0000.0001)  cg2d: iter=    94 ; resid.=  2.71910428019708E-09
(PID.TID 0000.0001)  cg2d: iter=    95 ; resid.=  2.18203529846975E-09
(PID.TID 0000.0001)  cg2d: iter=    96 ; resid.=  1.70816941089705E-09
(PID.TID 0000.0001)  cg2d: iter=    97 ; resid.=  1.35440464137986E-09
(PID.TID 0000.0001)  cg2d: iter=    98 ; resid.=  1.04813700381501E-09
(PID.TID 0000.0001)  cg2d: iter=    99 ; resid.=  8.54375627941956E-10
(PID.TID 0000.0001)  cg2d: iter=   100 ; resid.=  8.19512722718388E-10
(PID.TID 0000.0001)  cg2d: iter=   101 ; resid.=  6.48845486216491E-10
(PID.TID 0000.0001)  cg2d: iter=   102 ; resid.=  5.45784703169892E-10
(PID.TID 0000.0001)  cg2d: iter=   103 ; resid.=  4.48131014414549E-10
(PID.TID 0000.0001)  cg2d: iter=   104 ; resid.=  3.51382714870488E-10
(PID.TID 0000.0001)  cg2d: iter=   105 ; resid.=  2.85269579511120E-10
(PID.TID 0000.0001)  cg2d: iter=   106 ; resid.=  2.35353296369936E-10
(PID.TID 0000.0001)  cg2d: iter=   107 ; resid.=  1.77440271017432E-10
(PID.TID 0000.0001)  cg2d: iter=   108 ; resid.=  1.49880501182357E-10
(PID.TID 0000.0001)  cg2d: iter=   109 ; resid.=  1.13964488276553E-10
(PID.TID 0000.0001)  cg2d: iter=   110 ; resid.=  8.31409102799473E-11
(PID.TID 0000.0001)  cg2d: iter=   111 ; resid.=  6.79741944670948E-11
(PID.TID 0000.0001)  cg2d: iter=   112 ; resid.=  5.21097114405697E-11
(PID.TID 0000.0001)  cg2d: iter=   113 ; resid.=  4.10650755076665E-11
(PID.TID 0000.0001)  cg2d: iter=   114 ; resid.=  3.16142782801909E-11
(PID.TID 0000.0001)  cg2d: iter=   115 ; resid.=  2.53514329725072E-11
(PID.TID 0000.0001)  cg2d: iter=   116 ; resid.=  1.80249449830256E-11
(PID.TID 0000.0001)  cg2d: iter=   117 ; resid.=  1.35581097721123E-11
(PID.TID 0000.0001)  cg2d: iter=   118 ; resid.=  1.01961802291263E-11
(PID.TID 0000.0001)  cg2d: iter=   119 ; resid.=  7.29242080964123E-12
(PID.TID 0000.0001)  cg2d: iter=   120 ; resid.=  5.27549989603210E-12
(PID.TID 0000.0001)  cg2d: iter=   121 ; resid.=  4.28326272458902E-12
(PID.TID 0000.0001)  cg2d: iter=   122 ; resid.=  3.48373565602410E-12
(PID.TID 0000.0001)  cg2d: iter=   123 ; resid.=  2.43624108086343E-12
(PID.TID 0000.0001)  cg2d: iter=   124 ; resid.=  1.80778356601785E-12
(PID.TID 0000.0001)  cg2d: iter=   125 ; resid.=  1.28788222986228E-12
(PID.TID 0000.0001)  cg2d: iter=   126 ; resid.=  8.97846084242247E-13
(PID.TID 0000.0001)  cg2d: iter=   127 ; resid.=  6.28309502837622E-13
(PID.TID 0000.0001)  cg2d: iter=   128 ; resid.=  4.46960395166438E-13
(PID.TID 0000.0001)  cg2d: iter=   129 ; resid.=  3.26580931156013E-13
(PID.TID 0000.0001)  cg2d: iter=   130 ; resid.=  2.40149183348627E-13
(PID.TID 0000.0001)  cg2d: iter=   131 ; resid.=  1.64515731620627E-13
(PID.TID 0000.0001)  cg2d: iter=   132 ; resid.=  1.09018832503075E-13
(PID.TID 0000.0001)  cg2d: iter=   133 ; resid.=  7.86802617953491E-14
DEBUG_STATS_RL:    cg2d_x (SOLVE_FOR_PRESSURE)  min= -2.12367334000642E+01
DEBUG_STATS_RL:    cg2d_x (SOLVE_FOR_PRESSURE)  max=  1.13213376310943E+01
DEBUG_STATS_RL:    cg2d_x (SOLVE_FOR_PRESSURE) mean= -2.04016502464968E+00
DEBUG_STATS_RL:    cg2d_x (SOLVE_FOR_PRESSURE) S.D.=  8.52460184366772E+00
(PID.TID 0000.0001)      cg2d_init_res =   3.06800360451253E-01
(PID.TID 0000.0001)      cg2d_iters(min,last) =      -1     133
(PID.TID 0000.0001)      cg2d_last_res =   7.86802617953491E-14
(PID.TID 0000.0001) // =======================================================
(PID.TID 0000.0001) // Begin MONITOR dynamic field statistics
(PID.TID 0000.0001) // =======================================================
(PID.TID 0000.0001) %MON time_tsnumber                =                    75
(PID.TID 0000.0001) %MON time_secondsf                =   6.4800000000000E+06
(PID.TID 0000.0001) %MON dynstat_eta_max              =   1.1540609206008E+00
(PID.TID 0000.0001) %MON dynstat_eta_min              =  -2.1648046279373E+00
(PID.TID 0000.0001) %MON dynstat_eta_mean             =  -5.2812345717318E-03
(PID.TID 0000.0001) %MON dynstat_eta_sd               =   7.8154527654448E-01
(PID.TID 0000.0001) %MON dynstat_eta_del2             =   2.4688558555531E-03
(PID.TID 0000.0001) %MON dynstat_uvel_max             =   1.4617957347722E-01
(PID.TID 0000.0001) %MON dynstat_uvel_min             =  -1.2375616699129E-01
(PID.TID 0000.0001) %MON dynstat_uvel_mean            =   2.5055839755537E-03
(PID.TID 0000.0001) %MON dynstat_uvel_sd              =   1.6895947697907E-02
(PID.TID 0000.0001) %MON dynstat_uvel_del2            =   1.1184688646489E-04
(PID.TID 0000.0001) %MON dynstat_vvel_max             =   1.5499817536308E-01
(PID.TID 0000.0001) %MON dynstat_vvel_min             =  -8.3638644889223E-02
(PID.TID 0000.0001) %MON dynstat_vvel_mean            =  -1.4074407447242E-04
(PID.TID 0000.0001) %MON dynstat_vvel_sd              =   9.1577134986119E-03
(PID.TID 0000.0001) %MON dynstat_vvel_del2            =   8.0999038000518E-05
(PID.TID 0000.0001) %MON dynstat_wvel_max             =   1.4517774434858E-04
(PID.TID 0000.0001) %MON dynstat_wvel_min             =  -8.3316581143837E-05
(PID.TID 0000.0001) %MON dynstat_wvel_mean            =   3.5910046466054E-22
(PID.TID 0000.0001) %MON dynstat_wvel_sd              =   1.2626899160868E-05
(PID.TID 0000.0001) %MON dynstat_wvel_del2            =   1.2297009955035E-07
(PID.TID 0000.0001) %MON dynstat_theta_max            =   3.0905738792118E+01
(PID.TID 0000.0001) %MON dynstat_theta_min            =  -1.9512826324709E+00
(PID.TID 0000.0001) %MON dynstat_theta_mean           =   3.6437469729150E+00
(PID.TID 0000.0001) %MON dynstat_theta_sd             =   4.4263749906366E+00
(PID.TID 0000.0001) %MON dynstat_theta_del2           =   4.8778802456939E-03
(PID.TID 0000.0001) %MON dynstat_salt_max             =   3.7486029570529E+01
(PID.TID 0000.0001) %MON dynstat_salt_min             =   2.9917852335491E+01
(PID.TID 0000.0001) %MON dynstat_salt_mean            =   3.4738023828160E+01
(PID.TID 0000.0001) %MON dynstat_salt_sd              =   2.9658801991931E-01
(PID.TID 0000.0001) %MON dynstat_salt_del2            =   9.9274945385303E-04
(PID.TID 0000.0001) %MON dynstat_sst_max              =   3.0905738792118E+01
(PID.TID 0000.0001) %MON dynstat_sst_min              =  -1.9512826324709E+00
(PID.TID 0000.0001) %MON dynstat_sst_mean             =   1.9073212074540E+01
(PID.TID 0000.0001) %MON dynstat_sst_sd               =   9.1423786233484E+00
(PID.TID 0000.0001) %MON dynstat_sst_del2             =   2.8680230362896E-02
(PID.TID 0000.0001) %MON dynstat_sss_max              =   3.7475961200077E+01
(PID.TID 0000.0001) %MON dynstat_sss_min              =   2.9917852335491E+01
(PID.TID 0000.0001) %MON dynstat_sss_mean             =   3.4858445728370E+01
(PID.TID 0000.0001) %MON dynstat_sss_sd               =   9.8545491341796E-01
(PID.TID 0000.0001) %MON dynstat_sss_del2             =   8.1505864869269E-03
(PID.TID 0000.0001) %MON forcing_qnet_max             =   2.7730584208171E+02
(PID.TID 0000.0001) %MON forcing_qnet_min             =  -1.6415487009684E+02
(PID.TID 0000.0001) %MON forcing_qnet_mean            =  -7.4884054897712E+00
(PID.TID 0000.0001) %MON forcing_qnet_sd              =   4.7058066194511E+01
(PID.TID 0000.0001) %MON forcing_qnet_del2            =   8.5296023684548E-01
(PID.TID 0000.0001) %MON forcing_qsw_max              =   0.0000000000000E+00
(PID.TID 0000.0001) %MON forcing_qsw_min              =   0.0000000000000E+00
(PID.TID 0000.0001) %MON forcing_qsw_mean             =   0.0000000000000E+00
(PID.TID 0000.0001) %MON forcing_qsw_sd               =   0.0000000000000E+00
(PID.TID 0000.0001) %MON forcing_qsw_del2             =   0.0000000000000E+00
(PID.TID 0000.0001) %MON forcing_empmr_max            =   6.9114578119904E-05
(PID.TID 0000.0001) %MON forcing_empmr_min            =  -8.2865237989912E-05
(PID.TID 0000.0001) %MON forcing_empmr_mean           =   5.6380098455305E-07
(PID.TID 0000.0001) %MON forcing_empmr_sd             =   2.6310215550859E-05
(PID.TID 0000.0001) %MON forcing_empmr_del2           =   3.6525018640228E-07
(PID.TID 0000.0001) %MON forcing_fu_max               =   3.5560998022556E-01
(PID.TID 0000.0001) %MON forcing_fu_min               =  -3.8218430181344E-01
(PID.TID 0000.0001) %MON forcing_fu_mean              =   2.0362529710929E-02
(PID.TID 0000.0001) %MON forcing_fu_sd                =   1.0155623203239E-01
(PID.TID 0000.0001) %MON forcing_fu_del2              =   8.3547097553751E-04
(PID.TID 0000.0001) %MON forcing_fv_max               =   1.7947518900037E-01
(PID.TID 0000.0001) %MON forcing_fv_min               =  -1.9183383832375E-01
(PID.TID 0000.0001) %MON forcing_fv_mean              =  -7.5191470900751E-03
(PID.TID 0000.0001) %MON forcing_fv_sd                =   4.2508768930942E-02
(PID.TID 0000.0001) %MON forcing_fv_del2              =   5.0164590245370E-04
(PID.TID 0000.0001) %MON trAdv_CFL_u_max              =   4.7312903217757E-02
(PID.TID 0000.0001) %MON trAdv_CFL_v_max              =   3.0239055302061E-02
(PID.TID 0000.0001) %MON trAdv_CFL_w_max              =   3.8929150419814E-02
(PID.TID 0000.0001) %MON advcfl_uvel_max              =   4.6125330917975E-02
(PID.TID 0000.0001) %MON advcfl_vvel_max              =   3.0113659601179E-02
(PID.TID 0000.0001) %MON advcfl_wvel_max              =   3.4365361949911E-02
(PID.TID 0000.0001) %MON advcfl_W_hf_max              =   4.0695018587383E-02
(PID.TID 0000.0001) %MON pe_b_mean                    =   7.8164457166008E-04
(PID.TID 0000.0001) %MON ke_max                       =   1.6161345109432E-02
(PID.TID 0000.0001) %MON ke_mean                      =   1.7020588588469E-04
(PID.TID 0000.0001) %MON ke_vol                       =   1.3226782436723E+18
(PID.TID 0000.0001) %MON vort_r_min                   =  -3.4208898267319E-07
(PID.TID 0000.0001) %MON vort_r_max                   =   4.6284724454246E-07
(PID.TID 0000.0001) %MON vort_a_mean                  =  -2.5274806469697E-05
(PID.TID 0000.0001) %MON vort_a_sd                    =   7.3604690852110E-05
(PID.TID 0000.0001) %MON vort_p_mean                  =  -3.1845654630524E-05
(PID.TID 0000.0001) %MON vort_p_sd                    =   1.3162536931383E-04
(PID.TID 0000.0001) %MON surfExpan_theta_mean         =   4.9679043766502E-07
(PID.TID 0000.0001) %MON surfExpan_salt_mean          =  -1.0589108952151E-07
(PID.TID 0000.0001) // =======================================================
(PID.TID 0000.0001) // End MONITOR dynamic field statistics
(PID.TID 0000.0001) // =======================================================
 EXTERNAL_FIELDS_LOAD,        75 : iP,iLd,i0,i1=    2    3    3    4 ; Wght=  1.0000000000  0.0000000000
 EXTERNAL_FIELDS_LOAD, it=        75 : Reading new data, i0,i1=    3    4 (prev=    2    3 )
(PID.TID 0000.0001)  MDS_READ_FIELD: opening global file: trenberth_taux.bin
(PID.TID 0000.0001)  MDS_READ_FIELD: opening global file: trenberth_taux.bin
(PID.TID 0000.0001)  MDS_READ_FIELD: opening global file: trenberth_tauy.bin
(PID.TID 0000.0001)  MDS_READ_FIELD: opening global file: trenberth_tauy.bin
(PID.TID 0000.0001)  MDS_READ_FIELD: opening global file: ncep_qnet.bin
(PID.TID 0000.0001)  MDS_READ_FIELD: opening global file: ncep_qnet.bin
(PID.TID 0000.0001)  MDS_READ_FIELD: opening global file: ncep_emp.bin
(PID.TID 0000.0001)  MDS_READ_FIELD: opening global file: ncep_emp.bin
(PID.TID 0000.0001)  MDS_READ_FIELD: opening global file: lev_sst.bin
(PID.TID 0000.0001)  MDS_READ_FIELD: opening global file: lev_sst.bin
(PID.TID 0000.0001)  MDS_READ_FIELD: opening global file: lev_sss.bin
(PID.TID 0000.0001)  MDS_READ_FIELD: opening global file: lev_sss.bin
 EXTERNAL_FIELDS_LOAD: (fu0,1),fu,fv= -2.7199E-02 -3.7252E-02 -2.7199E-02 -5.7807E-04
 EXTERNAL_FIELDS_LOAD: SST,SSS,Q,E-P= -1.8390E-01  3.4579E+01  2.1540E+02  9.0808E-06
DEBUG_STATS_RL:          Uvel (THERMODYNAMICS)  min= -1.23756166991294E-01
DEBUG_STATS_RL:          Uvel (THERMODYNAMICS)  max=  1.46179573477224E-01
DEBUG_STATS_RL:          Uvel (THERMODYNAMICS) mean=  6.35131201674205E-03
DEBUG_STATS_RL:          Uvel (THERMODYNAMICS) S.D.=  2.42481522565431E-02
DEBUG_STATS_RL:          Vvel (THERMODYNAMICS)  min= -8.36386448892226E-02
DEBUG_STATS_RL:          Vvel (THERMODYNAMICS)  max=  1.54998175363077E-01
DEBUG_STATS_RL:          Vvel (THERMODYNAMICS) mean=  6.80701627096374E-04
DEBUG_STATS_RL:          Vvel (THERMODYNAMICS) S.D.=  1.42722511692605E-02
DEBUG_STATS_RL:          Wvel (THERMODYNAMICS)  min= -8.33165811438375E-05
DEBUG_STATS_RL:          Wvel (THERMODYNAMICS)  max=  1.45177744348582E-04
DEBUG_STATS_RL:          Wvel (THERMODYNAMICS) mean= -4.24238281566910E-08
DEBUG_STATS_RL:          Wvel (THERMODYNAMICS) S.D.=  1.09964971043992E-05
DEBUG_STATS_RL:         Theta (THERMODYNAMICS)  min= -1.95073604030504E+00
DEBUG_STATS_RL:         Theta (THERMODYNAMICS)  max=  3.09276378950283E+01
DEBUG_STATS_RL:         Theta (THERMODYNAMICS) mean=  3.24119141837206E+00
DEBUG_STATS_RL:         Theta (THERMODYNAMICS) S.D.=  5.88465710764498E+00
DEBUG_STATS_RL:          Salt (THERMODYNAMICS)  min=  2.00000000000000E-02
DEBUG_STATS_RL:          Salt (THERMODYNAMICS)  max=  3.74857058450596E+01
DEBUG_STATS_RL:          Salt (THERMODYNAMICS) mean=  1.88647772251833E+01
DEBUG_STATS_RL:          Salt (THERMODYNAMICS) S.D.=  1.73003225299253E+01
DEBUG_STATS_RL:         GtNm1 (THERMODYNAMICS)  min= -2.32449305316331E-06
DEBUG_STATS_RL:         GtNm1 (THERMODYNAMICS)  max=  1.66493165113391E-06
DEBUG_STATS_RL:         GtNm1 (THERMODYNAMICS) mean=  1.27330611718488E-09
DEBUG_STATS_RL:         GtNm1 (THERMODYNAMICS) S.D.=  1.54178495111754E-07
DEBUG_STATS_RL:         GsNm1 (THERMODYNAMICS)  min= -3.07330511587143E-07
DEBUG_STATS_RL:         GsNm1 (THERMODYNAMICS)  max=  2.46533275219041E-07
DEBUG_STATS_RL:         GsNm1 (THERMODYNAMICS) mean=  6.84102378499502E-11
DEBUG_STATS_RL:         GsNm1 (THERMODYNAMICS) S.D.=  1.38892176327392E-08
DEBUG_STATS_RL:                EtaN (DYNAMICS)  min= -2.16480462793725E+00
DEBUG_STATS_RL:                EtaN (DYNAMICS)  max=  1.15406092060084E+00
DEBUG_STATS_RL:                EtaN (DYNAMICS) mean= -2.07967892420968E-01
DEBUG_STATS_RL:                EtaN (DYNAMICS) S.D.=  8.68970626265828E-01
DEBUG_STATS_RL:                Uvel (DYNAMICS)  min= -1.23756166991294E-01
DEBUG_STATS_RL:                Uvel (DYNAMICS)  max=  1.46179573477224E-01
DEBUG_STATS_RL:                Uvel (DYNAMICS) mean=  6.35131201674205E-03
DEBUG_STATS_RL:                Uvel (DYNAMICS) S.D.=  2.42481522565431E-02
DEBUG_STATS_RL:                Vvel (DYNAMICS)  min= -8.36386448892226E-02
DEBUG_STATS_RL:                Vvel (DYNAMICS)  max=  1.54998175363077E-01
DEBUG_STATS_RL:                Vvel (DYNAMICS) mean=  6.80701627096374E-04
DEBUG_STATS_RL:                Vvel (DYNAMICS) S.D.=  1.42722511692605E-02
DEBUG_STATS_RL:                Wvel (DYNAMICS)  min= -8.33165811438375E-05
DEBUG_STATS_RL:                Wvel (DYNAMICS)  max=  1.45177744348582E-04
DEBUG_STATS_RL:                Wvel (DYNAMICS) mean= -4.24238281566910E-08
DEBUG_STATS_RL:                Wvel (DYNAMICS) S.D.=  1.09964971043992E-05
DEBUG_STATS_RL:               Theta (DYNAMICS)  min= -1.95073604030504E+00
DEBUG_STATS_RL:               Theta (DYNAMICS)  max=  3.09276378950283E+01
DEBUG_STATS_RL:               Theta (DYNAMICS) mean=  3.24119141837206E+00
DEBUG_STATS_RL:               Theta (DYNAMICS) S.D.=  5.88465710764498E+00
DEBUG_STATS_RL:                Salt (DYNAMICS)  min=  2.00000000000000E-02
DEBUG_STATS_RL:                Salt (DYNAMICS)  max=  3.74857058450596E+01
DEBUG_STATS_RL:                Salt (DYNAMICS) mean=  1.88647772251833E+01
DEBUG_STATS_RL:                Salt (DYNAMICS) S.D.=  1.73003225299253E+01
DEBUG_STATS_RL:                  Gu (DYNAMICS)  min= -1.21507882927854E-01
DEBUG_STATS_RL:                  Gu (DYNAMICS)  max=  1.53963559464688E-01
DEBUG_STATS_RL:                  Gu (DYNAMICS) mean=  6.34580208202465E-03
DEBUG_STATS_RL:                  Gu (DYNAMICS) S.D.=  2.46123807650763E-02
DEBUG_STATS_RL:                  Gv (DYNAMICS)  min= -8.21162337802710E-02
DEBUG_STATS_RL:                  Gv (DYNAMICS)  max=  1.55223398327641E-01
DEBUG_STATS_RL:                  Gv (DYNAMICS) mean=  3.51561055984819E-03
DEBUG_STATS_RL:                  Gv (DYNAMICS) S.D.=  1.56473701322150E-02
DEBUG_STATS_RL:               GuNm1 (DYNAMICS)  min= -1.08582087834804E-05
DEBUG_STATS_RL:               GuNm1 (DYNAMICS)  max=  9.37162247526735E-06
DEBUG_STATS_RL:               GuNm1 (DYNAMICS) mean=  8.96194484752752E-09
DEBUG_STATS_RL:               GuNm1 (DYNAMICS) S.D.=  1.22598693221637E-06
DEBUG_STATS_RL:               GvNm1 (DYNAMICS)  min= -1.00140868686460E-05
DEBUG_STATS_RL:               GvNm1 (DYNAMICS)  max=  1.55675636238791E-05
DEBUG_STATS_RL:               GvNm1 (DYNAMICS) mean=  7.39116162894457E-07
DEBUG_STATS_RL:               GvNm1 (DYNAMICS) S.D.=  2.63086671487516E-06
DEBUG_STATS_RL:               GtNm1 (DYNAMICS)  min= -2.32449305316331E-06
DEBUG_STATS_RL:               GtNm1 (DYNAMICS)  max=  1.66493165113391E-06
DEBUG_STATS_RL:               GtNm1 (DYNAMICS) mean=  1.27330611718488E-09
DEBUG_STATS_RL:               GtNm1 (DYNAMICS) S.D.=  1.54178495111754E-07
DEBUG_STATS_RL:               GsNm1 (DYNAMICS)  min= -3.07330511587143E-07
DEBUG_STATS_RL:               GsNm1 (DYNAMICS)  max=  2.46533275219041E-07
DEBUG_STATS_RL:               GsNm1 (DYNAMICS) mean=  6.84102378499502E-11
DEBUG_STATS_RL:               GsNm1 (DYNAMICS) S.D.=  1.38892176327392E-08
DEBUG_STATS_RL:    cg2d_b (SOLVE_FOR_PRESSURE)  min= -2.05696197475818E+04
DEBUG_STATS_RL:    cg2d_b (SOLVE_FOR_PRESSURE)  max=  2.54866854277325E+04
DEBUG_STATS_RL:    cg2d_b (SOLVE_FOR_PRESSURE) mean=  5.10574035806274E+00
DEBUG_STATS_RL:    cg2d_b (SOLVE_FOR_PRESSURE) S.D.=  4.02633288959643E+03
 cg2d: Sum(rhs),rhsMax =   4.63763283869539E-01  1.67403373760034E+00
(PID.TID 0000.0001)  cg2d: iter=     1 ; resid.=  1.53206169802898E-01
(PID.TID 0000.0001)  cg2d: iter=     2 ; resid.=  1.13987570269301E-01
(PID.TID 0000.0001)  cg2d: iter=     3 ; resid.=  1.03498449188070E-01
(PID.TID 0000.0001)  cg2d: iter=     4 ; resid.=  9.43085264744848E-02
(PID.TID 0000.0001)  cg2d: iter=     5 ; resid.=  7.68314321900678E-02
(PID.TID 0000.0001)  cg2d: iter=     6 ; resid.=  6.66557132842182E-02
(PID.TID 0000.0001)  cg2d: iter=     7 ; resid.=  5.72338063497498E-02
(PID.TID 0000.0001)  cg2d: iter=     8 ; resid.=  4.73080803494534E-02
(PID.TID 0000.0001)  cg2d: iter=     9 ; resid.=  4.03302043295327E-02
(PID.TID 0000.0001)  cg2d: iter=    10 ; resid.=  3.40720804809337E-02
(PID.TID 0000.0001)  cg2d: iter=    11 ; resid.=  2.96770830425463E-02
(PID.TID 0000.0001)  cg2d: iter=    12 ; resid.=  2.38075042342195E-02
(PID.TID 0000.0001)  cg2d: iter=    13 ; resid.=  1.82399066249806E-02
(PID.TID 0000.0001)  cg2d: iter=    14 ; resid.=  1.49004624816095E-02
(PID.TID 0000.0001)  cg2d: iter=    15 ; resid.=  1.24375608058270E-02
(PID.TID 0000.0001)  cg2d: iter=    16 ; resid.=  1.06429430011784E-02
(PID.TID 0000.0001)  cg2d: iter=    17 ; resid.=  9.65988291255207E-03
(PID.TID 0000.0001)  cg2d: iter=    18 ; resid.=  8.70746936190378E-03
(PID.TID 0000.0001)  cg2d: iter=    19 ; resid.=  6.96029661062235E-03
(PID.TID 0000.0001)  cg2d: iter=    20 ; resid.=  5.57372517186903E-03
(PID.TID 0000.0001)  cg2d: iter=    21 ; resid.=  4.75871985538095E-03
(PID.TID 0000.0001)  cg2d: iter=    22 ; resid.=  4.30201207339416E-03
(PID.TID 0000.0001)  cg2d: iter=    23 ; resid.=  3.50539851173359E-03
(PID.TID 0000.0001)  cg2d: iter=    24 ; resid.=  2.74949067537032E-03
(PID.TID 0000.0001)  cg2d: iter=    25 ; resid.=  2.22971692166573E-03
(PID.TID 0000.0001)  cg2d: iter=    26 ; resid.=  1.87401646153081E-03
(PID.TID 0000.0001)  cg2d: iter=    27 ; resid.=  1.53701974614263E-03
(PID.TID 0000.0001)  cg2d: iter=    28 ; resid.=  1.31558191319404E-03
(PID.TID 0000.0001)  cg2d: iter=    29 ; resid.=  1.13442042250451E-03
(PID.TID 0000.0001)  cg2d: iter=    30 ; resid.=  9.57178442339053E-04
(PID.TID 0000.0001)  cg2d: iter=    31 ; resid.=  7.82554261844218E-04
(PID.TID 0000.0001)  cg2d: iter=    32 ; resid.=  5.95151316481802E-04
(PID.TID 0000.0001)  cg2d: iter=    33 ; resid.=  5.11768385015945E-04
(PID.TID 0000.0001)  cg2d: iter=    34 ; resid.=  4.30767029154994E-04
(PID.TID 0000.0001)  cg2d: iter=    35 ; resid.=  3.72006802152189E-04
(PID.TID 0000.0001)  cg2d: iter=    36 ; resid.=  3.16760278763603E-04
(PID.TID 0000.0001)  cg2d: iter=    37 ; resid.=  2.68700654527143E-04
(PID.TID 0000.0001)  cg2d: iter=    38 ; resid.=  2.30655409887962E-04
(PID.TID 0000.0001)  cg2d: iter=    39 ; resid.=  1.99015115971306E-04
(PID.TID 0000.0001)  cg2d: iter=    40 ; resid.=  1.77483011262351E-04
(PID.TID 0000.0001)  cg2d: iter=    41 ; resid.=  1.55156955391365E-04
(PID.TID 0000.0001)  cg2d: iter=    42 ; resid.=  1.35602952094148E-04
(PID.TID 0000.0001)  cg2d: iter=    43 ; resid.=  1.11641611694260E-04
(PID.TID 0000.0001)  cg2d: iter=    44 ; resid.=  8.64319300709688E-05
(PID.TID 0000.0001)  cg2d: iter=    45 ; resid.=  6.77272548674317E-05
(PID.TID 0000.0001)  cg2d: iter=    46 ; resid.=  5.22117987097435E-05
(PID.TID 0000.0001)  cg2d: iter=    47 ; resid.=  4.35991878931327E-05
(PID.TID 0000.0001)  cg2d: iter=    48 ; resid.=  3.63477220368901E-05
(PID.TID 0000.0001)  cg2d: iter=    49 ; resid.=  2.92091487337092E-05
(PID.TID 0000.0001)  cg2d: iter=    50 ; resid.=  2.30518201772151E-05
(PID.TID 0000.0001)  cg2d: iter=    51 ; resid.=  1.94267948774435E-05
(PID.TID 0000.0001)  cg2d: iter=    52 ; resid.=  1.65748324436348E-05
(PID.TID 0000.0001)  cg2d: iter=    53 ; resid.=  1.42071478929832E-05
(PID.TID 0000.0001)  cg2d: iter=    54 ; resid.=  1.16660027116619E-05
(PID.TID 0000.0001)  cg2d: iter=    55 ; resid.=  9.90008963349533E-06
(PID.TID 0000.0001)  cg2d: iter=    56 ; resid.=  8.45510558670679E-06
(PID.TID 0000.0001)  cg2d: iter=    57 ; resid.=  7.30177923918430E-06
(PID.TID 0000.0001)  cg2d: iter=    58 ; resid.=  5.29175470956715E-06
(PID.TID 0000.0001)  cg2d: iter=    59 ; resid.=  4.21988449194672E-06
(PID.TID 0000.0001)  cg2d: iter=    60 ; resid.=  3.49506676923603E-06
(PID.TID 0000.0001)  cg2d: iter=    61 ; resid.=  3.00926670224064E-06
(PID.TID 0000.0001)  cg2d: iter=    62 ; resid.=  2.51702497092478E-06
(PID.TID 0000.0001)  cg2d: iter=    63 ; resid.=  2.36312003722839E-06
(PID.TID 0000.0001)  cg2d: iter=    64 ; resid.=  1.89398405109697E-06
(PID.TID 0000.0001)  cg2d: iter=    65 ; resid.=  1.51882093124720E-06
(PID.TID 0000.0001)  cg2d: iter=    66 ; resid.=  1.21924928609196E-06
(PID.TID 0000.0001)  cg2d: iter=    67 ; resid.=  1.01925903524464E-06
(PID.TID 0000.0001)  cg2d: iter=    68 ; resid.=  7.88120159627887E-07
(PID.TID 0000.0001)  cg2d: iter=    69 ; resid.=  6.24816542592906E-07
(PID.TID 0000.0001)  cg2d: iter=    70 ; resid.=  4.84690817268744E-07
(PID.TID 0000.0001)  cg2d: iter=    71 ; resid.=  4.01038278243911E-07
(PID.TID 0000.0001)  cg2d: iter=    72 ; resid.=  3.51737477412754E-07
(PID.TID 0000.0001)  cg2d: iter=    73 ; resid.=  3.11215620355286E-07
(PID.TID 0000.0001)  cg2d: iter=    74 ; resid.=  2.66633857093217E-07
(PID.TID 0000.0001)  cg2d: iter=    75 ; resid.=  2.10517147271076E-07
(PID.TID 0000.0001)  cg2d: iter=    76 ; resid.=  1.81502143366788E-07
(PID.TID 0000.0001)  cg2d: iter=    77 ; resid.=  1.57239489926446E-07
(PID.TID 0000.0001)  cg2d: iter=    78 ; resid.=  1.32490397187458E-07
(PID.TID 0000.0001)  cg2d: iter=    79 ; resid.=  1.17858956005933E-07
(PID.TID 0000.0001)  cg2d: iter=    80 ; resid.=  9.22141039862801E-08
(PID.TID 0000.0001)  cg2d: iter=    81 ; resid.=  7.06989733616018E-08
(PID.TID 0000.0001)  cg2d: iter=    82 ; resid.=  5.07990223411812E-08
(PID.TID 0000.0001)  cg2d: iter=    83 ; resid.=  3.84229558317177E-08
(PID.TID 0000.0001)  cg2d: iter=    84 ; resid.=  2.80415360314817E-08
(PID.TID 0000.0001)  cg2d: iter=    85 ; resid.=  2.00574235842571E-08
(PID.TID 0000.0001)  cg2d: iter=    86 ; resid.=  1.58848492623325E-08
(PID.TID 0000.0001)  cg2d: iter=    87 ; resid.=  1.35125042938841E-08
(PID.TID 0000.0001)  cg2d: iter=    88 ; resid.=  1.04406236270132E-08
(PID.TID 0000.0001)  cg2d: iter=    89 ; resid.=  8.92323964616968E-09
(PID.TID 0000.0001)  cg2d: iter=    90 ; resid.=  7.76919218931295E-09
(PID.TID 0000.0001)  cg2d: iter=    91 ; resid.=  5.49767222466131E-09
(PID.TID 0000.0001)  cg2d: iter=    92 ; resid.=  3.93767970706013E-09
(PID.TID 0000.0001)  cg2d: iter=    93 ; resid.=  2.92524274266807E-09
(PID.TID 0000.0001)  cg2d: iter=    94 ; resid.=  2.36669048794984E-09
(PID.TID 0000.0001)  cg2d: iter=    95 ; resid.=  1.84653525804148E-09
(PID.TID 0000.0001)  cg2d: iter=    96 ; resid.=  1.40160130163636E-09
(PID.TID 0000.0001)  cg2d: iter=    97 ; resid.=  1.09906766285087E-09
(PID.TID 0000.0001)  cg2d: iter=    98 ; resid.=  8.31957682048956E-10
(PID.TID 0000.0001)  cg2d: iter=    99 ; resid.=  6.50984194090444E-10
(PID.TID 0000.0001)  cg2d: iter=   100 ; resid.=  5.95574451625874E-10
(PID.TID 0000.0001)  cg2d: iter=   101 ; resid.=  4.86361937639277E-10
(PID.TID 0000.0001)  cg2d: iter=   102 ; resid.=  4.16123805986603E-10
(PID.TID 0000.0001)  cg2d: iter=   103 ; resid.=  3.51575159571802E-10
(PID.TID 0000.0001)  cg2d: iter=   104 ; resid.=  2.81440601816087E-10
(PID.TID 0000.0001)  cg2d: iter=   105 ; resid.=  2.32379388651658E-10
(PID.TID 0000.0001)  cg2d: iter=   106 ; resid.=  1.88679015002665E-10
(PID.TID 0000.0001)  cg2d: iter=   107 ; resid.=  1.40158354027417E-10
(PID.TID 0000.0001)  cg2d: iter=   108 ; resid.=  1.20527218186857E-10
(PID.TID 0000.0001)  cg2d: iter=   109 ; resid.=  9.28614313935021E-11
(PID.TID 0000.0001)  cg2d: iter=   110 ; resid.=  7.02303597194833E-11
(PID.TID 0000.0001)  cg2d: iter=   111 ; resid.=  5.93518228668907E-11
(PID.TID 0000.0001)  cg2d: iter=   112 ; resid.=  4.69181969273077E-11
(PID.TID 0000.0001)  cg2d: iter=   113 ; resid.=  3.84051389012486E-11
(PID.TID 0000.0001)  cg2d: iter=   114 ; resid.=  2.99313478367827E-11
(PID.TID 0000.0001)  cg2d: iter=   115 ; resid.=  2.38599398251635E-11
(PID.TID 0000.0001)  cg2d: iter=   116 ; resid.=  1.69652460626180E-11
(PID.TID 0000.0001)  cg2d: iter=   117 ; resid.=  1.26313779332267E-11
(PID.TID 0000.0001)  cg2d: iter=   118 ; resid.=  9.44566387841747E-12
(PID.TID 0000.0001)  cg2d: iter=   119 ; resid.=  6.63906927010359E-12
(PID.TID 0000.0001)  cg2d: iter=   120 ; resid.=  4.62016778993471E-12
(PID.TID 0000.0001)  cg2d: iter=   121 ; resid.=  3.55418946355569E-12
(PID.TID 0000.0001)  cg2d: iter=   122 ; resid.=  2.80892007810936E-12
(PID.TID 0000.0001)  cg2d: iter=   123 ; resid.=  1.98266356698356E-12
(PID.TID 0000.0001)  cg2d: iter=   124 ; resid.=  1.48830462399465E-12
(PID.TID 0000.0001)  cg2d: iter=   125 ; resid.=  1.09511475607149E-12
(PID.TID 0000.0001)  cg2d: iter=   126 ; resid.=  8.02977505070568E-13
(PID.TID 0000.0001)  cg2d: iter=   127 ; resid.=  5.80586136733627E-13
(PID.TID 0000.0001)  cg2d: iter=   128 ; resid.=  4.07006126794324E-13
(PID.TID 0000.0001)  cg2d: iter=   129 ; resid.=  2.98329199686039E-13
(PID.TID 0000.0001)  cg2d: iter=   130 ; resid.=  2.26233138777930E-13
(PID.TID 0000.0001)  cg2d: iter=   131 ; resid.=  1.61991806003517E-13
(PID.TID 0000.0001)  cg2d: iter=   132 ; resid.=  1.12018753681289E-13
(PID.TID 0000.0001)  cg2d: iter=   133 ; resid.=  8.49258185264774E-14
DEBUG_STATS_RL:    cg2d_x (SOLVE_FOR_PRESSURE)  min= -2.14670578908278E+01
DEBUG_STATS_RL:    cg2d_x (SOLVE_FOR_PRESSURE)  max=  1.15093151165024E+01
DEBUG_STATS_RL:    cg2d_x (SOLVE_FOR_PRESSURE) mean= -2.05815679260759E+00
DEBUG_STATS_RL:    cg2d_x (SOLVE_FOR_PRESSURE) S.D.=  8.61791825649416E+00
(PID.TID 0000.0001)      cg2d_init_res =   3.03517951616418E-01
(PID.TID 0000.0001)      cg2d_iters(min,last) =      -1     133
(PID.TID 0000.0001)      cg2d_last_res =   8.49258185264774E-14
(PID.TID 0000.0001) // =======================================================
(PID.TID 0000.0001) // Begin MONITOR dynamic field statistics
(PID.TID 0000.0001) // =======================================================
(PID.TID 0000.0001) %MON time_tsnumber                =                    76
(PID.TID 0000.0001) %MON time_secondsf                =   6.5664000000000E+06
(PID.TID 0000.0001) %MON dynstat_eta_max              =   1.1732227437820E+00
(PID.TID 0000.0001) %MON dynstat_eta_min              =  -2.1882831692994E+00
(PID.TID 0000.0001) %MON dynstat_eta_mean             =  -5.3272069727346E-03
(PID.TID 0000.0001) %MON dynstat_eta_sd               =   7.9148588700548E-01
(PID.TID 0000.0001) %MON dynstat_eta_del2             =   2.4806597090387E-03
(PID.TID 0000.0001) %MON dynstat_uvel_max             =   1.4643304185003E-01
(PID.TID 0000.0001) %MON dynstat_uvel_min             =  -1.2141068523477E-01
(PID.TID 0000.0001) %MON dynstat_uvel_mean            =   2.5075375155152E-03
(PID.TID 0000.0001) %MON dynstat_uvel_sd              =   1.6832797216146E-02
(PID.TID 0000.0001) %MON dynstat_uvel_del2            =   1.1232058357752E-04
(PID.TID 0000.0001) %MON dynstat_vvel_max             =   1.5332943865773E-01
(PID.TID 0000.0001) %MON dynstat_vvel_min             =  -8.0548489474172E-02
(PID.TID 0000.0001) %MON dynstat_vvel_mean            =  -1.3051249971541E-04
(PID.TID 0000.0001) %MON dynstat_vvel_sd              =   9.1549050380994E-03
(PID.TID 0000.0001) %MON dynstat_vvel_del2            =   8.1121449348731E-05
(PID.TID 0000.0001) %MON dynstat_wvel_max             =   1.6625832621636E-04
(PID.TID 0000.0001) %MON dynstat_wvel_min             =  -7.9647293106077E-05
(PID.TID 0000.0001) %MON dynstat_wvel_mean            =  -8.7814009258615E-23
(PID.TID 0000.0001) %MON dynstat_wvel_sd              =   1.2604877809290E-05
(PID.TID 0000.0001) %MON dynstat_wvel_del2            =   1.2337068658548E-07
(PID.TID 0000.0001) %MON dynstat_theta_max            =   3.0927637895028E+01
(PID.TID 0000.0001) %MON dynstat_theta_min            =  -1.9507360403050E+00
(PID.TID 0000.0001) %MON dynstat_theta_mean           =   3.6437779314872E+00
(PID.TID 0000.0001) %MON dynstat_theta_sd             =   4.4265586350399E+00
(PID.TID 0000.0001) %MON dynstat_theta_del2           =   4.8747516332583E-03
(PID.TID 0000.0001) %MON dynstat_salt_max             =   3.7485705845060E+01
(PID.TID 0000.0001) %MON dynstat_salt_min             =   2.9918834578364E+01
(PID.TID 0000.0001) %MON dynstat_salt_mean            =   3.4738026489261E+01
(PID.TID 0000.0001) %MON dynstat_salt_sd              =   2.9660010662703E-01
(PID.TID 0000.0001) %MON dynstat_salt_del2            =   9.9312401909755E-04
(PID.TID 0000.0001) %MON dynstat_sst_max              =   3.0927637895028E+01
(PID.TID 0000.0001) %MON dynstat_sst_min              =  -1.9507360403050E+00
(PID.TID 0000.0001) %MON dynstat_sst_mean             =   1.9075341940968E+01
(PID.TID 0000.0001) %MON dynstat_sst_sd               =   9.1497823792956E+00
(PID.TID 0000.0001) %MON dynstat_sst_del2             =   2.8732536920211E-02
(PID.TID 0000.0001) %MON dynstat_sss_max              =   3.7476534743106E+01
(PID.TID 0000.0001) %MON dynstat_sss_min              =   2.9918834578364E+01
(PID.TID 0000.0001) %MON dynstat_sss_mean             =   3.4858450739994E+01
(PID.TID 0000.0001) %MON dynstat_sss_sd               =   9.8577295568382E-01
(PID.TID 0000.0001) %MON dynstat_sss_del2             =   8.1611356213289E-03
(PID.TID 0000.0001) %MON forcing_qnet_max             =   2.7450769042969E+02
(PID.TID 0000.0001) %MON forcing_qnet_min             =  -1.6385559082031E+02
(PID.TID 0000.0001) %MON forcing_qnet_mean            =  -7.2650659901446E+00
(PID.TID 0000.0001) %MON forcing_qnet_sd              =   4.6489538210055E+01
(PID.TID 0000.0001) %MON forcing_qnet_del2            =   8.5238739722118E-01
(PID.TID 0000.0001) %MON forcing_qsw_max              =   0.0000000000000E+00
(PID.TID 0000.0001) %MON forcing_qsw_min              =   0.0000000000000E+00
(PID.TID 0000.0001) %MON forcing_qsw_mean             =   0.0000000000000E+00
(PID.TID 0000.0001) %MON forcing_qsw_sd               =   0.0000000000000E+00
(PID.TID 0000.0001) %MON forcing_qsw_del2             =   0.0000000000000E+00
(PID.TID 0000.0001) %MON forcing_empmr_max            =   6.9108821776354E-05
(PID.TID 0000.0001) %MON forcing_empmr_min            =  -8.3264417582996E-05
(PID.TID 0000.0001) %MON forcing_empmr_mean           =   5.5071105367869E-07
(PID.TID 0000.0001) %MON forcing_empmr_sd             =   2.6288642314053E-05
(PID.TID 0000.0001) %MON forcing_empmr_del2           =   3.6649371259951E-07
(PID.TID 0000.0001) %MON forcing_fu_max               =   3.5755139589310E-01
(PID.TID 0000.0001) %MON forcing_fu_min               =  -3.8855642080307E-01
(PID.TID 0000.0001) %MON forcing_fu_mean              =   2.0456729300388E-02
(PID.TID 0000.0001) %MON forcing_fu_sd                =   1.0213469725884E-01
(PID.TID 0000.0001) %MON forcing_fu_del2              =   8.4850782651584E-04
(PID.TID 0000.0001) %MON forcing_fv_max               =   1.8330034613609E-01
(PID.TID 0000.0001) %MON forcing_fv_min               =  -1.9333162903786E-01
(PID.TID 0000.0001) %MON forcing_fv_mean              =  -7.5295754400446E-03
(PID.TID 0000.0001) %MON forcing_fv_sd                =   4.2684681983358E-02
(PID.TID 0000.0001) %MON forcing_fv_del2              =   5.0763502385068E-04
(PID.TID 0000.0001) %MON trAdv_CFL_u_max              =   4.6134699302578E-02
(PID.TID 0000.0001) %MON trAdv_CFL_v_max              =   2.9990945851614E-02
(PID.TID 0000.0001) %MON trAdv_CFL_w_max              =   3.9710323575490E-02
(PID.TID 0000.0001) %MON advcfl_uvel_max              =   4.4792428874290E-02
(PID.TID 0000.0001) %MON advcfl_vvel_max              =   2.9789450822649E-02
(PID.TID 0000.0001) %MON advcfl_wvel_max              =   3.9355395575600E-02
(PID.TID 0000.0001) %MON advcfl_W_hf_max              =   4.3518136958216E-02
(PID.TID 0000.0001) %MON pe_b_mean                    =   8.0165448128992E-04
(PID.TID 0000.0001) %MON ke_max                       =   1.6101377021820E-02
(PID.TID 0000.0001) %MON ke_mean                      =   1.6921831476035E-04
(PID.TID 0000.0001) %MON ke_vol                       =   1.3226782436723E+18
(PID.TID 0000.0001) %MON vort_r_min                   =  -3.5619501515185E-07
(PID.TID 0000.0001) %MON vort_r_max                   =   4.4690695139326E-07
(PID.TID 0000.0001) %MON vort_a_mean                  =  -2.5274806499375E-05
(PID.TID 0000.0001) %MON vort_a_sd                    =   7.3604686014259E-05
(PID.TID 0000.0001) %MON vort_p_mean                  =  -3.1845654667917E-05
(PID.TID 0000.0001) %MON vort_p_sd                    =   1.3162544301008E-04
(PID.TID 0000.0001) %MON surfExpan_theta_mean         =   3.7210553392299E-07
(PID.TID 0000.0001) %MON surfExpan_salt_mean          =  -7.2991893174717E-08
(PID.TID 0000.0001) // =======================================================
(PID.TID 0000.0001) // End MONITOR dynamic field statistics
(PID.TID 0000.0001) // =======================================================
 EXTERNAL_FIELDS_LOAD,        76 : iP,iLd,i0,i1=    3    4    3    4 ; Wght=  0.9666666667  0.0333333333
 EXTERNAL_FIELDS_LOAD: (fu0,1),fu,fv= -2.7199E-02 -3.7252E-02 -2.7534E-02 -1.7327E-03
 EXTERNAL_FIELDS_LOAD: SST,SSS,Q,E-P= -1.7660E-01  3.4579E+01  2.1169E+02  9.0370E-06
DEBUG_STATS_RL:          Uvel (THERMODYNAMICS)  min= -1.21410685234768E-01
DEBUG_STATS_RL:          Uvel (THERMODYNAMICS)  max=  1.46433041850029E-01
DEBUG_STATS_RL:          Uvel (THERMODYNAMICS) mean=  6.37786747225020E-03
DEBUG_STATS_RL:          Uvel (THERMODYNAMICS) S.D.=  2.41614865205187E-02
DEBUG_STATS_RL:          Vvel (THERMODYNAMICS)  min= -8.05484894741722E-02
DEBUG_STATS_RL:          Vvel (THERMODYNAMICS)  max=  1.53329438657730E-01
DEBUG_STATS_RL:          Vvel (THERMODYNAMICS) mean=  7.57724528725491E-04
DEBUG_STATS_RL:          Vvel (THERMODYNAMICS) S.D.=  1.43027846537700E-02
DEBUG_STATS_RL:          Wvel (THERMODYNAMICS)  min= -7.96472931060765E-05
DEBUG_STATS_RL:          Wvel (THERMODYNAMICS)  max=  1.66258326216364E-04
DEBUG_STATS_RL:          Wvel (THERMODYNAMICS) mean= -2.72098413597454E-08
DEBUG_STATS_RL:          Wvel (THERMODYNAMICS) S.D.=  1.10086034902634E-05
DEBUG_STATS_RL:         Theta (THERMODYNAMICS)  min= -1.94961989413902E+00
DEBUG_STATS_RL:         Theta (THERMODYNAMICS)  max=  3.09495912357943E+01
DEBUG_STATS_RL:         Theta (THERMODYNAMICS) mean=  3.24120039104852E+00
DEBUG_STATS_RL:         Theta (THERMODYNAMICS) S.D.=  5.88510353918712E+00
DEBUG_STATS_RL:          Salt (THERMODYNAMICS)  min=  2.00000000000000E-02
DEBUG_STATS_RL:          Salt (THERMODYNAMICS)  max=  3.74853592927654E+01
DEBUG_STATS_RL:          Salt (THERMODYNAMICS) mean=  1.88647836853994E+01
DEBUG_STATS_RL:          Salt (THERMODYNAMICS) S.D.=  1.73003292896826E+01
DEBUG_STATS_RL:         GtNm1 (THERMODYNAMICS)  min= -2.47809719869899E-06
DEBUG_STATS_RL:         GtNm1 (THERMODYNAMICS)  max=  1.95483597830635E-06
DEBUG_STATS_RL:         GtNm1 (THERMODYNAMICS) mean=  1.02066212490122E-09
DEBUG_STATS_RL:         GtNm1 (THERMODYNAMICS) S.D.=  1.54633334040889E-07
DEBUG_STATS_RL:         GsNm1 (THERMODYNAMICS)  min= -2.98342161354873E-07
DEBUG_STATS_RL:         GsNm1 (THERMODYNAMICS)  max=  2.45071679744723E-07
DEBUG_STATS_RL:         GsNm1 (THERMODYNAMICS) mean=  6.99004387885451E-11
DEBUG_STATS_RL:         GsNm1 (THERMODYNAMICS) S.D.=  1.39096506242454E-08
DEBUG_STATS_RL:                EtaN (DYNAMICS)  min= -2.18828316929944E+00
DEBUG_STATS_RL:                EtaN (DYNAMICS)  max=  1.17322274378200E+00
DEBUG_STATS_RL:                EtaN (DYNAMICS) mean= -2.09801915658267E-01
DEBUG_STATS_RL:                EtaN (DYNAMICS) S.D.=  8.78483002700736E-01
DEBUG_STATS_RL:                Uvel (DYNAMICS)  min= -1.21410685234768E-01
DEBUG_STATS_RL:                Uvel (DYNAMICS)  max=  1.46433041850029E-01
DEBUG_STATS_RL:                Uvel (DYNAMICS) mean=  6.37786747225020E-03
DEBUG_STATS_RL:                Uvel (DYNAMICS) S.D.=  2.41614865205187E-02
DEBUG_STATS_RL:                Vvel (DYNAMICS)  min= -8.05484894741722E-02
DEBUG_STATS_RL:                Vvel (DYNAMICS)  max=  1.53329438657730E-01
DEBUG_STATS_RL:                Vvel (DYNAMICS) mean=  7.57724528725491E-04
DEBUG_STATS_RL:                Vvel (DYNAMICS) S.D.=  1.43027846537700E-02
DEBUG_STATS_RL:                Wvel (DYNAMICS)  min= -7.96472931060765E-05
DEBUG_STATS_RL:                Wvel (DYNAMICS)  max=  1.66258326216364E-04
DEBUG_STATS_RL:                Wvel (DYNAMICS) mean= -2.72098413597454E-08
DEBUG_STATS_RL:                Wvel (DYNAMICS) S.D.=  1.10086034902634E-05
DEBUG_STATS_RL:               Theta (DYNAMICS)  min= -1.94961989413902E+00
DEBUG_STATS_RL:               Theta (DYNAMICS)  max=  3.09495912357943E+01
DEBUG_STATS_RL:               Theta (DYNAMICS) mean=  3.24120039104852E+00
DEBUG_STATS_RL:               Theta (DYNAMICS) S.D.=  5.88510353918712E+00
DEBUG_STATS_RL:                Salt (DYNAMICS)  min=  2.00000000000000E-02
DEBUG_STATS_RL:                Salt (DYNAMICS)  max=  3.74853592927654E+01
DEBUG_STATS_RL:                Salt (DYNAMICS) mean=  1.88647836853994E+01
DEBUG_STATS_RL:                Salt (DYNAMICS) S.D.=  1.73003292896826E+01
DEBUG_STATS_RL:                  Gu (DYNAMICS)  min= -1.19067872940604E-01
DEBUG_STATS_RL:                  Gu (DYNAMICS)  max=  1.54794806431959E-01
DEBUG_STATS_RL:                  Gu (DYNAMICS) mean=  6.37963095652537E-03
DEBUG_STATS_RL:                  Gu (DYNAMICS) S.D.=  2.45164288697943E-02
DEBUG_STATS_RL:                  Gv (DYNAMICS)  min= -8.31081127081152E-02
DEBUG_STATS_RL:                  Gv (DYNAMICS)  max=  1.53520586563733E-01
DEBUG_STATS_RL:                  Gv (DYNAMICS) mean=  3.55870136316430E-03
DEBUG_STATS_RL:                  Gv (DYNAMICS) S.D.=  1.57122644879857E-02
DEBUG_STATS_RL:               GuNm1 (DYNAMICS)  min= -1.08919555366320E-05
DEBUG_STATS_RL:               GuNm1 (DYNAMICS)  max=  9.36275158618732E-06
DEBUG_STATS_RL:               GuNm1 (DYNAMICS) mean=  9.04995272588055E-09
DEBUG_STATS_RL:               GuNm1 (DYNAMICS) S.D.=  1.22622627633698E-06
DEBUG_STATS_RL:               GvNm1 (DYNAMICS)  min= -9.93739586314796E-06
DEBUG_STATS_RL:               GvNm1 (DYNAMICS)  max=  1.55619516884827E-05
DEBUG_STATS_RL:               GvNm1 (DYNAMICS) mean=  7.38787955984161E-07
DEBUG_STATS_RL:               GvNm1 (DYNAMICS) S.D.=  2.62861435659496E-06
DEBUG_STATS_RL:               GtNm1 (DYNAMICS)  min= -2.47809719869899E-06
DEBUG_STATS_RL:               GtNm1 (DYNAMICS)  max=  1.95483597830635E-06
DEBUG_STATS_RL:               GtNm1 (DYNAMICS) mean=  1.02066212490122E-09
DEBUG_STATS_RL:               GtNm1 (DYNAMICS) S.D.=  1.54633334040889E-07
DEBUG_STATS_RL:               GsNm1 (DYNAMICS)  min= -2.98342161354873E-07
DEBUG_STATS_RL:               GsNm1 (DYNAMICS)  max=  2.45071679744723E-07
DEBUG_STATS_RL:               GsNm1 (DYNAMICS) mean=  6.99004387885451E-11
DEBUG_STATS_RL:               GsNm1 (DYNAMICS) S.D.=  1.39096506242454E-08
DEBUG_STATS_RL:    cg2d_b (SOLVE_FOR_PRESSURE)  min= -2.17309304676052E+04
DEBUG_STATS_RL:    cg2d_b (SOLVE_FOR_PRESSURE)  max=  2.60018847401173E+04
DEBUG_STATS_RL:    cg2d_b (SOLVE_FOR_PRESSURE) mean=  5.14800575501346E+00
DEBUG_STATS_RL:    cg2d_b (SOLVE_FOR_PRESSURE) S.D.=  4.03423048571800E+03
 cg2d: Sum(rhs),rhsMax =   4.58337287545510E-01  1.70787340784566E+00
(PID.TID 0000.0001)  cg2d: iter=     1 ; resid.=  1.43570634943579E-01
(PID.TID 0000.0001)  cg2d: iter=     2 ; resid.=  9.99971925464565E-02
(PID.TID 0000.0001)  cg2d: iter=     3 ; resid.=  8.73605435440699E-02
(PID.TID 0000.0001)  cg2d: iter=     4 ; resid.=  7.81014805578426E-02
(PID.TID 0000.0001)  cg2d: iter=     5 ; resid.=  5.95743349285866E-02
(PID.TID 0000.0001)  cg2d: iter=     6 ; resid.=  4.85179628068395E-02
(PID.TID 0000.0001)  cg2d: iter=     7 ; resid.=  4.09698958588117E-02
(PID.TID 0000.0001)  cg2d: iter=     8 ; resid.=  3.47362664048975E-02
(PID.TID 0000.0001)  cg2d: iter=     9 ; resid.=  3.03395577050433E-02
(PID.TID 0000.0001)  cg2d: iter=    10 ; resid.=  2.64763449968507E-02
(PID.TID 0000.0001)  cg2d: iter=    11 ; resid.=  2.34491607507481E-02
(PID.TID 0000.0001)  cg2d: iter=    12 ; resid.=  1.94441012321093E-02
(PID.TID 0000.0001)  cg2d: iter=    13 ; resid.=  1.51887332297766E-02
(PID.TID 0000.0001)  cg2d: iter=    14 ; resid.=  1.26030636075348E-02
(PID.TID 0000.0001)  cg2d: iter=    15 ; resid.=  1.07198290196219E-02
(PID.TID 0000.0001)  cg2d: iter=    16 ; resid.=  8.94817068109458E-03
(PID.TID 0000.0001)  cg2d: iter=    17 ; resid.=  7.92391036785501E-03
(PID.TID 0000.0001)  cg2d: iter=    18 ; resid.=  7.09207199342165E-03
(PID.TID 0000.0001)  cg2d: iter=    19 ; resid.=  5.78405201572837E-03
(PID.TID 0000.0001)  cg2d: iter=    20 ; resid.=  4.76363468335402E-03
(PID.TID 0000.0001)  cg2d: iter=    21 ; resid.=  4.01209580062374E-03
(PID.TID 0000.0001)  cg2d: iter=    22 ; resid.=  3.66429253831608E-03
(PID.TID 0000.0001)  cg2d: iter=    23 ; resid.=  2.97628362538690E-03
(PID.TID 0000.0001)  cg2d: iter=    24 ; resid.=  2.28957250653344E-03
(PID.TID 0000.0001)  cg2d: iter=    25 ; resid.=  1.85137217500686E-03
(PID.TID 0000.0001)  cg2d: iter=    26 ; resid.=  1.56906153382591E-03
(PID.TID 0000.0001)  cg2d: iter=    27 ; resid.=  1.31278003072140E-03
(PID.TID 0000.0001)  cg2d: iter=    28 ; resid.=  1.12100952052440E-03
(PID.TID 0000.0001)  cg2d: iter=    29 ; resid.=  9.78570593680444E-04
(PID.TID 0000.0001)  cg2d: iter=    30 ; resid.=  8.26950519874953E-04
(PID.TID 0000.0001)  cg2d: iter=    31 ; resid.=  6.88741582955638E-04
(PID.TID 0000.0001)  cg2d: iter=    32 ; resid.=  5.35076422042788E-04
(PID.TID 0000.0001)  cg2d: iter=    33 ; resid.=  4.59746739157331E-04
(PID.TID 0000.0001)  cg2d: iter=    34 ; resid.=  3.82790648188207E-04
(PID.TID 0000.0001)  cg2d: iter=    35 ; resid.=  3.23682686447652E-04
(PID.TID 0000.0001)  cg2d: iter=    36 ; resid.=  2.72467125202245E-04
(PID.TID 0000.0001)  cg2d: iter=    37 ; resid.=  2.28640142397590E-04
(PID.TID 0000.0001)  cg2d: iter=    38 ; resid.=  1.89709172587135E-04
(PID.TID 0000.0001)  cg2d: iter=    39 ; resid.=  1.60490542419283E-04
(PID.TID 0000.0001)  cg2d: iter=    40 ; resid.=  1.40510583752273E-04
(PID.TID 0000.0001)  cg2d: iter=    41 ; resid.=  1.24835792742736E-04
(PID.TID 0000.0001)  cg2d: iter=    42 ; resid.=  1.11005777066588E-04
(PID.TID 0000.0001)  cg2d: iter=    43 ; resid.=  9.52770381802887E-05
(PID.TID 0000.0001)  cg2d: iter=    44 ; resid.=  7.49419820876398E-05
(PID.TID 0000.0001)  cg2d: iter=    45 ; resid.=  5.84075473974738E-05
(PID.TID 0000.0001)  cg2d: iter=    46 ; resid.=  4.49729918325217E-05
(PID.TID 0000.0001)  cg2d: iter=    47 ; resid.=  3.69140344617460E-05
(PID.TID 0000.0001)  cg2d: iter=    48 ; resid.=  3.07004323557736E-05
(PID.TID 0000.0001)  cg2d: iter=    49 ; resid.=  2.38129235610469E-05
(PID.TID 0000.0001)  cg2d: iter=    50 ; resid.=  1.77759765799898E-05
(PID.TID 0000.0001)  cg2d: iter=    51 ; resid.=  1.42390362580460E-05
(PID.TID 0000.0001)  cg2d: iter=    52 ; resid.=  1.18231577337857E-05
(PID.TID 0000.0001)  cg2d: iter=    53 ; resid.=  1.01316407558684E-05
(PID.TID 0000.0001)  cg2d: iter=    54 ; resid.=  8.32115000130831E-06
(PID.TID 0000.0001)  cg2d: iter=    55 ; resid.=  7.16346754752437E-06
(PID.TID 0000.0001)  cg2d: iter=    56 ; resid.=  6.15311907971651E-06
(PID.TID 0000.0001)  cg2d: iter=    57 ; resid.=  5.43027535499950E-06
(PID.TID 0000.0001)  cg2d: iter=    58 ; resid.=  3.95132075498629E-06
(PID.TID 0000.0001)  cg2d: iter=    59 ; resid.=  3.13891907339696E-06
(PID.TID 0000.0001)  cg2d: iter=    60 ; resid.=  2.56663021020484E-06
(PID.TID 0000.0001)  cg2d: iter=    61 ; resid.=  2.17830600105796E-06
(PID.TID 0000.0001)  cg2d: iter=    62 ; resid.=  1.77075528478509E-06
(PID.TID 0000.0001)  cg2d: iter=    63 ; resid.=  1.65303402704409E-06
(PID.TID 0000.0001)  cg2d: iter=    64 ; resid.=  1.37537532264953E-06
(PID.TID 0000.0001)  cg2d: iter=    65 ; resid.=  1.16664970607694E-06
(PID.TID 0000.0001)  cg2d: iter=    66 ; resid.=  9.68273983754055E-07
(PID.TID 0000.0001)  cg2d: iter=    67 ; resid.=  8.44122031143730E-07
(PID.TID 0000.0001)  cg2d: iter=    68 ; resid.=  6.57967321871364E-07
(PID.TID 0000.0001)  cg2d: iter=    69 ; resid.=  5.15277239545780E-07
(PID.TID 0000.0001)  cg2d: iter=    70 ; resid.=  3.91150700091617E-07
(PID.TID 0000.0001)  cg2d: iter=    71 ; resid.=  3.13455045439024E-07
(PID.TID 0000.0001)  cg2d: iter=    72 ; resid.=  2.63698977263567E-07
(PID.TID 0000.0001)  cg2d: iter=    73 ; resid.=  2.19176883065065E-07
(PID.TID 0000.0001)  cg2d: iter=    74 ; resid.=  1.77953131793178E-07
(PID.TID 0000.0001)  cg2d: iter=    75 ; resid.=  1.36438735155908E-07
(PID.TID 0000.0001)  cg2d: iter=    76 ; resid.=  1.15254296991826E-07
(PID.TID 0000.0001)  cg2d: iter=    77 ; resid.=  1.02693157978314E-07
(PID.TID 0000.0001)  cg2d: iter=    78 ; resid.=  9.01617577796358E-08
(PID.TID 0000.0001)  cg2d: iter=    79 ; resid.=  8.43325960033342E-08
(PID.TID 0000.0001)  cg2d: iter=    80 ; resid.=  7.05421494458452E-08
(PID.TID 0000.0001)  cg2d: iter=    81 ; resid.=  5.74062315466174E-08
(PID.TID 0000.0001)  cg2d: iter=    82 ; resid.=  4.34514604232281E-08
(PID.TID 0000.0001)  cg2d: iter=    83 ; resid.=  3.35679096595699E-08
(PID.TID 0000.0001)  cg2d: iter=    84 ; resid.=  2.48848883575804E-08
(PID.TID 0000.0001)  cg2d: iter=    85 ; resid.=  1.72709157997596E-08
(PID.TID 0000.0001)  cg2d: iter=    86 ; resid.=  1.32329553734869E-08
(PID.TID 0000.0001)  cg2d: iter=    87 ; resid.=  1.12188355210629E-08
(PID.TID 0000.0001)  cg2d: iter=    88 ; resid.=  8.62627066849017E-09
(PID.TID 0000.0001)  cg2d: iter=    89 ; resid.=  7.22316556383049E-09
(PID.TID 0000.0001)  cg2d: iter=    90 ; resid.=  6.49478016785602E-09
(PID.TID 0000.0001)  cg2d: iter=    91 ; resid.=  4.86885208959217E-09
(PID.TID 0000.0001)  cg2d: iter=    92 ; resid.=  3.57598989549709E-09
(PID.TID 0000.0001)  cg2d: iter=    93 ; resid.=  2.58898305255170E-09
(PID.TID 0000.0001)  cg2d: iter=    94 ; resid.=  2.06362368218751E-09
(PID.TID 0000.0001)  cg2d: iter=    95 ; resid.=  1.57284412340157E-09
(PID.TID 0000.0001)  cg2d: iter=    96 ; resid.=  1.13768293864954E-09
(PID.TID 0000.0001)  cg2d: iter=    97 ; resid.=  8.61137443675958E-10
(PID.TID 0000.0001)  cg2d: iter=    98 ; resid.=  6.18174643506900E-10
(PID.TID 0000.0001)  cg2d: iter=    99 ; resid.=  4.45709579936312E-10
(PID.TID 0000.0001)  cg2d: iter=   100 ; resid.=  3.56238990037549E-10
(PID.TID 0000.0001)  cg2d: iter=   101 ; resid.=  2.71900552154215E-10
(PID.TID 0000.0001)  cg2d: iter=   102 ; resid.=  2.19843478517553E-10
(PID.TID 0000.0001)  cg2d: iter=   103 ; resid.=  1.82677629847558E-10
(PID.TID 0000.0001)  cg2d: iter=   104 ; resid.=  1.46140507136149E-10
(PID.TID 0000.0001)  cg2d: iter=   105 ; resid.=  1.24518292974851E-10
(PID.TID 0000.0001)  cg2d: iter=   106 ; resid.=  1.03358783005843E-10
(PID.TID 0000.0001)  cg2d: iter=   107 ; resid.=  7.65984572337213E-11
(PID.TID 0000.0001)  cg2d: iter=   108 ; resid.=  6.63674186249122E-11
(PID.TID 0000.0001)  cg2d: iter=   109 ; resid.=  5.14529768936814E-11
(PID.TID 0000.0001)  cg2d: iter=   110 ; resid.=  3.88847609098674E-11
(PID.TID 0000.0001)  cg2d: iter=   111 ; resid.=  3.30746842750682E-11
(PID.TID 0000.0001)  cg2d: iter=   112 ; resid.=  2.72115057146139E-11
(PID.TID 0000.0001)  cg2d: iter=   113 ; resid.=  2.39781992571963E-11
(PID.TID 0000.0001)  cg2d: iter=   114 ; resid.=  2.02883913939265E-11
(PID.TID 0000.0001)  cg2d: iter=   115 ; resid.=  1.74030884974414E-11
(PID.TID 0000.0001)  cg2d: iter=   116 ; resid.=  1.33603458352853E-11
(PID.TID 0000.0001)  cg2d: iter=   117 ; resid.=  1.04435328097220E-11
(PID.TID 0000.0001)  cg2d: iter=   118 ; resid.=  8.11404978845422E-12
(PID.TID 0000.0001)  cg2d: iter=   119 ; resid.=  5.80180384259917E-12
(PID.TID 0000.0001)  cg2d: iter=   120 ; resid.=  3.93072957769419E-12
(PID.TID 0000.0001)  cg2d: iter=   121 ; resid.=  2.87333197908506E-12
(PID.TID 0000.0001)  cg2d: iter=   122 ; resid.=  2.17002682551670E-12
(PID.TID 0000.0001)  cg2d: iter=   123 ; resid.=  1.51132089799657E-12
(PID.TID 0000.0001)  cg2d: iter=   124 ; resid.=  1.11419863311515E-12
(PID.TID 0000.0001)  cg2d: iter=   125 ; resid.=  8.22110182194619E-13
(PID.TID 0000.0001)  cg2d: iter=   126 ; resid.=  6.20674677316476E-13
(PID.TID 0000.0001)  cg2d: iter=   127 ; resid.=  4.58245003385840E-13
(PID.TID 0000.0001)  cg2d: iter=   128 ; resid.=  3.17732781906941E-13
(PID.TID 0000.0001)  cg2d: iter=   129 ; resid.=  2.35012112901415E-13
(PID.TID 0000.0001)  cg2d: iter=   130 ; resid.=  1.88893633583932E-13
(PID.TID 0000.0001)  cg2d: iter=   131 ; resid.=  1.48303854029061E-13
(PID.TID 0000.0001)  cg2d: iter=   132 ; resid.=  1.10455886400891E-13
(PID.TID 0000.0001)  cg2d: iter=   133 ; resid.=  8.80057149515317E-14
DEBUG_STATS_RL:    cg2d_x (SOLVE_FOR_PRESSURE)  min= -2.16308131225407E+01
DEBUG_STATS_RL:    cg2d_x (SOLVE_FOR_PRESSURE)  max=  1.16225019057885E+01
DEBUG_STATS_RL:    cg2d_x (SOLVE_FOR_PRESSURE) mean= -2.07070156626793E+00
DEBUG_STATS_RL:    cg2d_x (SOLVE_FOR_PRESSURE) S.D.=  8.67209730371123E+00
(PID.TID 0000.0001)      cg2d_init_res =   2.94130042253936E-01
(PID.TID 0000.0001)      cg2d_iters(min,last) =      -1     133
(PID.TID 0000.0001)      cg2d_last_res =   8.80057149515317E-14
(PID.TID 0000.0001) // =======================================================
(PID.TID 0000.0001) // Begin MONITOR dynamic field statistics
(PID.TID 0000.0001) // =======================================================
(PID.TID 0000.0001) %MON time_tsnumber                =                    77
(PID.TID 0000.0001) %MON time_secondsf                =   6.6528000000000E+06
(PID.TID 0000.0001) %MON dynstat_eta_max              =   1.1847606427919E+00
(PID.TID 0000.0001) %MON dynstat_eta_min              =  -2.2049758534700E+00
(PID.TID 0000.0001) %MON dynstat_eta_mean             =  -5.3713056737167E-03
(PID.TID 0000.0001) %MON dynstat_eta_sd               =   7.9694023501498E-01
(PID.TID 0000.0001) %MON dynstat_eta_del2             =   2.4924460836988E-03
(PID.TID 0000.0001) %MON dynstat_uvel_max             =   1.4719527052104E-01
(PID.TID 0000.0001) %MON dynstat_uvel_min             =  -1.2155938145507E-01
(PID.TID 0000.0001) %MON dynstat_uvel_mean            =   2.5073362310490E-03
(PID.TID 0000.0001) %MON dynstat_uvel_sd              =   1.6771567807662E-02
(PID.TID 0000.0001) %MON dynstat_uvel_del2            =   1.1284258108314E-04
(PID.TID 0000.0001) %MON dynstat_vvel_max             =   1.5131619779632E-01
(PID.TID 0000.0001) %MON dynstat_vvel_min             =  -8.1492646705577E-02
(PID.TID 0000.0001) %MON dynstat_vvel_mean            =  -1.1564549594535E-04
(PID.TID 0000.0001) %MON dynstat_vvel_sd              =   9.1571330015372E-03
(PID.TID 0000.0001) %MON dynstat_vvel_del2            =   8.1298449674387E-05
(PID.TID 0000.0001) %MON dynstat_wvel_max             =   1.8552003684019E-04
(PID.TID 0000.0001) %MON dynstat_wvel_min             =  -8.1570543954999E-05
(PID.TID 0000.0001) %MON dynstat_wvel_mean            =   1.3819496037173E-22
(PID.TID 0000.0001) %MON dynstat_wvel_sd              =   1.2581902928542E-05
(PID.TID 0000.0001) %MON dynstat_wvel_del2            =   1.2378311054561E-07
(PID.TID 0000.0001) %MON dynstat_theta_max            =   3.0949591235794E+01
(PID.TID 0000.0001) %MON dynstat_theta_min            =  -1.9496198941390E+00
(PID.TID 0000.0001) %MON dynstat_theta_mean           =   3.6438090597577E+00
(PID.TID 0000.0001) %MON dynstat_theta_sd             =   4.4267378308691E+00
(PID.TID 0000.0001) %MON dynstat_theta_del2           =   4.8717616056123E-03
(PID.TID 0000.0001) %MON dynstat_salt_max             =   3.7485359292765E+01
(PID.TID 0000.0001) %MON dynstat_salt_min             =   2.9920052314074E+01
(PID.TID 0000.0001) %MON dynstat_salt_mean            =   3.4738028353670E+01
(PID.TID 0000.0001) %MON dynstat_salt_sd              =   2.9661065576231E-01
(PID.TID 0000.0001) %MON dynstat_salt_del2            =   9.9350219367709E-04
(PID.TID 0000.0001) %MON dynstat_sst_max              =   3.0949591235794E+01
(PID.TID 0000.0001) %MON dynstat_sst_min              =  -1.9496198941390E+00
(PID.TID 0000.0001) %MON dynstat_sst_mean             =   1.9077069804633E+01
(PID.TID 0000.0001) %MON dynstat_sst_sd               =   9.1572091406155E+00
(PID.TID 0000.0001) %MON dynstat_sst_del2             =   2.8783092801873E-02
(PID.TID 0000.0001) %MON dynstat_sss_max              =   3.7477081614083E+01
(PID.TID 0000.0001) %MON dynstat_sss_min              =   2.9920052314074E+01
(PID.TID 0000.0001) %MON dynstat_sss_mean             =   3.4858458312175E+01
(PID.TID 0000.0001) %MON dynstat_sss_sd               =   9.8609793906649E-01
(PID.TID 0000.0001) %MON dynstat_sss_del2             =   8.1715298723249E-03
(PID.TID 0000.0001) %MON forcing_qnet_max             =   2.6980245564779E+02
(PID.TID 0000.0001) %MON forcing_qnet_min             =  -1.6342759450277E+02
(PID.TID 0000.0001) %MON forcing_qnet_mean            =  -6.8680295611749E+00
(PID.TID 0000.0001) %MON forcing_qnet_sd              =   4.5566183658410E+01
(PID.TID 0000.0001) %MON forcing_qnet_del2            =   8.4462547130505E-01
(PID.TID 0000.0001) %MON forcing_qsw_max              =   0.0000000000000E+00
(PID.TID 0000.0001) %MON forcing_qsw_min              =   0.0000000000000E+00
(PID.TID 0000.0001) %MON forcing_qsw_mean             =   0.0000000000000E+00
(PID.TID 0000.0001) %MON forcing_qsw_sd               =   0.0000000000000E+00
(PID.TID 0000.0001) %MON forcing_qsw_del2             =   0.0000000000000E+00
(PID.TID 0000.0001) %MON forcing_empmr_max            =   6.9012650764459E-05
(PID.TID 0000.0001) %MON forcing_empmr_min            =  -8.3279263662916E-05
(PID.TID 0000.0001) %MON forcing_empmr_mean           =   5.2826568885113E-07
(PID.TID 0000.0001) %MON forcing_empmr_sd             =   2.6215922588960E-05
(PID.TID 0000.0001) %MON forcing_empmr_del2           =   3.6580758715705E-07
(PID.TID 0000.0001) %MON forcing_fu_max               =   3.5669511159261E-01
(PID.TID 0000.0001) %MON forcing_fu_min               =  -3.8948949277401E-01
(PID.TID 0000.0001) %MON forcing_fu_mean              =   2.0329537203455E-02
(PID.TID 0000.0001) %MON forcing_fu_sd                =   1.0185090973368E-01
(PID.TID 0000.0001) %MON forcing_fu_del2              =   8.3925956330839E-04
(PID.TID 0000.0001) %MON forcing_fv_max               =   1.8320434490840E-01
(PID.TID 0000.0001) %MON forcing_fv_min               =  -1.8992391626040E-01
(PID.TID 0000.0001) %MON forcing_fv_mean              =  -7.4930987676715E-03
(PID.TID 0000.0001) %MON forcing_fv_sd                =   4.2258946543451E-02
(PID.TID 0000.0001) %MON forcing_fv_del2              =   4.9790745221961E-04
(PID.TID 0000.0001) %MON trAdv_CFL_u_max              =   4.4801526536956E-02
(PID.TID 0000.0001) %MON trAdv_CFL_v_max              =   2.9668058230173E-02
(PID.TID 0000.0001) %MON trAdv_CFL_w_max              =   4.0799753283528E-02
(PID.TID 0000.0001) %MON advcfl_uvel_max              =   4.3227549313575E-02
(PID.TID 0000.0001) %MON advcfl_vvel_max              =   2.9398310411779E-02
(PID.TID 0000.0001) %MON advcfl_wvel_max              =   4.3914879953404E-02
(PID.TID 0000.0001) %MON advcfl_W_hf_max              =   4.7143915244095E-02
(PID.TID 0000.0001) %MON pe_b_mean                    =   8.1274149830095E-04
(PID.TID 0000.0001) %MON ke_max                       =   1.5985099463620E-02
(PID.TID 0000.0001) %MON ke_mean                      =   1.6829974182186E-04
(PID.TID 0000.0001) %MON ke_vol                       =   1.3226782436723E+18
(PID.TID 0000.0001) %MON vort_r_min                   =  -3.6806429227736E-07
(PID.TID 0000.0001) %MON vort_r_max                   =   4.2814217031811E-07
(PID.TID 0000.0001) %MON vort_a_mean                  =  -2.5274806546707E-05
(PID.TID 0000.0001) %MON vort_a_sd                    =   7.3604680180521E-05
(PID.TID 0000.0001) %MON vort_p_mean                  =  -3.1845654727556E-05
(PID.TID 0000.0001) %MON vort_p_sd                    =   1.3162549532888E-04
(PID.TID 0000.0001) %MON surfExpan_theta_mean         =   2.3874346186138E-07
(PID.TID 0000.0001) %MON surfExpan_salt_mean          =  -3.8719010646571E-08
(PID.TID 0000.0001) // =======================================================
(PID.TID 0000.0001) // End MONITOR dynamic field statistics
(PID.TID 0000.0001) // =======================================================
 EXTERNAL_FIELDS_LOAD,        77 : iP,iLd,i0,i1=    3    4    3    4 ; Wght=  0.9333333333  0.0666666667
 EXTERNAL_FIELDS_LOAD: (fu0,1),fu,fv= -2.7199E-02 -3.7252E-02 -2.7869E-02 -2.8873E-03
 EXTERNAL_FIELDS_LOAD: SST,SSS,Q,E-P= -1.6929E-01  3.4578E+01  2.0798E+02  8.9933E-06
DEBUG_STATS_RL:          Uvel (THERMODYNAMICS)  min= -1.21559381455067E-01
DEBUG_STATS_RL:          Uvel (THERMODYNAMICS)  max=  1.47195270521038E-01
DEBUG_STATS_RL:          Uvel (THERMODYNAMICS) mean=  6.39724716476741E-03
DEBUG_STATS_RL:          Uvel (THERMODYNAMICS) S.D.=  2.40682133042371E-02
DEBUG_STATS_RL:          Vvel (THERMODYNAMICS)  min= -8.14926467055771E-02
DEBUG_STATS_RL:          Vvel (THERMODYNAMICS)  max=  1.51316197796319E-01
DEBUG_STATS_RL:          Vvel (THERMODYNAMICS) mean=  8.32442288253084E-04
DEBUG_STATS_RL:          Vvel (THERMODYNAMICS) S.D.=  1.43302916984997E-02
DEBUG_STATS_RL:          Wvel (THERMODYNAMICS)  min= -8.15705439549991E-05
DEBUG_STATS_RL:          Wvel (THERMODYNAMICS)  max=  1.85520036840190E-04
DEBUG_STATS_RL:          Wvel (THERMODYNAMICS) mean= -1.37543903657413E-08
DEBUG_STATS_RL:          Wvel (THERMODYNAMICS) S.D.=  1.10217825963344E-05
DEBUG_STATS_RL:         Theta (THERMODYNAMICS)  min= -1.94857124604471E+00
DEBUG_STATS_RL:         Theta (THERMODYNAMICS)  max=  3.09716369575872E+01
DEBUG_STATS_RL:         Theta (THERMODYNAMICS) mean=  3.24119605453807E+00
DEBUG_STATS_RL:         Theta (THERMODYNAMICS) S.D.=  5.88553520147612E+00
DEBUG_STATS_RL:          Salt (THERMODYNAMICS)  min=  2.00000000000000E-02
DEBUG_STATS_RL:          Salt (THERMODYNAMICS)  max=  3.74849985498100E+01
DEBUG_STATS_RL:          Salt (THERMODYNAMICS) mean=  1.88647895651207E+01
DEBUG_STATS_RL:          Salt (THERMODYNAMICS) S.D.=  1.73003354995877E+01
DEBUG_STATS_RL:         GtNm1 (THERMODYNAMICS)  min= -2.60589706118924E-06
DEBUG_STATS_RL:         GtNm1 (THERMODYNAMICS)  max=  1.68695307171308E-06
DEBUG_STATS_RL:         GtNm1 (THERMODYNAMICS) mean=  7.45038896698166E-10
DEBUG_STATS_RL:         GtNm1 (THERMODYNAMICS) S.D.=  1.53482285045055E-07
DEBUG_STATS_RL:         GsNm1 (THERMODYNAMICS)  min= -2.86057836998193E-07
DEBUG_STATS_RL:         GsNm1 (THERMODYNAMICS)  max=  2.48139431844652E-07
DEBUG_STATS_RL:         GsNm1 (THERMODYNAMICS) mean=  6.23141290310499E-11
DEBUG_STATS_RL:         GsNm1 (THERMODYNAMICS) S.D.=  1.39533442822407E-08
DEBUG_STATS_RL:                EtaN (DYNAMICS)  min= -2.20497585347001E+00
DEBUG_STATS_RL:                EtaN (DYNAMICS)  max=  1.18476064279194E+00
DEBUG_STATS_RL:                EtaN (DYNAMICS) mean= -2.11080689731696E-01
DEBUG_STATS_RL:                EtaN (DYNAMICS) S.D.=  8.84005841356911E-01
DEBUG_STATS_RL:                Uvel (DYNAMICS)  min= -1.21559381455067E-01
DEBUG_STATS_RL:                Uvel (DYNAMICS)  max=  1.47195270521038E-01
DEBUG_STATS_RL:                Uvel (DYNAMICS) mean=  6.39724716476741E-03
DEBUG_STATS_RL:                Uvel (DYNAMICS) S.D.=  2.40682133042371E-02
DEBUG_STATS_RL:                Vvel (DYNAMICS)  min= -8.14926467055771E-02
DEBUG_STATS_RL:                Vvel (DYNAMICS)  max=  1.51316197796319E-01
DEBUG_STATS_RL:                Vvel (DYNAMICS) mean=  8.32442288253084E-04
DEBUG_STATS_RL:                Vvel (DYNAMICS) S.D.=  1.43302916984997E-02
DEBUG_STATS_RL:                Wvel (DYNAMICS)  min= -8.15705439549991E-05
DEBUG_STATS_RL:                Wvel (DYNAMICS)  max=  1.85520036840190E-04
DEBUG_STATS_RL:                Wvel (DYNAMICS) mean= -1.37543903657413E-08
DEBUG_STATS_RL:                Wvel (DYNAMICS) S.D.=  1.10217825963344E-05
DEBUG_STATS_RL:               Theta (DYNAMICS)  min= -1.94857124604471E+00
DEBUG_STATS_RL:               Theta (DYNAMICS)  max=  3.09716369575872E+01
DEBUG_STATS_RL:               Theta (DYNAMICS) mean=  3.24119605453807E+00
DEBUG_STATS_RL:               Theta (DYNAMICS) S.D.=  5.88553520147612E+00
DEBUG_STATS_RL:                Salt (DYNAMICS)  min=  2.00000000000000E-02
DEBUG_STATS_RL:                Salt (DYNAMICS)  max=  3.74849985498100E+01
DEBUG_STATS_RL:                Salt (DYNAMICS) mean=  1.88647895651207E+01
DEBUG_STATS_RL:                Salt (DYNAMICS) S.D.=  1.73003354995877E+01
DEBUG_STATS_RL:                  Gu (DYNAMICS)  min= -1.20926195804281E-01
DEBUG_STATS_RL:                  Gu (DYNAMICS)  max=  1.55140192951735E-01
DEBUG_STATS_RL:                  Gu (DYNAMICS) mean=  6.40427319260885E-03
DEBUG_STATS_RL:                  Gu (DYNAMICS) S.D.=  2.44157974375665E-02
DEBUG_STATS_RL:                  Gv (DYNAMICS)  min= -8.92216112615567E-02
DEBUG_STATS_RL:                  Gv (DYNAMICS)  max=  1.51462437024045E-01
DEBUG_STATS_RL:                  Gv (DYNAMICS) mean=  3.59553684894131E-03
DEBUG_STATS_RL:                  Gv (DYNAMICS) S.D.=  1.57652476189471E-02
DEBUG_STATS_RL:               GuNm1 (DYNAMICS)  min= -1.09129054192000E-05
DEBUG_STATS_RL:               GuNm1 (DYNAMICS)  max=  9.35117075797421E-06
DEBUG_STATS_RL:               GuNm1 (DYNAMICS) mean=  9.22553318724080E-09
DEBUG_STATS_RL:               GuNm1 (DYNAMICS) S.D.=  1.22659217486248E-06
DEBUG_STATS_RL:               GvNm1 (DYNAMICS)  min= -9.85801705238841E-06
DEBUG_STATS_RL:               GvNm1 (DYNAMICS)  max=  1.55541672196710E-05
DEBUG_STATS_RL:               GvNm1 (DYNAMICS) mean=  7.38463993260708E-07
DEBUG_STATS_RL:               GvNm1 (DYNAMICS) S.D.=  2.62651447897865E-06
DEBUG_STATS_RL:               GtNm1 (DYNAMICS)  min= -2.60589706118924E-06
DEBUG_STATS_RL:               GtNm1 (DYNAMICS)  max=  1.68695307171308E-06
DEBUG_STATS_RL:               GtNm1 (DYNAMICS) mean=  7.45038896698166E-10
DEBUG_STATS_RL:               GtNm1 (DYNAMICS) S.D.=  1.53482285045055E-07
DEBUG_STATS_RL:               GsNm1 (DYNAMICS)  min= -2.86057836998193E-07
DEBUG_STATS_RL:               GsNm1 (DYNAMICS)  max=  2.48139431844652E-07
DEBUG_STATS_RL:               GsNm1 (DYNAMICS) mean=  6.23141290310499E-11
DEBUG_STATS_RL:               GsNm1 (DYNAMICS) S.D.=  1.39533442822407E-08
DEBUG_STATS_RL:    cg2d_b (SOLVE_FOR_PRESSURE)  min= -2.29114120179245E+04
DEBUG_STATS_RL:    cg2d_b (SOLVE_FOR_PRESSURE)  max=  2.67980526956997E+04
DEBUG_STATS_RL:    cg2d_b (SOLVE_FOR_PRESSURE) mean=  5.18847534679721E+00
DEBUG_STATS_RL:    cg2d_b (SOLVE_FOR_PRESSURE) S.D.=  4.04165705482021E+03
 cg2d: Sum(rhs),rhsMax =   4.48216165712812E-01  1.76016785084886E+00
(PID.TID 0000.0001)  cg2d: iter=     1 ; resid.=  1.34955214654420E-01
(PID.TID 0000.0001)  cg2d: iter=     2 ; resid.=  9.02566924931721E-02
(PID.TID 0000.0001)  cg2d: iter=     3 ; resid.=  7.66256440520283E-02
(PID.TID 0000.0001)  cg2d: iter=     4 ; resid.=  6.74440719423563E-02
(PID.TID 0000.0001)  cg2d: iter=     5 ; resid.=  4.85110403359148E-02
(PID.TID 0000.0001)  cg2d: iter=     6 ; resid.=  3.65301085956203E-02
(PID.TID 0000.0001)  cg2d: iter=     7 ; resid.=  2.92364923813523E-02
(PID.TID 0000.0001)  cg2d: iter=     8 ; resid.=  2.43000982809594E-02
(PID.TID 0000.0001)  cg2d: iter=     9 ; resid.=  2.09294279186330E-02
(PID.TID 0000.0001)  cg2d: iter=    10 ; resid.=  1.82708948512682E-02
(PID.TID 0000.0001)  cg2d: iter=    11 ; resid.=  1.62811959195106E-02
(PID.TID 0000.0001)  cg2d: iter=    12 ; resid.=  1.41594315833162E-02
(PID.TID 0000.0001)  cg2d: iter=    13 ; resid.=  1.15693577730812E-02
(PID.TID 0000.0001)  cg2d: iter=    14 ; resid.=  1.00386948583180E-02
(PID.TID 0000.0001)  cg2d: iter=    15 ; resid.=  8.92633251834926E-03
(PID.TID 0000.0001)  cg2d: iter=    16 ; resid.=  7.44569614896496E-03
(PID.TID 0000.0001)  cg2d: iter=    17 ; resid.=  6.53722727244436E-03
(PID.TID 0000.0001)  cg2d: iter=    18 ; resid.=  5.83413340393758E-03
(PID.TID 0000.0001)  cg2d: iter=    19 ; resid.=  4.83817900149021E-03
(PID.TID 0000.0001)  cg2d: iter=    20 ; resid.=  4.08540850511421E-03
(PID.TID 0000.0001)  cg2d: iter=    21 ; resid.=  3.34236148042921E-03
(PID.TID 0000.0001)  cg2d: iter=    22 ; resid.=  3.02611996342874E-03
(PID.TID 0000.0001)  cg2d: iter=    23 ; resid.=  2.44267886856451E-03
(PID.TID 0000.0001)  cg2d: iter=    24 ; resid.=  1.83653945426344E-03
(PID.TID 0000.0001)  cg2d: iter=    25 ; resid.=  1.45423724486680E-03
(PID.TID 0000.0001)  cg2d: iter=    26 ; resid.=  1.20164741194772E-03
(PID.TID 0000.0001)  cg2d: iter=    27 ; resid.=  1.00046920147013E-03
(PID.TID 0000.0001)  cg2d: iter=    28 ; resid.=  8.41422425096140E-04
(PID.TID 0000.0001)  cg2d: iter=    29 ; resid.=  7.38296092519532E-04
(PID.TID 0000.0001)  cg2d: iter=    30 ; resid.=  6.26033258111646E-04
(PID.TID 0000.0001)  cg2d: iter=    31 ; resid.=  5.33845129746458E-04
(PID.TID 0000.0001)  cg2d: iter=    32 ; resid.=  4.25381823795036E-04
(PID.TID 0000.0001)  cg2d: iter=    33 ; resid.=  3.65842210240742E-04
(PID.TID 0000.0001)  cg2d: iter=    34 ; resid.=  3.05589391690114E-04
(PID.TID 0000.0001)  cg2d: iter=    35 ; resid.=  2.55713766676531E-04
(PID.TID 0000.0001)  cg2d: iter=    36 ; resid.=  2.14928180806728E-04
(PID.TID 0000.0001)  cg2d: iter=    37 ; resid.=  1.78363907050640E-04
(PID.TID 0000.0001)  cg2d: iter=    38 ; resid.=  1.39946636389578E-04
(PID.TID 0000.0001)  cg2d: iter=    39 ; resid.=  1.11743138814084E-04
(PID.TID 0000.0001)  cg2d: iter=    40 ; resid.=  9.07885900306950E-05
(PID.TID 0000.0001)  cg2d: iter=    41 ; resid.=  7.75201226360133E-05
(PID.TID 0000.0001)  cg2d: iter=    42 ; resid.=  6.83424475172863E-05
(PID.TID 0000.0001)  cg2d: iter=    43 ; resid.=  6.13326358054995E-05
(PID.TID 0000.0001)  cg2d: iter=    44 ; resid.=  5.06469462828129E-05
(PID.TID 0000.0001)  cg2d: iter=    45 ; resid.=  4.05020536731697E-05
(PID.TID 0000.0001)  cg2d: iter=    46 ; resid.=  3.20452825920230E-05
(PID.TID 0000.0001)  cg2d: iter=    47 ; resid.=  2.68342484715034E-05
(PID.TID 0000.0001)  cg2d: iter=    48 ; resid.=  2.33590866624630E-05
(PID.TID 0000.0001)  cg2d: iter=    49 ; resid.=  1.82490642155289E-05
(PID.TID 0000.0001)  cg2d: iter=    50 ; resid.=  1.32332139377947E-05
(PID.TID 0000.0001)  cg2d: iter=    51 ; resid.=  1.01191736047679E-05
(PID.TID 0000.0001)  cg2d: iter=    52 ; resid.=  8.12547626444325E-06
(PID.TID 0000.0001)  cg2d: iter=    53 ; resid.=  6.83232499283086E-06
(PID.TID 0000.0001)  cg2d: iter=    54 ; resid.=  5.47584883673143E-06
(PID.TID 0000.0001)  cg2d: iter=    55 ; resid.=  4.68282215549352E-06
(PID.TID 0000.0001)  cg2d: iter=    56 ; resid.=  3.97196384424333E-06
(PID.TID 0000.0001)  cg2d: iter=    57 ; resid.=  3.60139836626488E-06
(PID.TID 0000.0001)  cg2d: iter=    58 ; resid.=  2.68016913359608E-06
(PID.TID 0000.0001)  cg2d: iter=    59 ; resid.=  2.09872925535199E-06
(PID.TID 0000.0001)  cg2d: iter=    60 ; resid.=  1.64100142456600E-06
(PID.TID 0000.0001)  cg2d: iter=    61 ; resid.=  1.29790855421211E-06
(PID.TID 0000.0001)  cg2d: iter=    62 ; resid.=  9.71402741313141E-07
(PID.TID 0000.0001)  cg2d: iter=    63 ; resid.=  8.26791144777708E-07
(PID.TID 0000.0001)  cg2d: iter=    64 ; resid.=  6.76113357994138E-07
(PID.TID 0000.0001)  cg2d: iter=    65 ; resid.=  5.73239681375231E-07
(PID.TID 0000.0001)  cg2d: iter=    66 ; resid.=  4.74969396596296E-07
(PID.TID 0000.0001)  cg2d: iter=    67 ; resid.=  4.31122644412049E-07
(PID.TID 0000.0001)  cg2d: iter=    68 ; resid.=  3.65352110561392E-07
(PID.TID 0000.0001)  cg2d: iter=    69 ; resid.=  3.09034626843206E-07
(PID.TID 0000.0001)  cg2d: iter=    70 ; resid.=  2.46568942815652E-07
(PID.TID 0000.0001)  cg2d: iter=    71 ; resid.=  2.00791588077866E-07
(PID.TID 0000.0001)  cg2d: iter=    72 ; resid.=  1.73092972281227E-07
(PID.TID 0000.0001)  cg2d: iter=    73 ; resid.=  1.42950051448414E-07
(PID.TID 0000.0001)  cg2d: iter=    74 ; resid.=  1.11897195888140E-07
(PID.TID 0000.0001)  cg2d: iter=    75 ; resid.=  8.25619326433951E-08
(PID.TID 0000.0001)  cg2d: iter=    76 ; resid.=  6.46402065581633E-08
(PID.TID 0000.0001)  cg2d: iter=    77 ; resid.=  5.42625848272359E-08
(PID.TID 0000.0001)  cg2d: iter=    78 ; resid.=  4.57242581350706E-08
(PID.TID 0000.0001)  cg2d: iter=    79 ; resid.=  4.23811744512625E-08
(PID.TID 0000.0001)  cg2d: iter=    80 ; resid.=  3.83906020285474E-08
(PID.TID 0000.0001)  cg2d: iter=    81 ; resid.=  3.47658452735969E-08
(PID.TID 0000.0001)  cg2d: iter=    82 ; resid.=  2.95099559835860E-08
(PID.TID 0000.0001)  cg2d: iter=    83 ; resid.=  2.46499608328778E-08
(PID.TID 0000.0001)  cg2d: iter=    84 ; resid.=  1.95043448468553E-08
(PID.TID 0000.0001)  cg2d: iter=    85 ; resid.=  1.36437642720838E-08
(PID.TID 0000.0001)  cg2d: iter=    86 ; resid.=  1.01077794316554E-08
(PID.TID 0000.0001)  cg2d: iter=    87 ; resid.=  8.50889324856935E-09
(PID.TID 0000.0001)  cg2d: iter=    88 ; resid.=  6.43597857020308E-09
(PID.TID 0000.0001)  cg2d: iter=    89 ; resid.=  5.12550690570556E-09
(PID.TID 0000.0001)  cg2d: iter=    90 ; resid.=  4.59284926220815E-09
(PID.TID 0000.0001)  cg2d: iter=    91 ; resid.=  3.67073173435278E-09
(PID.TID 0000.0001)  cg2d: iter=    92 ; resid.=  2.92201645911811E-09
(PID.TID 0000.0001)  cg2d: iter=    93 ; resid.=  2.13024469821410E-09
(PID.TID 0000.0001)  cg2d: iter=    94 ; resid.=  1.73373928110032E-09
(PID.TID 0000.0001)  cg2d: iter=    95 ; resid.=  1.36353132415208E-09
(PID.TID 0000.0001)  cg2d: iter=    96 ; resid.=  1.01162321005757E-09
(PID.TID 0000.0001)  cg2d: iter=    97 ; resid.=  7.92647015811707E-10
(PID.TID 0000.0001)  cg2d: iter=    98 ; resid.=  5.81628843447351E-10
(PID.TID 0000.0001)  cg2d: iter=    99 ; resid.=  4.25809184327998E-10
(PID.TID 0000.0001)  cg2d: iter=   100 ; resid.=  3.22761556330302E-10
(PID.TID 0000.0001)  cg2d: iter=   101 ; resid.=  2.38975114254954E-10
(PID.TID 0000.0001)  cg2d: iter=   102 ; resid.=  1.87497111657838E-10
(PID.TID 0000.0001)  cg2d: iter=   103 ; resid.=  1.53391624926864E-10
(PID.TID 0000.0001)  cg2d: iter=   104 ; resid.=  1.20367190088182E-10
(PID.TID 0000.0001)  cg2d: iter=   105 ; resid.=  1.03935597391916E-10
(PID.TID 0000.0001)  cg2d: iter=   106 ; resid.=  8.81204431292441E-11
(PID.TID 0000.0001)  cg2d: iter=   107 ; resid.=  6.79863826179929E-11
(PID.TID 0000.0001)  cg2d: iter=   108 ; resid.=  6.26324072409657E-11
(PID.TID 0000.0001)  cg2d: iter=   109 ; resid.=  5.03175180994203E-11
(PID.TID 0000.0001)  cg2d: iter=   110 ; resid.=  3.92244668535602E-11
(PID.TID 0000.0001)  cg2d: iter=   111 ; resid.=  3.37099522273560E-11
(PID.TID 0000.0001)  cg2d: iter=   112 ; resid.=  2.73860691357409E-11
(PID.TID 0000.0001)  cg2d: iter=   113 ; resid.=  2.32151205041560E-11
(PID.TID 0000.0001)  cg2d: iter=   114 ; resid.=  1.87429649303864E-11
(PID.TID 0000.0001)  cg2d: iter=   115 ; resid.=  1.50347692284422E-11
(PID.TID 0000.0001)  cg2d: iter=   116 ; resid.=  1.10306939713629E-11
(PID.TID 0000.0001)  cg2d: iter=   117 ; resid.=  8.42223896314351E-12
(PID.TID 0000.0001)  cg2d: iter=   118 ; resid.=  6.64576301442953E-12
(PID.TID 0000.0001)  cg2d: iter=   119 ; resid.=  4.95113382060118E-12
(PID.TID 0000.0001)  cg2d: iter=   120 ; resid.=  3.46898980502115E-12
(PID.TID 0000.0001)  cg2d: iter=   121 ; resid.=  2.65909169680346E-12
(PID.TID 0000.0001)  cg2d: iter=   122 ; resid.=  2.15209226506689E-12
(PID.TID 0000.0001)  cg2d: iter=   123 ; resid.=  1.64483178814678E-12
(PID.TID 0000.0001)  cg2d: iter=   124 ; resid.=  1.31567962995030E-12
(PID.TID 0000.0001)  cg2d: iter=   125 ; resid.=  1.03314198151683E-12
(PID.TID 0000.0001)  cg2d: iter=   126 ; resid.=  8.08489287604047E-13
(PID.TID 0000.0001)  cg2d: iter=   127 ; resid.=  5.86748219692849E-13
(PID.TID 0000.0001)  cg2d: iter=   128 ; resid.=  3.85995038810739E-13
(PID.TID 0000.0001)  cg2d: iter=   129 ; resid.=  2.75430610015582E-13
(PID.TID 0000.0001)  cg2d: iter=   130 ; resid.=  2.15469287381295E-13
(PID.TID 0000.0001)  cg2d: iter=   131 ; resid.=  1.64526565250075E-13
(PID.TID 0000.0001)  cg2d: iter=   132 ; resid.=  1.15744735296050E-13
(PID.TID 0000.0001)  cg2d: iter=   133 ; resid.=  8.44595806828182E-14
DEBUG_STATS_RL:    cg2d_x (SOLVE_FOR_PRESSURE)  min= -2.17204538459954E+01
DEBUG_STATS_RL:    cg2d_x (SOLVE_FOR_PRESSURE)  max=  1.16618259503301E+01
DEBUG_STATS_RL:    cg2d_x (SOLVE_FOR_PRESSURE) mean= -2.07763792355676E+00
DEBUG_STATS_RL:    cg2d_x (SOLVE_FOR_PRESSURE) S.D.=  8.68436823506472E+00
(PID.TID 0000.0001)      cg2d_init_res =   2.82454626043355E-01
(PID.TID 0000.0001)      cg2d_iters(min,last) =      -1     133
(PID.TID 0000.0001)      cg2d_last_res =   8.44595806828182E-14
(PID.TID 0000.0001) // =======================================================
(PID.TID 0000.0001) // Begin MONITOR dynamic field statistics
(PID.TID 0000.0001) // =======================================================
(PID.TID 0000.0001) %MON time_tsnumber                =                    78
(PID.TID 0000.0001) %MON time_secondsf                =   6.7392000000000E+06
(PID.TID 0000.0001) %MON dynstat_eta_max              =   1.1887692100235E+00
(PID.TID 0000.0001) %MON dynstat_eta_min              =  -2.2141135418955E+00
(PID.TID 0000.0001) %MON dynstat_eta_mean             =  -5.4135306746787E-03
(PID.TID 0000.0001) %MON dynstat_eta_sd               =   7.9768668052986E-01
(PID.TID 0000.0001) %MON dynstat_eta_del2             =   2.5043141708988E-03
(PID.TID 0000.0001) %MON dynstat_uvel_max             =   1.5060998486396E-01
(PID.TID 0000.0001) %MON dynstat_uvel_min             =  -1.2350575647752E-01
(PID.TID 0000.0001) %MON dynstat_uvel_mean            =   2.5042013021485E-03
(PID.TID 0000.0001) %MON dynstat_uvel_sd              =   1.6713889564920E-02
(PID.TID 0000.0001) %MON dynstat_uvel_del2            =   1.1339935679074E-04
(PID.TID 0000.0001) %MON dynstat_vvel_max             =   1.4896074916858E-01
(PID.TID 0000.0001) %MON dynstat_vvel_min             =  -8.7322596397662E-02
(PID.TID 0000.0001) %MON dynstat_vvel_mean            =  -9.7162694416522E-05
(PID.TID 0000.0001) %MON dynstat_vvel_sd              =   9.1606197780640E-03
(PID.TID 0000.0001) %MON dynstat_vvel_del2            =   8.1512403989386E-05
(PID.TID 0000.0001) %MON dynstat_wvel_max             =   2.0229613119221E-04
(PID.TID 0000.0001) %MON dynstat_wvel_min             =  -8.1808054573581E-05
(PID.TID 0000.0001) %MON dynstat_wvel_mean            =   1.0618648448812E-22
(PID.TID 0000.0001) %MON dynstat_wvel_sd              =   1.2554242050847E-05
(PID.TID 0000.0001) %MON dynstat_wvel_del2            =   1.2407798038504E-07
(PID.TID 0000.0001) %MON dynstat_theta_max            =   3.0971636957587E+01
(PID.TID 0000.0001) %MON dynstat_theta_min            =  -1.9485712460447E+00
(PID.TID 0000.0001) %MON dynstat_theta_mean           =   3.6438410357368E+00
(PID.TID 0000.0001) %MON dynstat_theta_sd             =   4.4269176281064E+00
(PID.TID 0000.0001) %MON dynstat_theta_del2           =   4.8689972225441E-03
(PID.TID 0000.0001) %MON dynstat_salt_max             =   3.7484998549810E+01
(PID.TID 0000.0001) %MON dynstat_salt_min             =   2.9921550614591E+01
(PID.TID 0000.0001) %MON dynstat_salt_mean            =   3.4738029410415E+01
(PID.TID 0000.0001) %MON dynstat_salt_sd              =   2.9661953681258E-01
(PID.TID 0000.0001) %MON dynstat_salt_del2            =   9.9387947114328E-04
(PID.TID 0000.0001) %MON dynstat_sst_max              =   3.0971636957587E+01
(PID.TID 0000.0001) %MON dynstat_sst_min              =  -1.9485712460447E+00
(PID.TID 0000.0001) %MON dynstat_sst_mean             =   1.9078403103051E+01
(PID.TID 0000.0001) %MON dynstat_sst_sd               =   9.1647709797054E+00
(PID.TID 0000.0001) %MON dynstat_sst_del2             =   2.8833534263311E-02
(PID.TID 0000.0001) %MON dynstat_sss_max              =   3.7477587636633E+01
(PID.TID 0000.0001) %MON dynstat_sss_min              =   2.9921550614591E+01
(PID.TID 0000.0001) %MON dynstat_sss_mean             =   3.4858463876487E+01
(PID.TID 0000.0001) %MON dynstat_sss_sd               =   9.8643410397041E-01
(PID.TID 0000.0001) %MON dynstat_sss_del2             =   8.1818327534403E-03
(PID.TID 0000.0001) %MON forcing_qnet_max             =   2.6509722086589E+02
(PID.TID 0000.0001) %MON forcing_qnet_min             =  -1.6299959818522E+02
(PID.TID 0000.0001) %MON forcing_qnet_mean            =  -6.4709931322053E+00
(PID.TID 0000.0001) %MON forcing_qnet_sd              =   4.4694693234620E+01
(PID.TID 0000.0001) %MON forcing_qnet_del2            =   8.3727990364500E-01
(PID.TID 0000.0001) %MON forcing_qsw_max              =   0.0000000000000E+00
(PID.TID 0000.0001) %MON forcing_qsw_min              =   0.0000000000000E+00
(PID.TID 0000.0001) %MON forcing_qsw_mean             =   0.0000000000000E+00
(PID.TID 0000.0001) %MON forcing_qsw_sd               =   0.0000000000000E+00
(PID.TID 0000.0001) %MON forcing_qsw_del2             =   0.0000000000000E+00
(PID.TID 0000.0001) %MON forcing_empmr_max            =   6.8916479752564E-05
(PID.TID 0000.0001) %MON forcing_empmr_min            =  -8.3294109742837E-05
(PID.TID 0000.0001) %MON forcing_empmr_mean           =   5.0582032402356E-07
(PID.TID 0000.0001) %MON forcing_empmr_sd             =   2.6146601074219E-05
(PID.TID 0000.0001) %MON forcing_empmr_del2           =   3.6519434745887E-07
(PID.TID 0000.0001) %MON forcing_fu_max               =   3.5583882729212E-01
(PID.TID 0000.0001) %MON forcing_fu_min               =  -3.9042256474495E-01
(PID.TID 0000.0001) %MON forcing_fu_mean              =   2.0202345106522E-02
(PID.TID 0000.0001) %MON forcing_fu_sd                =   1.0159012040920E-01
(PID.TID 0000.0001) %MON forcing_fu_del2              =   8.3058122505654E-04
(PID.TID 0000.0001) %MON forcing_fv_max               =   1.8310834368070E-01
(PID.TID 0000.0001) %MON forcing_fv_min               =  -1.8651620348295E-01
(PID.TID 0000.0001) %MON forcing_fv_mean              =  -7.4566220952985E-03
(PID.TID 0000.0001) %MON forcing_fv_sd                =   4.1854188278217E-02
(PID.TID 0000.0001) %MON forcing_fv_del2              =   4.8859436838041E-04
(PID.TID 0000.0001) %MON trAdv_CFL_u_max              =   4.3236329138009E-02
(PID.TID 0000.0001) %MON trAdv_CFL_v_max              =   2.9278511724097E-02
(PID.TID 0000.0001) %MON trAdv_CFL_w_max              =   4.1451211346678E-02
(PID.TID 0000.0001) %MON advcfl_uvel_max              =   4.1560149027188E-02
(PID.TID 0000.0001) %MON advcfl_vvel_max              =   2.8940684520264E-02
(PID.TID 0000.0001) %MON advcfl_wvel_max              =   4.7885988315088E-02
(PID.TID 0000.0001) %MON advcfl_W_hf_max              =   5.1407016867668E-02
(PID.TID 0000.0001) %MON pe_b_mean                    =   8.1426521604595E-04
(PID.TID 0000.0001) %MON ke_max                       =   1.5814123254702E-02
(PID.TID 0000.0001) %MON ke_mean                      =   1.6744205611674E-04
(PID.TID 0000.0001) %MON ke_vol                       =   1.3226782436723E+18
(PID.TID 0000.0001) %MON vort_r_min                   =  -3.7749546761197E-07
(PID.TID 0000.0001) %MON vort_r_max                   =   4.0719861001692E-07
(PID.TID 0000.0001) %MON vort_a_mean                  =  -2.5274806608334E-05
(PID.TID 0000.0001) %MON vort_a_sd                    =   7.3604673543776E-05
(PID.TID 0000.0001) %MON vort_p_mean                  =  -3.1845654805204E-05
(PID.TID 0000.0001) %MON vort_p_sd                    =   1.3162552467474E-04
(PID.TID 0000.0001) %MON surfExpan_theta_mean         =   1.0280288383169E-07
(PID.TID 0000.0001) %MON surfExpan_salt_mean          =  -4.0682825047752E-09
(PID.TID 0000.0001) // =======================================================
(PID.TID 0000.0001) // End MONITOR dynamic field statistics
(PID.TID 0000.0001) // =======================================================
 EXTERNAL_FIELDS_LOAD,        78 : iP,iLd,i0,i1=    3    4    3    4 ; Wght=  0.9000000000  0.1000000000
 EXTERNAL_FIELDS_LOAD: (fu0,1),fu,fv= -2.7199E-02 -3.7252E-02 -2.8204E-02 -4.0419E-03
 EXTERNAL_FIELDS_LOAD: SST,SSS,Q,E-P= -1.6198E-01  3.4578E+01  2.0427E+02  8.9496E-06
DEBUG_STATS_RL:          Uvel (THERMODYNAMICS)  min= -1.23505756477522E-01
DEBUG_STATS_RL:          Uvel (THERMODYNAMICS)  max=  1.50609984863963E-01
DEBUG_STATS_RL:          Uvel (THERMODYNAMICS) mean=  6.40796477325203E-03
DEBUG_STATS_RL:          Uvel (THERMODYNAMICS) S.D.=  2.39737261799822E-02
DEBUG_STATS_RL:          Vvel (THERMODYNAMICS)  min= -8.73225963976618E-02
DEBUG_STATS_RL:          Vvel (THERMODYNAMICS)  max=  1.48960749168584E-01
DEBUG_STATS_RL:          Vvel (THERMODYNAMICS) mean=  9.01962223443951E-04
DEBUG_STATS_RL:          Vvel (THERMODYNAMICS) S.D.=  1.43493554269391E-02
DEBUG_STATS_RL:          Wvel (THERMODYNAMICS)  min= -8.18080545735812E-05
DEBUG_STATS_RL:          Wvel (THERMODYNAMICS)  max=  2.02296131192214E-04
DEBUG_STATS_RL:          Wvel (THERMODYNAMICS) mean= -2.39936387553727E-09
DEBUG_STATS_RL:          Wvel (THERMODYNAMICS) S.D.=  1.10297909274957E-05
DEBUG_STATS_RL:         Theta (THERMODYNAMICS)  min= -1.94742714636340E+00
DEBUG_STATS_RL:         Theta (THERMODYNAMICS)  max=  3.09936950075765E+01
DEBUG_STATS_RL:         Theta (THERMODYNAMICS) mean=  3.24117990828074E+00
DEBUG_STATS_RL:         Theta (THERMODYNAMICS) S.D.=  5.88595188725726E+00
DEBUG_STATS_RL:          Salt (THERMODYNAMICS)  min=  2.00000000000000E-02
DEBUG_STATS_RL:          Salt (THERMODYNAMICS)  max=  3.74846324355378E+01
DEBUG_STATS_RL:          Salt (THERMODYNAMICS) mean=  1.88647945908560E+01
DEBUG_STATS_RL:          Salt (THERMODYNAMICS) S.D.=  1.73003409058059E+01
DEBUG_STATS_RL:         GtNm1 (THERMODYNAMICS)  min= -2.70612914484761E-06
DEBUG_STATS_RL:         GtNm1 (THERMODYNAMICS)  max=  1.99572535894537E-06
DEBUG_STATS_RL:         GtNm1 (THERMODYNAMICS) mean=  5.26753023605775E-10
DEBUG_STATS_RL:         GtNm1 (THERMODYNAMICS) S.D.=  1.53831055515870E-07
DEBUG_STATS_RL:         GsNm1 (THERMODYNAMICS)  min= -2.74516572820297E-07
DEBUG_STATS_RL:         GsNm1 (THERMODYNAMICS)  max=  3.02555110907452E-07
DEBUG_STATS_RL:         GsNm1 (THERMODYNAMICS) mean=  5.18752136770646E-11
DEBUG_STATS_RL:         GsNm1 (THERMODYNAMICS) S.D.=  1.40645554174097E-08
DEBUG_STATS_RL:                EtaN (DYNAMICS)  min= -2.21411354189552E+00
DEBUG_STATS_RL:                EtaN (DYNAMICS)  max=  1.18876921002352E+00
DEBUG_STATS_RL:                EtaN (DYNAMICS) mean= -2.11787759791720E-01
DEBUG_STATS_RL:                EtaN (DYNAMICS) S.D.=  8.85256700822100E-01
DEBUG_STATS_RL:                Uvel (DYNAMICS)  min= -1.23505756477522E-01
DEBUG_STATS_RL:                Uvel (DYNAMICS)  max=  1.50609984863963E-01
DEBUG_STATS_RL:                Uvel (DYNAMICS) mean=  6.40796477325203E-03
DEBUG_STATS_RL:                Uvel (DYNAMICS) S.D.=  2.39737261799822E-02
DEBUG_STATS_RL:                Vvel (DYNAMICS)  min= -8.73225963976618E-02
DEBUG_STATS_RL:                Vvel (DYNAMICS)  max=  1.48960749168584E-01
DEBUG_STATS_RL:                Vvel (DYNAMICS) mean=  9.01962223443951E-04
DEBUG_STATS_RL:                Vvel (DYNAMICS) S.D.=  1.43493554269391E-02
DEBUG_STATS_RL:                Wvel (DYNAMICS)  min= -8.18080545735812E-05
DEBUG_STATS_RL:                Wvel (DYNAMICS)  max=  2.02296131192214E-04
DEBUG_STATS_RL:                Wvel (DYNAMICS) mean= -2.39936387553727E-09
DEBUG_STATS_RL:                Wvel (DYNAMICS) S.D.=  1.10297909274957E-05
DEBUG_STATS_RL:               Theta (DYNAMICS)  min= -1.94742714636340E+00
DEBUG_STATS_RL:               Theta (DYNAMICS)  max=  3.09936950075765E+01
DEBUG_STATS_RL:               Theta (DYNAMICS) mean=  3.24117990828074E+00
DEBUG_STATS_RL:               Theta (DYNAMICS) S.D.=  5.88595188725726E+00
DEBUG_STATS_RL:                Salt (DYNAMICS)  min=  2.00000000000000E-02
DEBUG_STATS_RL:                Salt (DYNAMICS)  max=  3.74846324355378E+01
DEBUG_STATS_RL:                Salt (DYNAMICS) mean=  1.88647945908560E+01
DEBUG_STATS_RL:                Salt (DYNAMICS) S.D.=  1.73003409058059E+01
DEBUG_STATS_RL:                  Gu (DYNAMICS)  min= -1.22838611858435E-01
DEBUG_STATS_RL:                  Gu (DYNAMICS)  max=  1.59266196127417E-01
DEBUG_STATS_RL:                  Gu (DYNAMICS) mean=  6.41750919072766E-03
DEBUG_STATS_RL:                  Gu (DYNAMICS) S.D.=  2.43136825045025E-02
DEBUG_STATS_RL:                  Gv (DYNAMICS)  min= -9.46556549618683E-02
DEBUG_STATS_RL:                  Gv (DYNAMICS)  max=  1.49063574814530E-01
DEBUG_STATS_RL:                  Gv (DYNAMICS) mean=  3.62475615602418E-03
DEBUG_STATS_RL:                  Gv (DYNAMICS) S.D.=  1.58022783554727E-02
DEBUG_STATS_RL:               GuNm1 (DYNAMICS)  min= -1.09202766193316E-05
DEBUG_STATS_RL:               GuNm1 (DYNAMICS)  max=  9.33670618465452E-06
DEBUG_STATS_RL:               GuNm1 (DYNAMICS) mean=  9.48529749560155E-09
DEBUG_STATS_RL:               GuNm1 (DYNAMICS) S.D.=  1.22704965856291E-06
DEBUG_STATS_RL:               GvNm1 (DYNAMICS)  min= -9.77760589211930E-06
DEBUG_STATS_RL:               GvNm1 (DYNAMICS)  max=  1.55435890984962E-05
DEBUG_STATS_RL:               GvNm1 (DYNAMICS) mean=  7.38159084116471E-07
DEBUG_STATS_RL:               GvNm1 (DYNAMICS) S.D.=  2.62456488814414E-06
DEBUG_STATS_RL:               GtNm1 (DYNAMICS)  min= -2.70612914484761E-06
DEBUG_STATS_RL:               GtNm1 (DYNAMICS)  max=  1.99572535894537E-06
DEBUG_STATS_RL:               GtNm1 (DYNAMICS) mean=  5.26753023605775E-10
DEBUG_STATS_RL:               GtNm1 (DYNAMICS) S.D.=  1.53831055515870E-07
DEBUG_STATS_RL:               GsNm1 (DYNAMICS)  min= -2.74516572820297E-07
DEBUG_STATS_RL:               GsNm1 (DYNAMICS)  max=  3.02555110907452E-07
DEBUG_STATS_RL:               GsNm1 (DYNAMICS) mean=  5.18752136770646E-11
DEBUG_STATS_RL:               GsNm1 (DYNAMICS) S.D.=  1.40645554174097E-08
DEBUG_STATS_RL:    cg2d_b (SOLVE_FOR_PRESSURE)  min= -2.40848350886997E+04
DEBUG_STATS_RL:    cg2d_b (SOLVE_FOR_PRESSURE)  max=  2.75510104935617E+04
DEBUG_STATS_RL:    cg2d_b (SOLVE_FOR_PRESSURE) mean=  5.22714913341221E+00
DEBUG_STATS_RL:    cg2d_b (SOLVE_FOR_PRESSURE) S.D.=  4.04842653153525E+03
 cg2d: Sum(rhs),rhsMax =   4.39216203945624E-01  1.80962413500101E+00
(PID.TID 0000.0001)  cg2d: iter=     1 ; resid.=  1.29250207373258E-01
(PID.TID 0000.0001)  cg2d: iter=     2 ; resid.=  8.61725283330071E-02
(PID.TID 0000.0001)  cg2d: iter=     3 ; resid.=  7.34912330847105E-02
(PID.TID 0000.0001)  cg2d: iter=     4 ; resid.=  6.51486823573810E-02
(PID.TID 0000.0001)  cg2d: iter=     5 ; resid.=  4.60948697059397E-02
(PID.TID 0000.0001)  cg2d: iter=     6 ; resid.=  3.37783085567066E-02
(PID.TID 0000.0001)  cg2d: iter=     7 ; resid.=  2.68434126549351E-02
(PID.TID 0000.0001)  cg2d: iter=     8 ; resid.=  2.25862270294301E-02
(PID.TID 0000.0001)  cg2d: iter=     9 ; resid.=  1.94280965339476E-02
(PID.TID 0000.0001)  cg2d: iter=    10 ; resid.=  1.68961545710389E-02
(PID.TID 0000.0001)  cg2d: iter=    11 ; resid.=  1.46859695187446E-02
(PID.TID 0000.0001)  cg2d: iter=    12 ; resid.=  1.28804680276706E-02
(PID.TID 0000.0001)  cg2d: iter=    13 ; resid.=  1.06911866308544E-02
(PID.TID 0000.0001)  cg2d: iter=    14 ; resid.=  9.39889972297108E-03
(PID.TID 0000.0001)  cg2d: iter=    15 ; resid.=  8.41756677854854E-03
(PID.TID 0000.0001)  cg2d: iter=    16 ; resid.=  6.85057651888474E-03
(PID.TID 0000.0001)  cg2d: iter=    17 ; resid.=  5.88647755744184E-03
(PID.TID 0000.0001)  cg2d: iter=    18 ; resid.=  5.16731009932342E-03
(PID.TID 0000.0001)  cg2d: iter=    19 ; resid.=  4.28646356311416E-03
(PID.TID 0000.0001)  cg2d: iter=    20 ; resid.=  3.69866515518677E-03
(PID.TID 0000.0001)  cg2d: iter=    21 ; resid.=  2.96385924058871E-03
(PID.TID 0000.0001)  cg2d: iter=    22 ; resid.=  2.70540959648255E-03
(PID.TID 0000.0001)  cg2d: iter=    23 ; resid.=  2.24247344333841E-03
(PID.TID 0000.0001)  cg2d: iter=    24 ; resid.=  1.71649316317897E-03
(PID.TID 0000.0001)  cg2d: iter=    25 ; resid.=  1.38316413881751E-03
(PID.TID 0000.0001)  cg2d: iter=    26 ; resid.=  1.15716256180644E-03
(PID.TID 0000.0001)  cg2d: iter=    27 ; resid.=  9.97142961149345E-04
(PID.TID 0000.0001)  cg2d: iter=    28 ; resid.=  8.62664090148825E-04
(PID.TID 0000.0001)  cg2d: iter=    29 ; resid.=  7.64806625132137E-04
(PID.TID 0000.0001)  cg2d: iter=    30 ; resid.=  6.47299010954736E-04
(PID.TID 0000.0001)  cg2d: iter=    31 ; resid.=  5.39860040835606E-04
(PID.TID 0000.0001)  cg2d: iter=    32 ; resid.=  4.28129421733528E-04
(PID.TID 0000.0001)  cg2d: iter=    33 ; resid.=  3.58991027930430E-04
(PID.TID 0000.0001)  cg2d: iter=    34 ; resid.=  2.90546116443781E-04
(PID.TID 0000.0001)  cg2d: iter=    35 ; resid.=  2.36319763091462E-04
(PID.TID 0000.0001)  cg2d: iter=    36 ; resid.=  1.93956433060903E-04
(PID.TID 0000.0001)  cg2d: iter=    37 ; resid.=  1.53929334003437E-04
(PID.TID 0000.0001)  cg2d: iter=    38 ; resid.=  1.15396197852997E-04
(PID.TID 0000.0001)  cg2d: iter=    39 ; resid.=  8.79268116328461E-05
(PID.TID 0000.0001)  cg2d: iter=    40 ; resid.=  6.72700853626414E-05
(PID.TID 0000.0001)  cg2d: iter=    41 ; resid.=  5.35409298675782E-05
(PID.TID 0000.0001)  cg2d: iter=    42 ; resid.=  4.50068557466290E-05
(PID.TID 0000.0001)  cg2d: iter=    43 ; resid.=  4.04790045070391E-05
(PID.TID 0000.0001)  cg2d: iter=    44 ; resid.=  3.48717026592111E-05
(PID.TID 0000.0001)  cg2d: iter=    45 ; resid.=  2.90651358807016E-05
(PID.TID 0000.0001)  cg2d: iter=    46 ; resid.=  2.43005448386429E-05
(PID.TID 0000.0001)  cg2d: iter=    47 ; resid.=  2.13275148533428E-05
(PID.TID 0000.0001)  cg2d: iter=    48 ; resid.=  2.01631014227093E-05
(PID.TID 0000.0001)  cg2d: iter=    49 ; resid.=  1.68196800060005E-05
(PID.TID 0000.0001)  cg2d: iter=    50 ; resid.=  1.27784272671038E-05
(PID.TID 0000.0001)  cg2d: iter=    51 ; resid.=  1.01075405545861E-05
(PID.TID 0000.0001)  cg2d: iter=    52 ; resid.=  8.40031785384863E-06
(PID.TID 0000.0001)  cg2d: iter=    53 ; resid.=  7.35345537918783E-06
(PID.TID 0000.0001)  cg2d: iter=    54 ; resid.=  6.00162521820466E-06
(PID.TID 0000.0001)  cg2d: iter=    55 ; resid.=  5.21875486274350E-06
(PID.TID 0000.0001)  cg2d: iter=    56 ; resid.=  4.40906516811911E-06
(PID.TID 0000.0001)  cg2d: iter=    57 ; resid.=  3.99708064513909E-06
(PID.TID 0000.0001)  cg2d: iter=    58 ; resid.=  3.00503506033317E-06
(PID.TID 0000.0001)  cg2d: iter=    59 ; resid.=  2.32267406949724E-06
(PID.TID 0000.0001)  cg2d: iter=    60 ; resid.=  1.78856247968108E-06
(PID.TID 0000.0001)  cg2d: iter=    61 ; resid.=  1.38436802576087E-06
(PID.TID 0000.0001)  cg2d: iter=    62 ; resid.=  1.00453373228631E-06
(PID.TID 0000.0001)  cg2d: iter=    63 ; resid.=  7.97962937195419E-07
(PID.TID 0000.0001)  cg2d: iter=    64 ; resid.=  6.21004365283848E-07
(PID.TID 0000.0001)  cg2d: iter=    65 ; resid.=  4.99683465928277E-07
(PID.TID 0000.0001)  cg2d: iter=    66 ; resid.=  3.84506723467963E-07
(PID.TID 0000.0001)  cg2d: iter=    67 ; resid.=  3.22459060583631E-07
(PID.TID 0000.0001)  cg2d: iter=    68 ; resid.=  2.64919777043725E-07
(PID.TID 0000.0001)  cg2d: iter=    69 ; resid.=  2.24625790846158E-07
(PID.TID 0000.0001)  cg2d: iter=    70 ; resid.=  1.82948663423561E-07
(PID.TID 0000.0001)  cg2d: iter=    71 ; resid.=  1.50830258714551E-07
(PID.TID 0000.0001)  cg2d: iter=    72 ; resid.=  1.35385841978359E-07
(PID.TID 0000.0001)  cg2d: iter=    73 ; resid.=  1.15842686715209E-07
(PID.TID 0000.0001)  cg2d: iter=    74 ; resid.=  9.42519192896580E-08
(PID.TID 0000.0001)  cg2d: iter=    75 ; resid.=  6.97670970969706E-08
(PID.TID 0000.0001)  cg2d: iter=    76 ; resid.=  5.41872779389712E-08
(PID.TID 0000.0001)  cg2d: iter=    77 ; resid.=  4.40480447813527E-08
(PID.TID 0000.0001)  cg2d: iter=    78 ; resid.=  3.44026392267229E-08
(PID.TID 0000.0001)  cg2d: iter=    79 ; resid.=  2.88531084027075E-08
(PID.TID 0000.0001)  cg2d: iter=    80 ; resid.=  2.51885122897594E-08
(PID.TID 0000.0001)  cg2d: iter=    81 ; resid.=  2.27422388287953E-08
(PID.TID 0000.0001)  cg2d: iter=    82 ; resid.=  2.01925573559701E-08
(PID.TID 0000.0001)  cg2d: iter=    83 ; resid.=  1.76188525137789E-08
(PID.TID 0000.0001)  cg2d: iter=    84 ; resid.=  1.51260161216514E-08
(PID.TID 0000.0001)  cg2d: iter=    85 ; resid.=  1.10161971125262E-08
(PID.TID 0000.0001)  cg2d: iter=    86 ; resid.=  8.22600768038533E-09
(PID.TID 0000.0001)  cg2d: iter=    87 ; resid.=  7.01214036424333E-09
(PID.TID 0000.0001)  cg2d: iter=    88 ; resid.=  5.35713223693298E-09
(PID.TID 0000.0001)  cg2d: iter=    89 ; resid.=  4.13865643335264E-09
(PID.TID 0000.0001)  cg2d: iter=    90 ; resid.=  3.59436117787885E-09
(PID.TID 0000.0001)  cg2d: iter=    91 ; resid.=  2.92263610892485E-09
(PID.TID 0000.0001)  cg2d: iter=    92 ; resid.=  2.43757301350094E-09
(PID.TID 0000.0001)  cg2d: iter=    93 ; resid.=  1.76207079030854E-09
(PID.TID 0000.0001)  cg2d: iter=    94 ; resid.=  1.41357451307073E-09
(PID.TID 0000.0001)  cg2d: iter=    95 ; resid.=  1.14107966061739E-09
(PID.TID 0000.0001)  cg2d: iter=    96 ; resid.=  8.78202429879576E-10
(PID.TID 0000.0001)  cg2d: iter=    97 ; resid.=  7.30210294845668E-10
(PID.TID 0000.0001)  cg2d: iter=    98 ; resid.=  5.53299326740243E-10
(PID.TID 0000.0001)  cg2d: iter=    99 ; resid.=  4.29730761110920E-10
(PID.TID 0000.0001)  cg2d: iter=   100 ; resid.=  3.23040985284942E-10
(PID.TID 0000.0001)  cg2d: iter=   101 ; resid.=  2.40892430434435E-10
(PID.TID 0000.0001)  cg2d: iter=   102 ; resid.=  1.91693477846063E-10
(PID.TID 0000.0001)  cg2d: iter=   103 ; resid.=  1.56071948306779E-10
(PID.TID 0000.0001)  cg2d: iter=   104 ; resid.=  1.19748297460077E-10
(PID.TID 0000.0001)  cg2d: iter=   105 ; resid.=  1.00674351809203E-10
(PID.TID 0000.0001)  cg2d: iter=   106 ; resid.=  8.22070478067304E-11
(PID.TID 0000.0001)  cg2d: iter=   107 ; resid.=  6.36310732638922E-11
(PID.TID 0000.0001)  cg2d: iter=   108 ; resid.=  5.99832232061770E-11
(PID.TID 0000.0001)  cg2d: iter=   109 ; resid.=  4.86724793431896E-11
(PID.TID 0000.0001)  cg2d: iter=   110 ; resid.=  3.90906585368818E-11
(PID.TID 0000.0001)  cg2d: iter=   111 ; resid.=  3.45538212142816E-11
(PID.TID 0000.0001)  cg2d: iter=   112 ; resid.=  2.88049550912209E-11
(PID.TID 0000.0001)  cg2d: iter=   113 ; resid.=  2.43618218405399E-11
(PID.TID 0000.0001)  cg2d: iter=   114 ; resid.=  1.92861999436226E-11
(PID.TID 0000.0001)  cg2d: iter=   115 ; resid.=  1.46993375875839E-11
(PID.TID 0000.0001)  cg2d: iter=   116 ; resid.=  1.03302923140827E-11
(PID.TID 0000.0001)  cg2d: iter=   117 ; resid.=  7.57318404515543E-12
(PID.TID 0000.0001)  cg2d: iter=   118 ; resid.=  5.81807778218758E-12
(PID.TID 0000.0001)  cg2d: iter=   119 ; resid.=  4.28290093245788E-12
(PID.TID 0000.0001)  cg2d: iter=   120 ; resid.=  2.91932757545264E-12
(PID.TID 0000.0001)  cg2d: iter=   121 ; resid.=  2.16059759365860E-12
(PID.TID 0000.0001)  cg2d: iter=   122 ; resid.=  1.75693353970629E-12
(PID.TID 0000.0001)  cg2d: iter=   123 ; resid.=  1.41500867315612E-12
(PID.TID 0000.0001)  cg2d: iter=   124 ; resid.=  1.18807239488884E-12
(PID.TID 0000.0001)  cg2d: iter=   125 ; resid.=  9.69905292796404E-13
(PID.TID 0000.0001)  cg2d: iter=   126 ; resid.=  7.92102111674961E-13
(PID.TID 0000.0001)  cg2d: iter=   127 ; resid.=  5.78113025257734E-13
(PID.TID 0000.0001)  cg2d: iter=   128 ; resid.=  3.71396607479513E-13
(PID.TID 0000.0001)  cg2d: iter=   129 ; resid.=  2.56719841691683E-13
(PID.TID 0000.0001)  cg2d: iter=   130 ; resid.=  2.00438507455386E-13
(PID.TID 0000.0001)  cg2d: iter=   131 ; resid.=  1.56400442778669E-13
(PID.TID 0000.0001)  cg2d: iter=   132 ; resid.=  1.09931723656342E-13
(PID.TID 0000.0001)  cg2d: iter=   133 ; resid.=  7.52770436535930E-14
DEBUG_STATS_RL:    cg2d_x (SOLVE_FOR_PRESSURE)  min= -2.17307035317081E+01
DEBUG_STATS_RL:    cg2d_x (SOLVE_FOR_PRESSURE)  max=  1.16302314196056E+01
DEBUG_STATS_RL:    cg2d_x (SOLVE_FOR_PRESSURE) mean= -2.07901583867852E+00
DEBUG_STATS_RL:    cg2d_x (SOLVE_FOR_PRESSURE) S.D.=  8.65441537867911E+00
(PID.TID 0000.0001)      cg2d_init_res =   2.72422342292226E-01
(PID.TID 0000.0001)      cg2d_iters(min,last) =      -1     133
(PID.TID 0000.0001)      cg2d_last_res =   7.52770436535930E-14
(PID.TID 0000.0001) // =======================================================
(PID.TID 0000.0001) // Begin MONITOR dynamic field statistics
(PID.TID 0000.0001) // =======================================================
(PID.TID 0000.0001) %MON time_tsnumber                =                    79
(PID.TID 0000.0001) %MON time_secondsf                =   6.8256000000000E+06
(PID.TID 0000.0001) %MON dynstat_eta_max              =   1.1855485646897E+00
(PID.TID 0000.0001) %MON dynstat_eta_min              =  -2.2151583620498E+00
(PID.TID 0000.0001) %MON dynstat_eta_mean             =  -5.4538819756209E-03
(PID.TID 0000.0001) %MON dynstat_eta_sd               =   7.9375963781128E-01
(PID.TID 0000.0001) %MON dynstat_eta_del2             =   2.5161257170987E-03
(PID.TID 0000.0001) %MON dynstat_uvel_max             =   1.5450005676581E-01
(PID.TID 0000.0001) %MON dynstat_uvel_min             =  -1.2543394628587E-01
(PID.TID 0000.0001) %MON dynstat_uvel_mean            =   2.4972812116570E-03
(PID.TID 0000.0001) %MON dynstat_uvel_sd              =   1.6659632783632E-02
(PID.TID 0000.0001) %MON dynstat_uvel_del2            =   1.1397542054113E-04
(PID.TID 0000.0001) %MON dynstat_vvel_max             =   1.4627948908670E-01
(PID.TID 0000.0001) %MON dynstat_vvel_min             =  -9.2399533170364E-02
(PID.TID 0000.0001) %MON dynstat_vvel_mean            =  -7.6145621215529E-05
(PID.TID 0000.0001) %MON dynstat_vvel_sd              =   9.1621426488673E-03
(PID.TID 0000.0001) %MON dynstat_vvel_del2            =   8.1744627679571E-05
(PID.TID 0000.0001) %MON dynstat_wvel_max             =   2.1605627240447E-04
(PID.TID 0000.0001) %MON dynstat_wvel_min             =  -8.5163704215572E-05
(PID.TID 0000.0001) %MON dynstat_wvel_mean            =   4.1117874806702E-22
(PID.TID 0000.0001) %MON dynstat_wvel_sd              =   1.2518679735665E-05
(PID.TID 0000.0001) %MON dynstat_wvel_del2            =   1.2414764493528E-07
(PID.TID 0000.0001) %MON dynstat_theta_max            =   3.0993695007576E+01
(PID.TID 0000.0001) %MON dynstat_theta_min            =  -1.9474271463634E+00
(PID.TID 0000.0001) %MON dynstat_theta_mean           =   3.6438738429168E+00
(PID.TID 0000.0001) %MON dynstat_theta_sd             =   4.4270978412012E+00
(PID.TID 0000.0001) %MON dynstat_theta_del2           =   4.8664013751510E-03
(PID.TID 0000.0001) %MON dynstat_salt_max             =   3.7484632435538E+01
(PID.TID 0000.0001) %MON dynstat_salt_min             =   2.9923360187578E+01
(PID.TID 0000.0001) %MON dynstat_salt_mean            =   3.4738029664447E+01
(PID.TID 0000.0001) %MON dynstat_salt_sd              =   2.9662675651869E-01
(PID.TID 0000.0001) %MON dynstat_salt_del2            =   9.9425075119728E-04
(PID.TID 0000.0001) %MON dynstat_sst_max              =   3.0993695007576E+01
(PID.TID 0000.0001) %MON dynstat_sst_min              =  -1.9474271463634E+00
(PID.TID 0000.0001) %MON dynstat_sst_mean             =   1.9079400655375E+01
(PID.TID 0000.0001) %MON dynstat_sst_sd               =   9.1724100637427E+00
(PID.TID 0000.0001) %MON dynstat_sst_del2             =   2.8882435902116E-02
(PID.TID 0000.0001) %MON dynstat_sss_max              =   3.7478525191325E+01
(PID.TID 0000.0001) %MON dynstat_sss_min              =   2.9923360187578E+01
(PID.TID 0000.0001) %MON dynstat_sss_mean             =   3.4858467571009E+01
(PID.TID 0000.0001) %MON dynstat_sss_sd               =   9.8677640082675E-01
(PID.TID 0000.0001) %MON dynstat_sss_del2             =   8.1918556728193E-03
(PID.TID 0000.0001) %MON forcing_qnet_max             =   2.6039198608398E+02
(PID.TID 0000.0001) %MON forcing_qnet_min             =  -1.6257160186768E+02
(PID.TID 0000.0001) %MON forcing_qnet_mean            =  -6.0739567032357E+00
(PID.TID 0000.0001) %MON forcing_qnet_sd              =   4.3878157361251E+01
(PID.TID 0000.0001) %MON forcing_qnet_del2            =   8.3036174391227E-01
(PID.TID 0000.0001) %MON forcing_qsw_max              =   0.0000000000000E+00
(PID.TID 0000.0001) %MON forcing_qsw_min              =   0.0000000000000E+00
(PID.TID 0000.0001) %MON forcing_qsw_mean             =   0.0000000000000E+00
(PID.TID 0000.0001) %MON forcing_qsw_sd               =   0.0000000000000E+00
(PID.TID 0000.0001) %MON forcing_qsw_del2             =   0.0000000000000E+00
(PID.TID 0000.0001) %MON forcing_empmr_max            =   6.8820308740669E-05
(PID.TID 0000.0001) %MON forcing_empmr_min            =  -8.3308955822758E-05
(PID.TID 0000.0001) %MON forcing_empmr_mean           =   4.8337495919599E-07
(PID.TID 0000.0001) %MON forcing_empmr_sd             =   2.6080704866784E-05
(PID.TID 0000.0001) %MON forcing_empmr_del2           =   3.6465436122131E-07
(PID.TID 0000.0001) %MON forcing_fu_max               =   3.5498254299164E-01
(PID.TID 0000.0001) %MON forcing_fu_min               =  -3.9135563671589E-01
(PID.TID 0000.0001) %MON forcing_fu_mean              =   2.0075153009589E-02
(PID.TID 0000.0001) %MON forcing_fu_sd                =   1.0135250681503E-01
(PID.TID 0000.0001) %MON forcing_fu_del2              =   8.2249085228600E-04
(PID.TID 0000.0001) %MON forcing_fv_max               =   1.8301234245300E-01
(PID.TID 0000.0001) %MON forcing_fv_min               =  -1.8310849070549E-01
(PID.TID 0000.0001) %MON forcing_fv_mean              =  -7.4201454229255E-03
(PID.TID 0000.0001) %MON forcing_fv_sd                =   4.1471021405543E-02
(PID.TID 0000.0001) %MON forcing_fv_del2              =   4.7971991302382E-04
(PID.TID 0000.0001) %MON trAdv_CFL_u_max              =   4.1568590190698E-02
(PID.TID 0000.0001) %MON trAdv_CFL_v_max              =   2.8822750667006E-02
(PID.TID 0000.0001) %MON trAdv_CFL_w_max              =   4.4816373679506E-02
(PID.TID 0000.0001) %MON advcfl_uvel_max              =   4.0779160989040E-02
(PID.TID 0000.0001) %MON advcfl_vvel_max              =   2.8419758688595E-02
(PID.TID 0000.0001) %MON advcfl_wvel_max              =   5.1143183385607E-02
(PID.TID 0000.0001) %MON advcfl_W_hf_max              =   5.4903711575725E-02
(PID.TID 0000.0001) %MON pe_b_mean                    =   8.0626856129942E-04
(PID.TID 0000.0001) %MON ke_max                       =   1.5590492919858E-02
(PID.TID 0000.0001) %MON ke_mean                      =   1.6661457713187E-04
(PID.TID 0000.0001) %MON ke_vol                       =   1.3226782436723E+18
(PID.TID 0000.0001) %MON vort_r_min                   =  -3.8444526389377E-07
(PID.TID 0000.0001) %MON vort_r_max                   =   3.9858813479260E-07
(PID.TID 0000.0001) %MON vort_a_mean                  =  -2.5274806680550E-05
(PID.TID 0000.0001) %MON vort_a_sd                    =   7.3604666282188E-05
(PID.TID 0000.0001) %MON vort_p_mean                  =  -3.1845654896194E-05
(PID.TID 0000.0001) %MON vort_p_sd                    =   1.3162553049908E-04
(PID.TID 0000.0001) %MON surfExpan_theta_mean         =  -3.0404618579761E-08
(PID.TID 0000.0001) %MON surfExpan_salt_mean          =   2.9947673977642E-08
(PID.TID 0000.0001) // =======================================================
(PID.TID 0000.0001) // End MONITOR dynamic field statistics
(PID.TID 0000.0001) // =======================================================
 EXTERNAL_FIELDS_LOAD,        79 : iP,iLd,i0,i1=    3    4    3    4 ; Wght=  0.8666666667  0.1333333333
 EXTERNAL_FIELDS_LOAD: (fu0,1),fu,fv= -2.7199E-02 -3.7252E-02 -2.8539E-02 -5.1965E-03
 EXTERNAL_FIELDS_LOAD: SST,SSS,Q,E-P= -1.5467E-01  3.4578E+01  2.0056E+02  8.9059E-06
DEBUG_STATS_RL:          Uvel (THERMODYNAMICS)  min= -1.25433946285866E-01
DEBUG_STATS_RL:          Uvel (THERMODYNAMICS)  max=  1.54500056765805E-01
DEBUG_STATS_RL:          Uvel (THERMODYNAMICS) mean=  6.40825771927778E-03
DEBUG_STATS_RL:          Uvel (THERMODYNAMICS) S.D.=  2.38806823374025E-02
DEBUG_STATS_RL:          Vvel (THERMODYNAMICS)  min= -9.23995331703642E-02
DEBUG_STATS_RL:          Vvel (THERMODYNAMICS)  max=  1.46279489086698E-01
DEBUG_STATS_RL:          Vvel (THERMODYNAMICS) mean=  9.63973199686525E-04
DEBUG_STATS_RL:          Vvel (THERMODYNAMICS) S.D.=  1.43564415016037E-02
DEBUG_STATS_RL:          Wvel (THERMODYNAMICS)  min= -8.51637042155725E-05
DEBUG_STATS_RL:          Wvel (THERMODYNAMICS)  max=  2.16056272404473E-04
DEBUG_STATS_RL:          Wvel (THERMODYNAMICS) mean=  6.64074981215569E-09
DEBUG_STATS_RL:          Wvel (THERMODYNAMICS) S.D.=  1.10270263035965E-05
DEBUG_STATS_RL:         Theta (THERMODYNAMICS)  min= -1.94622081290826E+00
DEBUG_STATS_RL:         Theta (THERMODYNAMICS)  max=  3.10156772517218E+01
DEBUG_STATS_RL:         Theta (THERMODYNAMICS) mean=  3.24115141868200E+00
DEBUG_STATS_RL:         Theta (THERMODYNAMICS) S.D.=  5.88635008722086E+00
DEBUG_STATS_RL:          Salt (THERMODYNAMICS)  min=  2.00000000000000E-02
DEBUG_STATS_RL:          Salt (THERMODYNAMICS)  max=  3.74842713416252E+01
DEBUG_STATS_RL:          Salt (THERMODYNAMICS) mean=  1.88647983551723E+01
DEBUG_STATS_RL:          Salt (THERMODYNAMICS) S.D.=  1.73003451313710E+01
DEBUG_STATS_RL:         GtNm1 (THERMODYNAMICS)  min= -2.77757863037334E-06
DEBUG_STATS_RL:         GtNm1 (THERMODYNAMICS)  max=  1.82134233698063E-06
DEBUG_STATS_RL:         GtNm1 (THERMODYNAMICS) mean=  2.79165380098084E-10
DEBUG_STATS_RL:         GtNm1 (THERMODYNAMICS) S.D.=  1.52831634499916E-07
DEBUG_STATS_RL:         GsNm1 (THERMODYNAMICS)  min= -3.09072445579270E-07
DEBUG_STATS_RL:         GsNm1 (THERMODYNAMICS)  max=  4.34159377660653E-07
DEBUG_STATS_RL:         GsNm1 (THERMODYNAMICS) mean=  2.94255226896648E-11
DEBUG_STATS_RL:         GsNm1 (THERMODYNAMICS) S.D.=  1.41991476751278E-08
DEBUG_STATS_RL:                EtaN (DYNAMICS)  min= -2.21515836204978E+00
DEBUG_STATS_RL:                EtaN (DYNAMICS)  max=  1.18554856468969E+00
DEBUG_STATS_RL:                EtaN (DYNAMICS) mean= -2.11928220048778E-01
DEBUG_STATS_RL:                EtaN (DYNAMICS) S.D.=  8.82203402515713E-01
DEBUG_STATS_RL:                Uvel (DYNAMICS)  min= -1.25433946285866E-01
DEBUG_STATS_RL:                Uvel (DYNAMICS)  max=  1.54500056765805E-01
DEBUG_STATS_RL:                Uvel (DYNAMICS) mean=  6.40825771927778E-03
DEBUG_STATS_RL:                Uvel (DYNAMICS) S.D.=  2.38806823374025E-02
DEBUG_STATS_RL:                Vvel (DYNAMICS)  min= -9.23995331703642E-02
DEBUG_STATS_RL:                Vvel (DYNAMICS)  max=  1.46279489086698E-01
DEBUG_STATS_RL:                Vvel (DYNAMICS) mean=  9.63973199686525E-04
DEBUG_STATS_RL:                Vvel (DYNAMICS) S.D.=  1.43564415016037E-02
DEBUG_STATS_RL:                Wvel (DYNAMICS)  min= -8.51637042155725E-05
DEBUG_STATS_RL:                Wvel (DYNAMICS)  max=  2.16056272404473E-04
DEBUG_STATS_RL:                Wvel (DYNAMICS) mean=  6.64074981215569E-09
DEBUG_STATS_RL:                Wvel (DYNAMICS) S.D.=  1.10270263035965E-05
DEBUG_STATS_RL:               Theta (DYNAMICS)  min= -1.94622081290826E+00
DEBUG_STATS_RL:               Theta (DYNAMICS)  max=  3.10156772517218E+01
DEBUG_STATS_RL:               Theta (DYNAMICS) mean=  3.24115141868200E+00
DEBUG_STATS_RL:               Theta (DYNAMICS) S.D.=  5.88635008722086E+00
DEBUG_STATS_RL:                Salt (DYNAMICS)  min=  2.00000000000000E-02
DEBUG_STATS_RL:                Salt (DYNAMICS)  max=  3.74842713416252E+01
DEBUG_STATS_RL:                Salt (DYNAMICS) mean=  1.88647983551723E+01
DEBUG_STATS_RL:                Salt (DYNAMICS) S.D.=  1.73003451313710E+01
DEBUG_STATS_RL:                  Gu (DYNAMICS)  min= -1.24733992326271E-01
DEBUG_STATS_RL:                  Gu (DYNAMICS)  max=  1.62633644545235E-01
DEBUG_STATS_RL:                  Gu (DYNAMICS) mean=  6.41757133544030E-03
DEBUG_STATS_RL:                  Gu (DYNAMICS) S.D.=  2.42122034851093E-02
DEBUG_STATS_RL:                  Gv (DYNAMICS)  min= -9.92617600393300E-02
DEBUG_STATS_RL:                  Gv (DYNAMICS)  max=  1.46340638215740E-01
DEBUG_STATS_RL:                  Gv (DYNAMICS) mean=  3.64547243279270E-03
DEBUG_STATS_RL:                  Gv (DYNAMICS) S.D.=  1.58213306984668E-02
DEBUG_STATS_RL:               GuNm1 (DYNAMICS)  min= -1.09136286979602E-05
DEBUG_STATS_RL:               GuNm1 (DYNAMICS)  max=  9.31941279401043E-06
DEBUG_STATS_RL:               GuNm1 (DYNAMICS) mean=  9.82520789706843E-09
DEBUG_STATS_RL:               GuNm1 (DYNAMICS) S.D.=  1.22757232717594E-06
DEBUG_STATS_RL:               GvNm1 (DYNAMICS)  min= -9.69783767231343E-06
DEBUG_STATS_RL:               GvNm1 (DYNAMICS)  max=  1.55297199593464E-05
DEBUG_STATS_RL:               GvNm1 (DYNAMICS) mean=  7.37886716820398E-07
DEBUG_STATS_RL:               GvNm1 (DYNAMICS) S.D.=  2.62276017911633E-06
DEBUG_STATS_RL:               GtNm1 (DYNAMICS)  min= -2.77757863037334E-06
DEBUG_STATS_RL:               GtNm1 (DYNAMICS)  max=  1.82134233698063E-06
DEBUG_STATS_RL:               GtNm1 (DYNAMICS) mean=  2.79165380098084E-10
DEBUG_STATS_RL:               GtNm1 (DYNAMICS) S.D.=  1.52831634499916E-07
DEBUG_STATS_RL:               GsNm1 (DYNAMICS)  min= -3.09072445579270E-07
DEBUG_STATS_RL:               GsNm1 (DYNAMICS)  max=  4.34159377660653E-07
DEBUG_STATS_RL:               GsNm1 (DYNAMICS) mean=  2.94255226896648E-11
DEBUG_STATS_RL:               GsNm1 (DYNAMICS) S.D.=  1.41991476751278E-08
DEBUG_STATS_RL:    cg2d_b (SOLVE_FOR_PRESSURE)  min= -2.52257986957078E+04
DEBUG_STATS_RL:    cg2d_b (SOLVE_FOR_PRESSURE)  max=  2.82551232004779E+04
DEBUG_STATS_RL:    cg2d_b (SOLVE_FOR_PRESSURE) mean=  5.26402711485936E+00
DEBUG_STATS_RL:    cg2d_b (SOLVE_FOR_PRESSURE) S.D.=  4.05442456212949E+03
 cg2d: Sum(rhs),rhsMax =   4.31292501697248E-01  1.85587214280073E+00
(PID.TID 0000.0001)  cg2d: iter=     1 ; resid.=  1.26078245271436E-01
(PID.TID 0000.0001)  cg2d: iter=     2 ; resid.=  8.69472953118738E-02
(PID.TID 0000.0001)  cg2d: iter=     3 ; resid.=  7.71625176479372E-02
(PID.TID 0000.0001)  cg2d: iter=     4 ; resid.=  7.03250228950249E-02
(PID.TID 0000.0001)  cg2d: iter=     5 ; resid.=  5.11999782466103E-02
(PID.TID 0000.0001)  cg2d: iter=     6 ; resid.=  3.90479339189832E-02
(PID.TID 0000.0001)  cg2d: iter=     7 ; resid.=  3.32327806540073E-02
(PID.TID 0000.0001)  cg2d: iter=     8 ; resid.=  2.97473035414046E-02
(PID.TID 0000.0001)  cg2d: iter=     9 ; resid.=  2.59328554381717E-02
(PID.TID 0000.0001)  cg2d: iter=    10 ; resid.=  2.24864875353292E-02
(PID.TID 0000.0001)  cg2d: iter=    11 ; resid.=  1.88046982662214E-02
(PID.TID 0000.0001)  cg2d: iter=    12 ; resid.=  1.61752072235239E-02
(PID.TID 0000.0001)  cg2d: iter=    13 ; resid.=  1.31119168375149E-02
(PID.TID 0000.0001)  cg2d: iter=    14 ; resid.=  1.10244419615885E-02
(PID.TID 0000.0001)  cg2d: iter=    15 ; resid.=  9.32869051726403E-03
(PID.TID 0000.0001)  cg2d: iter=    16 ; resid.=  7.17388691950109E-03
(PID.TID 0000.0001)  cg2d: iter=    17 ; resid.=  6.00820729565559E-03
(PID.TID 0000.0001)  cg2d: iter=    18 ; resid.=  5.18526984703760E-03
(PID.TID 0000.0001)  cg2d: iter=    19 ; resid.=  4.24253052616527E-03
(PID.TID 0000.0001)  cg2d: iter=    20 ; resid.=  3.72520128738053E-03
(PID.TID 0000.0001)  cg2d: iter=    21 ; resid.=  3.00307808304832E-03
(PID.TID 0000.0001)  cg2d: iter=    22 ; resid.=  2.81971103524652E-03
(PID.TID 0000.0001)  cg2d: iter=    23 ; resid.=  2.42836977614389E-03
(PID.TID 0000.0001)  cg2d: iter=    24 ; resid.=  1.92067165458844E-03
(PID.TID 0000.0001)  cg2d: iter=    25 ; resid.=  1.59496349041282E-03
(PID.TID 0000.0001)  cg2d: iter=    26 ; resid.=  1.34065186662004E-03
(PID.TID 0000.0001)  cg2d: iter=    27 ; resid.=  1.17938303164107E-03
(PID.TID 0000.0001)  cg2d: iter=    28 ; resid.=  1.02917714016362E-03
(PID.TID 0000.0001)  cg2d: iter=    29 ; resid.=  8.96049675126839E-04
(PID.TID 0000.0001)  cg2d: iter=    30 ; resid.=  7.30089955942667E-04
(PID.TID 0000.0001)  cg2d: iter=    31 ; resid.=  5.82658002918774E-04
(PID.TID 0000.0001)  cg2d: iter=    32 ; resid.=  4.49403439458353E-04
(PID.TID 0000.0001)  cg2d: iter=    33 ; resid.=  3.67736200530000E-04
(PID.TID 0000.0001)  cg2d: iter=    34 ; resid.=  2.97897190938556E-04
(PID.TID 0000.0001)  cg2d: iter=    35 ; resid.=  2.45859157926170E-04
(PID.TID 0000.0001)  cg2d: iter=    36 ; resid.=  2.08645331685274E-04
(PID.TID 0000.0001)  cg2d: iter=    37 ; resid.=  1.73113452026297E-04
(PID.TID 0000.0001)  cg2d: iter=    38 ; resid.=  1.36932786913232E-04
(PID.TID 0000.0001)  cg2d: iter=    39 ; resid.=  1.13133184693445E-04
(PID.TID 0000.0001)  cg2d: iter=    40 ; resid.=  9.52220878079046E-05
(PID.TID 0000.0001)  cg2d: iter=    41 ; resid.=  8.29398014345054E-05
(PID.TID 0000.0001)  cg2d: iter=    42 ; resid.=  7.39222265344237E-05
(PID.TID 0000.0001)  cg2d: iter=    43 ; resid.=  6.88572678942591E-05
(PID.TID 0000.0001)  cg2d: iter=    44 ; resid.=  5.90297545220369E-05
(PID.TID 0000.0001)  cg2d: iter=    45 ; resid.=  4.79068329930683E-05
(PID.TID 0000.0001)  cg2d: iter=    46 ; resid.=  3.85502345983752E-05
(PID.TID 0000.0001)  cg2d: iter=    47 ; resid.=  3.16853442645398E-05
(PID.TID 0000.0001)  cg2d: iter=    48 ; resid.=  2.78047518379896E-05
(PID.TID 0000.0001)  cg2d: iter=    49 ; resid.=  2.16870904992172E-05
(PID.TID 0000.0001)  cg2d: iter=    50 ; resid.=  1.62807173521386E-05
(PID.TID 0000.0001)  cg2d: iter=    51 ; resid.=  1.30857991308235E-05
(PID.TID 0000.0001)  cg2d: iter=    52 ; resid.=  1.11289442400888E-05
(PID.TID 0000.0001)  cg2d: iter=    53 ; resid.=  1.00858642820821E-05
(PID.TID 0000.0001)  cg2d: iter=    54 ; resid.=  8.45725433373373E-06
(PID.TID 0000.0001)  cg2d: iter=    55 ; resid.=  7.58514618104678E-06
(PID.TID 0000.0001)  cg2d: iter=    56 ; resid.=  6.43545277134186E-06
(PID.TID 0000.0001)  cg2d: iter=    57 ; resid.=  5.70280955755356E-06
(PID.TID 0000.0001)  cg2d: iter=    58 ; resid.=  4.21067278479777E-06
(PID.TID 0000.0001)  cg2d: iter=    59 ; resid.=  3.20776343594373E-06
(PID.TID 0000.0001)  cg2d: iter=    60 ; resid.=  2.51830083128064E-06
(PID.TID 0000.0001)  cg2d: iter=    61 ; resid.=  1.98035853101231E-06
(PID.TID 0000.0001)  cg2d: iter=    62 ; resid.=  1.46567694671990E-06
(PID.TID 0000.0001)  cg2d: iter=    63 ; resid.=  1.14583574708414E-06
(PID.TID 0000.0001)  cg2d: iter=    64 ; resid.=  8.98094653003453E-07
(PID.TID 0000.0001)  cg2d: iter=    65 ; resid.=  7.33919592146408E-07
(PID.TID 0000.0001)  cg2d: iter=    66 ; resid.=  5.64541780497778E-07
(PID.TID 0000.0001)  cg2d: iter=    67 ; resid.=  4.59114400933407E-07
(PID.TID 0000.0001)  cg2d: iter=    68 ; resid.=  3.69647899473451E-07
(PID.TID 0000.0001)  cg2d: iter=    69 ; resid.=  3.08615909323922E-07
(PID.TID 0000.0001)  cg2d: iter=    70 ; resid.=  2.46244818008188E-07
(PID.TID 0000.0001)  cg2d: iter=    71 ; resid.=  1.98071191662074E-07
(PID.TID 0000.0001)  cg2d: iter=    72 ; resid.=  1.75164041265621E-07
(PID.TID 0000.0001)  cg2d: iter=    73 ; resid.=  1.46696053983175E-07
(PID.TID 0000.0001)  cg2d: iter=    74 ; resid.=  1.19083844764713E-07
(PID.TID 0000.0001)  cg2d: iter=    75 ; resid.=  9.26738032784465E-08
(PID.TID 0000.0001)  cg2d: iter=    76 ; resid.=  7.70788496289524E-08
(PID.TID 0000.0001)  cg2d: iter=    77 ; resid.=  6.68261493215786E-08
(PID.TID 0000.0001)  cg2d: iter=    78 ; resid.=  5.65157758181749E-08
(PID.TID 0000.0001)  cg2d: iter=    79 ; resid.=  4.95785299578427E-08
(PID.TID 0000.0001)  cg2d: iter=    80 ; resid.=  4.45776266521402E-08
(PID.TID 0000.0001)  cg2d: iter=    81 ; resid.=  3.85166520373491E-08
(PID.TID 0000.0001)  cg2d: iter=    82 ; resid.=  3.15035777866609E-08
(PID.TID 0000.0001)  cg2d: iter=    83 ; resid.=  2.52056178532566E-08
(PID.TID 0000.0001)  cg2d: iter=    84 ; resid.=  2.02222249410548E-08
(PID.TID 0000.0001)  cg2d: iter=    85 ; resid.=  1.40602032278323E-08
(PID.TID 0000.0001)  cg2d: iter=    86 ; resid.=  1.01955197924019E-08
(PID.TID 0000.0001)  cg2d: iter=    87 ; resid.=  8.48430115297905E-09
(PID.TID 0000.0001)  cg2d: iter=    88 ; resid.=  6.41603721545594E-09
(PID.TID 0000.0001)  cg2d: iter=    89 ; resid.=  4.99003793779886E-09
(PID.TID 0000.0001)  cg2d: iter=    90 ; resid.=  4.25924626660492E-09
(PID.TID 0000.0001)  cg2d: iter=    91 ; resid.=  3.43335487936659E-09
(PID.TID 0000.0001)  cg2d: iter=    92 ; resid.=  2.83694003623660E-09
(PID.TID 0000.0001)  cg2d: iter=    93 ; resid.=  1.99283720432586E-09
(PID.TID 0000.0001)  cg2d: iter=    94 ; resid.=  1.58662677334928E-09
(PID.TID 0000.0001)  cg2d: iter=    95 ; resid.=  1.30486062374717E-09
(PID.TID 0000.0001)  cg2d: iter=    96 ; resid.=  1.03227506262577E-09
(PID.TID 0000.0001)  cg2d: iter=    97 ; resid.=  8.96370189151420E-10
(PID.TID 0000.0001)  cg2d: iter=    98 ; resid.=  7.06861933794882E-10
(PID.TID 0000.0001)  cg2d: iter=    99 ; resid.=  6.00010160329777E-10
(PID.TID 0000.0001)  cg2d: iter=   100 ; resid.=  4.74035693067124E-10
(PID.TID 0000.0001)  cg2d: iter=   101 ; resid.=  3.77479932131118E-10
(PID.TID 0000.0001)  cg2d: iter=   102 ; resid.=  3.23042645533964E-10
(PID.TID 0000.0001)  cg2d: iter=   103 ; resid.=  2.65373234580116E-10
(PID.TID 0000.0001)  cg2d: iter=   104 ; resid.=  2.13163210278166E-10
(PID.TID 0000.0001)  cg2d: iter=   105 ; resid.=  1.81822194000687E-10
(PID.TID 0000.0001)  cg2d: iter=   106 ; resid.=  1.44094742450027E-10
(PID.TID 0000.0001)  cg2d: iter=   107 ; resid.=  1.11163328945372E-10
(PID.TID 0000.0001)  cg2d: iter=   108 ; resid.=  1.00367927227162E-10
(PID.TID 0000.0001)  cg2d: iter=   109 ; resid.=  7.40074727753909E-11
(PID.TID 0000.0001)  cg2d: iter=   110 ; resid.=  5.62546963959387E-11
(PID.TID 0000.0001)  cg2d: iter=   111 ; resid.=  4.61228554517368E-11
(PID.TID 0000.0001)  cg2d: iter=   112 ; resid.=  3.54843960185365E-11
(PID.TID 0000.0001)  cg2d: iter=   113 ; resid.=  2.77864324835062E-11
(PID.TID 0000.0001)  cg2d: iter=   114 ; resid.=  2.06168873356005E-11
(PID.TID 0000.0001)  cg2d: iter=   115 ; resid.=  1.51245768739186E-11
(PID.TID 0000.0001)  cg2d: iter=   116 ; resid.=  1.05883588256683E-11
(PID.TID 0000.0001)  cg2d: iter=   117 ; resid.=  7.86392920356244E-12
(PID.TID 0000.0001)  cg2d: iter=   118 ; resid.=  6.06976347644963E-12
(PID.TID 0000.0001)  cg2d: iter=   119 ; resid.=  4.52781603567332E-12
(PID.TID 0000.0001)  cg2d: iter=   120 ; resid.=  3.15258509770844E-12
(PID.TID 0000.0001)  cg2d: iter=   121 ; resid.=  2.38472491857139E-12
(PID.TID 0000.0001)  cg2d: iter=   122 ; resid.=  1.99637414042894E-12
(PID.TID 0000.0001)  cg2d: iter=   123 ; resid.=  1.62747008733888E-12
(PID.TID 0000.0001)  cg2d: iter=   124 ; resid.=  1.33277685768053E-12
(PID.TID 0000.0001)  cg2d: iter=   125 ; resid.=  1.02716672993279E-12
(PID.TID 0000.0001)  cg2d: iter=   126 ; resid.=  7.83470407553187E-13
(PID.TID 0000.0001)  cg2d: iter=   127 ; resid.=  5.39940129000499E-13
(PID.TID 0000.0001)  cg2d: iter=   128 ; resid.=  3.32608104110046E-13
(PID.TID 0000.0001)  cg2d: iter=   129 ; resid.=  2.20086456130371E-13
(PID.TID 0000.0001)  cg2d: iter=   130 ; resid.=  1.67863014231231E-13
(PID.TID 0000.0001)  cg2d: iter=   131 ; resid.=  1.32877659342402E-13
(PID.TID 0000.0001)  cg2d: iter=   132 ; resid.=  9.84984008329351E-14
DEBUG_STATS_RL:    cg2d_x (SOLVE_FOR_PRESSURE)  min= -2.16584759722926E+01
DEBUG_STATS_RL:    cg2d_x (SOLVE_FOR_PRESSURE)  max=  1.15323032034903E+01
DEBUG_STATS_RL:    cg2d_x (SOLVE_FOR_PRESSURE) mean= -2.07506436475183E+00
DEBUG_STATS_RL:    cg2d_x (SOLVE_FOR_PRESSURE) S.D.=  8.58427485904335E+00
(PID.TID 0000.0001)      cg2d_init_res =   2.63927019395170E-01
(PID.TID 0000.0001)      cg2d_iters(min,last) =      -1     132
(PID.TID 0000.0001)      cg2d_last_res =   9.84984008329351E-14
(PID.TID 0000.0001) // =======================================================
(PID.TID 0000.0001) // Begin MONITOR dynamic field statistics
(PID.TID 0000.0001) // =======================================================
(PID.TID 0000.0001) %MON time_tsnumber                =                    80
(PID.TID 0000.0001) %MON time_secondsf                =   6.9120000000000E+06
(PID.TID 0000.0001) %MON dynstat_eta_max              =   1.1755660757891E+00
(PID.TID 0000.0001) %MON dynstat_eta_min              =  -2.2077957158301E+00
(PID.TID 0000.0001) %MON dynstat_eta_mean             =  -5.4923595765414E-03
(PID.TID 0000.0001) %MON dynstat_eta_sd               =   7.8543446358113E-01
(PID.TID 0000.0001) %MON dynstat_eta_del2             =   2.5277046642306E-03
(PID.TID 0000.0001) %MON dynstat_uvel_max             =   1.5777602126070E-01
(PID.TID 0000.0001) %MON dynstat_uvel_min             =  -1.2732722832531E-01
(PID.TID 0000.0001) %MON dynstat_uvel_mean            =   2.4858462366221E-03
(PID.TID 0000.0001) %MON dynstat_uvel_sd              =   1.6607481117154E-02
(PID.TID 0000.0001) %MON dynstat_uvel_del2            =   1.1455707459036E-04
(PID.TID 0000.0001) %MON dynstat_vvel_max             =   1.4329126292580E-01
(PID.TID 0000.0001) %MON dynstat_vvel_min             =  -9.6582514527718E-02
(PID.TID 0000.0001) %MON dynstat_vvel_mean            =  -5.3674067603500E-05
(PID.TID 0000.0001) %MON dynstat_vvel_sd              =   9.1592302371960E-03
(PID.TID 0000.0001) %MON dynstat_vvel_del2            =   8.1977419000697E-05
(PID.TID 0000.0001) %MON dynstat_wvel_max             =   2.2642135999470E-04
(PID.TID 0000.0001) %MON dynstat_wvel_min             =  -8.8499014076548E-05
(PID.TID 0000.0001) %MON dynstat_wvel_mean            =  -6.6975814819161E-24
(PID.TID 0000.0001) %MON dynstat_wvel_sd              =   1.2472712117216E-05
(PID.TID 0000.0001) %MON dynstat_wvel_del2            =   1.2391516330394E-07
(PID.TID 0000.0001) %MON dynstat_theta_max            =   3.1015677251722E+01
(PID.TID 0000.0001) %MON dynstat_theta_min            =  -1.9462208129083E+00
(PID.TID 0000.0001) %MON dynstat_theta_mean           =   3.6439073454513E+00
(PID.TID 0000.0001) %MON dynstat_theta_sd             =   4.4272778527816E+00
(PID.TID 0000.0001) %MON dynstat_theta_del2           =   4.8639442964428E-03
(PID.TID 0000.0001) %MON dynstat_salt_max             =   3.7484271341625E+01
(PID.TID 0000.0001) %MON dynstat_salt_min             =   2.9925488733860E+01
(PID.TID 0000.0001) %MON dynstat_salt_mean            =   3.4738029143773E+01
(PID.TID 0000.0001) %MON dynstat_salt_sd              =   2.9663234972445E-01
(PID.TID 0000.0001) %MON dynstat_salt_del2            =   9.9461356178454E-04
(PID.TID 0000.0001) %MON dynstat_sst_max              =   3.1015677251722E+01
(PID.TID 0000.0001) %MON dynstat_sst_min              =  -1.9462208129083E+00
(PID.TID 0000.0001) %MON dynstat_sst_mean             =   1.9079997534856E+01
(PID.TID 0000.0001) %MON dynstat_sst_sd               =   9.1801581521213E+00
(PID.TID 0000.0001) %MON dynstat_sst_del2             =   2.8930320819540E-02
(PID.TID 0000.0001) %MON dynstat_sss_max              =   3.7479526494839E+01
(PID.TID 0000.0001) %MON dynstat_sss_min              =   2.9925488733860E+01
(PID.TID 0000.0001) %MON dynstat_sss_mean             =   3.4858455972570E+01
(PID.TID 0000.0001) %MON dynstat_sss_sd               =   9.8712369959258E-01
(PID.TID 0000.0001) %MON dynstat_sss_del2             =   8.2018561864991E-03
(PID.TID 0000.0001) %MON forcing_qnet_max             =   2.5568675130208E+02
(PID.TID 0000.0001) %MON forcing_qnet_min             =  -1.6214360555013E+02
(PID.TID 0000.0001) %MON forcing_qnet_mean            =  -5.6769202742661E+00
(PID.TID 0000.0001) %MON forcing_qnet_sd              =   4.3119698090752E+01
(PID.TID 0000.0001) %MON forcing_qnet_del2            =   8.2388175904859E-01
(PID.TID 0000.0001) %MON forcing_qsw_max              =   0.0000000000000E+00
(PID.TID 0000.0001) %MON forcing_qsw_min              =   0.0000000000000E+00
(PID.TID 0000.0001) %MON forcing_qsw_mean             =   0.0000000000000E+00
(PID.TID 0000.0001) %MON forcing_qsw_sd               =   0.0000000000000E+00
(PID.TID 0000.0001) %MON forcing_qsw_del2             =   0.0000000000000E+00
(PID.TID 0000.0001) %MON forcing_empmr_max            =   6.8724137728774E-05
(PID.TID 0000.0001) %MON forcing_empmr_min            =  -8.3323801902679E-05
(PID.TID 0000.0001) %MON forcing_empmr_mean           =   4.6092959436842E-07
(PID.TID 0000.0001) %MON forcing_empmr_sd             =   2.6018259992401E-05
(PID.TID 0000.0001) %MON forcing_empmr_del2           =   3.6418795428609E-07
(PID.TID 0000.0001) %MON forcing_fu_max               =   3.5412625869115E-01
(PID.TID 0000.0001) %MON forcing_fu_min               =  -3.9228870868683E-01
(PID.TID 0000.0001) %MON forcing_fu_mean              =   1.9947960912656E-02
(PID.TID 0000.0001) %MON forcing_fu_sd                =   1.0113823229809E-01
(PID.TID 0000.0001) %MON forcing_fu_del2              =   8.1500595497074E-04
(PID.TID 0000.0001) %MON forcing_fv_max               =   1.8291634122531E-01
(PID.TID 0000.0001) %MON forcing_fv_min               =  -1.7970077792803E-01
(PID.TID 0000.0001) %MON forcing_fv_mean              =  -7.3836687505524E-03
(PID.TID 0000.0001) %MON forcing_fv_sd                =   4.1110049658616E-02
(PID.TID 0000.0001) %MON forcing_fv_del2              =   4.7130886411290E-04
(PID.TID 0000.0001) %MON trAdv_CFL_u_max              =   4.0787443528294E-02
(PID.TID 0000.0001) %MON trAdv_CFL_v_max              =   2.8303947618250E-02
(PID.TID 0000.0001) %MON trAdv_CFL_w_max              =   4.7864774194222E-02
(PID.TID 0000.0001) %MON advcfl_uvel_max              =   4.1248151715387E-02
(PID.TID 0000.0001) %MON advcfl_vvel_max              =   2.7839194270919E-02
(PID.TID 0000.0001) %MON advcfl_wvel_max              =   5.3596727406964E-02
(PID.TID 0000.0001) %MON advcfl_W_hf_max              =   5.7537663245711E-02
(PID.TID 0000.0001) %MON pe_b_mean                    =   7.8944584460870E-04
(PID.TID 0000.0001) %MON ke_max                       =   1.5316986991715E-02
(PID.TID 0000.0001) %MON ke_mean                      =   1.6577521691160E-04
(PID.TID 0000.0001) %MON ke_vol                       =   1.3226782436723E+18
(PID.TID 0000.0001) %MON vort_r_min                   =  -3.8896914510249E-07
(PID.TID 0000.0001) %MON vort_r_max                   =   3.9845201236001E-07
(PID.TID 0000.0001) %MON vort_a_mean                  =  -2.5274806759476E-05
(PID.TID 0000.0001) %MON vort_a_sd                    =   7.3604658574781E-05
(PID.TID 0000.0001) %MON vort_p_mean                  =  -3.1845654995638E-05
(PID.TID 0000.0001) %MON vort_p_sd                    =   1.3162551329550E-04
(PID.TID 0000.0001) %MON surfExpan_theta_mean         =  -1.5639642986590E-07
(PID.TID 0000.0001) %MON surfExpan_salt_mean          =   6.2346631103752E-08
(PID.TID 0000.0001) // =======================================================
(PID.TID 0000.0001) // End MONITOR dynamic field statistics
(PID.TID 0000.0001) // =======================================================
(PID.TID 0000.0001) // =======================================================
(PID.TID 0000.0001) // Field Current uVel   at iteration         80
(PID.TID 0000.0001) // CMIN =         -1.273272283253139E-01
(PID.TID 0000.0001) // CMAX =          1.577760212607034E-01
(PID.TID 0000.0001) // CINT =          1.055937961429694E-02
(PID.TID 0000.0001) // SYMBOLS (CMIN->CMAX): -abcdefghijklmnopqrstuvwxyz+
(PID.TID 0000.0001) //                  0.0: .
(PID.TID 0000.0001) // RANGE I (Lo:Hi:Step):(     1:    90:     1)
(PID.TID 0000.0001) // RANGE J (Lo:Hi:Step):(    40:     1:    -1)
(PID.TID 0000.0001) // RANGE K (Lo:Hi:Step):(   1:   1:   1)
(PID.TID 0000.0001) // =======================================================
(PID.TID 0000.0001) K =   1
(PID.TID 0000.0001)                I=10      I=20      I=30      I=40      I=50      I=60      I=70      I=80      I=90
(PID.TID 0000.0001) |--J--|123456789|123456789|123456789|123456789|123456789|123456789|123456789|123456789|123456789|
(PID.TID 0000.0001)     40 lllkl..llllllllllll...................................................................kkkk
(PID.TID 0000.0001)     39 lmnmmllkkkkkkl....l......................................................lll.........kjjjk
(PID.TID 0000.0001)     38 mmmmllkklllmm............................................................llll.......jiijkl
(PID.TID 0000.0001)     37 mnm...................................................................l....kk....ijhi..llm
(PID.TID 0000.0001)     36 on..........................................kkk.....................lllmmmmkjk..jkjklkllno
(PID.TID 0000.0001)     35 nm..................................lll...lkjkkk....kkkl............ll.....lkllkklmnmmmopo
(PID.TID 0000.0001)     34 ....................................lkk..lkkkkkk..mllmmml...................mmmnoooppoom..
(PID.TID 0000.0001)     33 .....................................kmnlkkllmmnmnnnnooonlk..................mmorssrqpomk.
(PID.TID 0000.0001)     32 .....................................ijkklmnopppoooppppppon.................nlmqsssrqonnn.
(PID.TID 0000.0001)     31 .....................................jlnnoppqqqqqppppoooonn...............loomqssrqponnm..
(PID.TID 0000.0001)     30 ....................................oqqqqqrrqqqpppoonnmmmnm.............noqqqqqrrqonnnnm..
(PID.TID 0000.0001)     29 ..................................npsssrqqpppppooonnmmmllmll............sqqoonnooonmmmlk..
(PID.TID 0000.0001)     28 ................................pqqrqqpooooooponmmmmmmmlllkkk..........qrpnmmmmmllllkkkl..
(PID.TID 0000.0001)     27 ...............l...............npoonnnmmmnnnnnmmlkkllkkkjjiijk....llm..oooonmllkjiiiii....
(PID.TID 0000.0001)     26 ...............ll............igikkjjjjijkkkkjjjiiiijiiiiihiiikmm..llklllllmmljjjiihhgh....
(PID.TID 0000.0001)     25 ...............onm....ml....kijklkjijihhhiiiihhiiiijjiijjklllmnnm....kjkkkmnnmllmmlllk....
(PID.TID 0000.0001)     24 .............opponn..nnm....on..nnkkkjjijkkkkjklmllmmmnooopononmmmmm..mlmmoqppppqppppo....
(PID.TID 0000.0001)     23 .............nkjjjk..kjk....ll...jhhghgghhhiiijllkkklmmnonomlkjijjjll.....nnjkkklllmon....
(PID.TID 0000.0001)     22 m............fbabbbbeeeh....k..eeffdccbbddccdeeghghhiklnonnlkkiiiihhhi.......kgeddgjlnooml
(PID.TID 0000.0001)     21 mno.........fddcba-acfhjm......ghmligedefggefgghhghhhiklnmlkkllmmmkjii.........hbbfikmnoon
(PID.TID 0000.0001)     20 lmn........kikkkkjgfimnnn.........mlmkkimnommllllkjihhiijihgijkllljiij..........gcfhijkkkl
(PID.TID 0000.0001)     19 jlm........jhhjknmjijlllkll....im......nopqqqpponkkjhijihgfeeeegffeffh............igfghggg
(PID.TID 0000.0001)     18 hkm........ifcfghhiiikjiijjihihhk....lnmnmnpqoonliijhhihhggfffffedeeegj...........kihggggf
(PID.TID 0000.0001)     17 jjl..........ggggigijjkkjjjiiih......klkljknnkklkjiiihijihiiiiiiihhijjk..........llkjihiji
(PID.TID 0000.0001)     16 jjj.......k..mihikhikjkkkkkllk........lklkknmlklmmlkjjkkjijjjjjkkjkklllk.........mlljiiijj
(PID.TID 0000.0001)     15 gffi.....mn..onnnmllmnnmlkllm..........lllnnoooooponnmnmllllkkkkkkjjjjijk.......nonmkjjhhh
(PID.TID 0000.0001)     14 gede.....kjkmnoppononnmmlkjjk..........lkmnnqpqppqqqppoooonmlklkjjjiihggj......klnnnmlkjih
(PID.TID 0000.0001)     13 hhgf.....kjjkllmnnmmlkklkkjij..........llmnoqppooooooooooonnnmljjklkjiiij.....hiklmmmlllki
(PID.TID 0000.0001)     12 lkjijhdhillkklklmmllllmmmlkkjjkkkj.....mmmmoooonnnmmmmnnnmmnnnlkklmmlkkk......mmmmmnnnnnml
(PID.TID 0000.0001)     11 qponmkloqssrsssrrrrqppqqqpooonnnmll...mnnml..pqonnmmmmmmmnnnonmmnnoonnmk.....mpqrrrrrrqqqq
(PID.TID 0000.0001)     10 utsrstvvwxzzz++zyzzyxvvvvuutssrrqomm..ooonn..qronnmnnnnnnnnooooppqqqppnm...qoprsuvvvwwvvvv
(PID.TID 0000.0001)      9 wwvvwwxxxyyxwxyyxxyzyyxxwxwvvvuttsrqqqpoon..rrqpoooooooppoopppppqqppppon..ponpsttuvwxxxxyx
(PID.TID 0000.0001)      8 uvvwwvuuuuutttssssrruvvvvvvvvvuvvvvvvutsrpmppoppqqqqqqqrrrrqppqqqpppppoo..kjknpppqstuuuuuu
(PID.TID 0000.0001)      7 qrssrrqrrrrrqqppqqpopqqrrrsssssttuuvwwvvuusrppqqqrrstuutssrqqqqrrqqqqqqsrnllnoonnnopqqqqqq
(PID.TID 0000.0001)      6 nnnnooppppppoooooppnnnnoopppqqrrrrrrrsstuvutsrrrrrssuuvvusrqqqrrrrrsssstuuuutsrponnoooooon
(PID.TID 0000.0001)      5 llllmnnnonnmmmmmnnnnmmmmmmmnnooonnooooprstttssrssssssrrrrqqqqqrrrrrrssstttsrutqonnnnnnnnmm
(PID.TID 0000.0001)      4 kkkkkllmmmlllkklllmmlllllmmmmmmmmmmmmmmnoopppqqqpppponnnnoppppppppppppppon...mnmmmmmmmmlll
(PID.TID 0000.0001)      3 jjjjjkkkkl.............................klllllmmmmmlllklllmmmnnnnmmmmmmmll...lmmlllkkkkkkkj
(PID.TID 0000.0001)      2 ...........................................kkllllkkkkkkkkkkkkkkk...lkk......lmllllllllk...
(PID.TID 0000.0001)      1 ..........................................................................................
(PID.TID 0000.0001) // =======================================================
(PID.TID 0000.0001) // END OF FIELD                                          =
(PID.TID 0000.0001) // =======================================================
(PID.TID 0000.0001) 
(PID.TID 0000.0001) // =======================================================
(PID.TID 0000.0001) // Field Current vVel   at iteration         80
(PID.TID 0000.0001) // CMIN =         -9.384079191582401E-02
(PID.TID 0000.0001) // CMAX =          1.432912629258018E-01
(PID.TID 0000.0001) // CINT =          8.782668697837991E-03
(PID.TID 0000.0001) // SYMBOLS (CMIN->CMAX): -abcdefghijklmnopqrstuvwxyz+
(PID.TID 0000.0001) //                  0.0: .
(PID.TID 0000.0001) // RANGE I (Lo:Hi:Step):(     1:    90:     1)
(PID.TID 0000.0001) // RANGE J (Lo:Hi:Step):(    40:     1:    -1)
(PID.TID 0000.0001) // RANGE K (Lo:Hi:Step):(   1:   1:   1)
(PID.TID 0000.0001) // =======================================================
(PID.TID 0000.0001) K =   1
(PID.TID 0000.0001)                I=10      I=20      I=30      I=40      I=50      I=60      I=70      I=80      I=90
(PID.TID 0000.0001) |--J--|123456789|123456789|123456789|123456789|123456789|123456789|123456789|123456789|123456789|
(PID.TID 0000.0001)     40 jkopn.kkjjjjkj...kk..................................................................iiijj
(PID.TID 0000.0001)     39 llmnnkjiiiikl...........................................................kjjj........hjjkkk
(PID.TID 0000.0001)     38 lnm.......................................................................iij......hg.mmll
(PID.TID 0000.0001)     37 no...................................................................kj...iii...einnl.lmll
(PID.TID 0000.0001)     36 mm.........................................lmlk....................kjk....hghj.eciljkkknnl
(PID.TID 0000.0001)     35 ...................................kkkk..kklmmll...hgkmn...................hghhgghihhhko..
(PID.TID 0000.0001)     34 ....................................kkj.ljjjkkjk.ihhhjklm...................iefgggggfehl..
(PID.TID 0000.0001)     33 ....................................kjkkiihhiihhhgfghiijkmm.................rhhhhgggeddil.
(PID.TID 0000.0001)     32 ....................................hkihhhhghhgfggghiijjjkl................mnijkjihhgfgk..
(PID.TID 0000.0001)     31 ....................................klkjjiihhhgghhhijjjjiij..............komkjkjjjjjjjkl..
(PID.TID 0000.0001)     30 ...................................lnlkjkjigghhhhgghhhhhhhh............nommkjjjjjjjjklml..
(PID.TID 0000.0001)     29 .................................llkjigghhfeefgghggggggghgfg...........omjigffhijjjjkllk..
(PID.TID 0000.0001)     28 ...............................qokihhhgghgfffhhijjjjjiiiiihfg.........nlihggggikkkllkk....
(PID.TID 0000.0001)     27 ..............jk..............nnmkjjjkkllkjjkkklmmmmmlkkkjihgi...klno.mmkkkkkjllmmmlkj....
(PID.TID 0000.0001)     26 ..............jlk...........ginmjjkmmnooonmllllmmmlkkkkjkjiiijkl....nnljhjkkjijklkjjii....
(PID.TID 0000.0001)     25 ..............nonj...klk...hhj.lghjklmmmmmlkkkklllkjjkkkkkkklllkj....mkjhghiijklllkkkj....
(PID.TID 0000.0001)     24 ............prtuqll.nnnl...nmn..kikmoppqrrrrrrrrqqqppqrssssrponmkkkk.....ommqrrssssrnk....
(PID.TID 0000.0001)     23 ............sxywtpq.opro...ll...jlqtwxz+zyyzzyyxxwwvvwwxyywvtrponnnmm.......wvwwxyxvsm....
(PID.TID 0000.0001)     22 k...........ntvuspnllorr......jggiotvx+zxvuvvvuuuuuttuuvvvutrqonmmnnli........pruwwvtpnmlk
(PID.TID 0000.0001)     21 jjk........nnpqpmkjiiklli......b.gjoruutqonmmmmmnmmnnoopppqqpnmmlllkig.........lpvtqonmmlk
(PID.TID 0000.0001)     20 hil.......mnpomifefefgged......a......mihiiihggghhiijiiiigghhgfefghhhh...........tpljihihh
(PID.TID 0000.0001)     19 egi.......kmrpjeceeffffeehk...ghj.....mljllkkkkjjjkllkjigffedcbcdeefgi...........mlhffedee
(PID.TID 0000.0001)     18 ghj.......k.qsmjjiijjlkiiklkkjj.....kmnnnnnnopqqommnoonmkjjihgffeedeggj..........lnkiigeef
(PID.TID 0000.0001)     17 llk.......l.mqlkhhijjkkjjjkkjj.......jjjklmnoooonlklmmmmllkkkkkkjihijkl.........ikmlllkkkl
(PID.TID 0000.0001)     16 ooo......km.jjhggffiheghijjik.........igfgijkkjjjihhiiiiiijjjkklkjkkmnnm........ihiiklllmn
(PID.TID 0000.0001)     15 lmnl....kjl.hhgggefigdfghiihj.........ifffghhjjiihhhiiihijjjjklkkjklmmnnl......lhhhijkkkll
(PID.TID 0000.0001)     14 llmk....himkikkkkijliggijjiik.........jhijkjkkkjiijjjjjjjkkikmmmlkllllmmk.....hjjklkkllmnm
(PID.TID 0000.0001)     13 mmml....bhmmlmmmmllmlkklmljkk.........hikmnkkkkjjkkkjkkkkkjjklllmmllllmm.....efijklklmmnnn
(PID.TID 0000.0001)     12 mmlkje-ccgkkiijjjkkkkjjklkkkjiijmm....gikmo.hikjkjjijjjkkjijjjjkmmlkklnm.....ehihhihijkllm
(PID.TID 0000.0001)     11 llkkigfffgjkihijkkjkkjkkkllljiiiikk..ihjjln.jkkjjjiiijjkkkjjjiiknomlklln....ggjjihhhhiijll
(PID.TID 0000.0001)     10 nnnnmljijmoolkklnolklmnnnnnnmlkkjkmn.kjkkm..qokjjkkjkjjkmnnmlklnpqonmmmn..sqkloomlkkjjlmno
(PID.TID 0000.0001)      9 ppqrrqnmorsrqpnmswpmoprrrqqqponnnmorqnmmmp.tsomlmmmmnnnoopqponoprrqponmp.qtuqqtsqooommoqrq
(PID.TID 0000.0001)      8 qqrqqpooppqrqpnlowuppqqrrrqqpppppprtspmlmqvvrpoooonnoopqqqrqpopprqqpoomm.orttsttqooooooprr
(PID.TID 0000.0001)      7 qponmmnonnooonnmmorrpoopppoooppppprsromlloqrqpooppppponopoooooooppponnnnprpqsssqoonmmnoopq
(PID.TID 0000.0001)      6 nmlkllmnnmmmmlllllnonmmmmllmnnonnnnoommllnnnnnoooopppnllllmnnnnnnoonmmnopqpqpoonmmmmlmnnnn
(PID.TID 0000.0001)      5 kkjjjjkllkjjjjjjjkkkkkjihhijjkkjjkkkllkklmmkklnonnnonmllkklmmmllmmmmmmmnnn..jjklklllllllll
(PID.TID 0000.0001)      4 hgfgggfghi............................jiijkjjklmmmmllkkkllllkkkjjkkkkkjjk...kkkkkkklkkjjii
(PID.TID 0000.0001)      3 ..........................................jjjjjkkkkjjjjjkjjihhhh..kjij.....jjkkjjjjjjih...
(PID.TID 0000.0001)      2 ..........................................................................................
(PID.TID 0000.0001)      1 ..........................................................................................
(PID.TID 0000.0001) // =======================================================
(PID.TID 0000.0001) // END OF FIELD                                          =
(PID.TID 0000.0001) // =======================================================
(PID.TID 0000.0001) 
(PID.TID 0000.0001) // =======================================================
(PID.TID 0000.0001) // Field Current theta  at iteration         80
(PID.TID 0000.0001) // CMIN =         -1.946220812908263E+00
(PID.TID 0000.0001) // CMAX =          3.101567725172177E+01
(PID.TID 0000.0001) // CINT =          1.220811039430742E+00
(PID.TID 0000.0001) // SYMBOLS (CMIN->CMAX): -abcdefghijklmnopqrstuvwxyz+
(PID.TID 0000.0001) //                  0.0: .
(PID.TID 0000.0001) // RANGE I (Lo:Hi:Step):(     1:    90:     1)
(PID.TID 0000.0001) // RANGE J (Lo:Hi:Step):(    40:     1:    -1)
(PID.TID 0000.0001) // RANGE K (Lo:Hi:Step):(   1:   1:   1)
(PID.TID 0000.0001) // =======================================================
(PID.TID 0000.0001) K =   1
(PID.TID 0000.0001)                I=10      I=20      I=30      I=40      I=50      I=60      I=70      I=80      I=90
(PID.TID 0000.0001) |--J--|123456789|123456789|123456789|123456789|123456789|123456789|123456789|123456789|123456789|
(PID.TID 0000.0001)     40 -bbccba-------abcddbbbbbbbbbbbbbbbbbbbbbbbbbbbbbbbbbbbbbbbbbbbbbbbbbbbbbbbbbbbbbbbbbbaaa--
(PID.TID 0000.0001)     39 bbccccbbaa----bbbddbbbbbbbbbbbbbbbbbbbbbbbbbbbbbbbbbbbbbbbbbbbbbbbbbbbbb----bbbbbbbbaaaaaa
(PID.TID 0000.0001)     38 deeeeecccbaa-bbbbbbbbbbbbbbbbbbbbbbbbbbbbbbbbbbbbbbbbbbbbbbbbbbbbbbbbbbb-----bbbbbba--abcd
(PID.TID 0000.0001)     37 ffgbbbbbbbbbbbbbbbbbbbbbbbbbbbbbbbbbbbbbbbbbbbbbbbbbbbbbbbbbbbbbbbbbbbbbbba-abbbbaeeebcdde
(PID.TID 0000.0001)     36 ggbbbbbbbbbbbbbbbbbbbbbbbbbbbbbbbbbbbbbbbbbba--bbbbbbbbbbbbbbbbbbbbcccbbaaabacbceffghhhggg
(PID.TID 0000.0001)     35 ffbbbbbbbbbbbbbbbbbbbbbbbbbbbbbbbbb----bbabcccb-bbbddeefbbbbbbbbbbbbbbbbbbbcddddeffhhiiihg
(PID.TID 0000.0001)     34 bbbbbbbbbbbbbbbbbbbbbbbbbbbbbbbbbbb----bacccccccbccedefffbbbbbbbbbbbbbbbbbbbabdeefghiijibb
(PID.TID 0000.0001)     33 bbbbbbbbbbbbbbbbbbbbbbbbbbbbbbbbbbbb--abbcccccdddeeeefffgghbbbbbbbbbbbbbbbbbaacfhijjkjjjjb
(PID.TID 0000.0001)     32 bbbbbbbbbbbbbbbbbbbbbbbbbbbbbbbbbbbb-abbccddddeeffggggghhhibbbbbbbbbbbbbbbbdcaaikllllkkkjb
(PID.TID 0000.0001)     31 bbbbbbbbbbbbbbbbbbbbbbbbbbbbbbbbbbbbdeefggghhihhhihiijjjjjjbbbbbbbbbbbbbbhilkgjlmmmmmlllbb
(PID.TID 0000.0001)     30 bbbbbbbbbbbbbbbbbbbbbbbbbbbbbbbbbbbkjjjjjkkkkkkkkkkkllmmmllbbbbbbbbbbbbmmmoooooooooonnnnbb
(PID.TID 0000.0001)     29 bbbbbbbbbbbbbbbbbbbbbbbbbbbbbbbbbnnnnnnmmnnmnnnnnnnnnooonnmmbbbbbbbbbbbopqqqqpppppppoooobb
(PID.TID 0000.0001)     28 bbbbbbbbbbbbbbbbbbbbbbbbbbbbbbbmopppppoopppppppppppppqqpponnnbbbbbbbbbqrrrqrrqqqqqppppppbb
(PID.TID 0000.0001)     27 bbbbbbbbbbbbbbuubbbbbbbbbbbbbbqqrrrrrrrrrssssssssssrrrrrqqpoppbbbrrrsbstttttttsssrrrqqbbbb
(PID.TID 0000.0001)     26 bbbbbbbbbbbbbbuttbbbbbbbbbbbtstttttuuuuuuuuuuuuttttttssrrrqqqrsubstuvuuuuuuuuutttsrrqqbbbb
(PID.TID 0000.0001)     25 bbbbbbbbbbbbbbuuvvbbbwvwbbbuuvvvvvvwwwwwvvvvvvvuuuuuttttssssstuvwbbbvvvvvvvuuuuutssrqqbbbb
(PID.TID 0000.0001)     24 bbbbbbbbbbbbvvvwwxybwwwxbbbwwwbwwwwxwwwwwwvvvvvvvvuvvvvvvvvvvvvwwvvwbwvvvvvuuuuutttttsbbbb
(PID.TID 0000.0001)     23 bbbbbbbbbbbbwwwxxyybwxxxbbbxwwbbwxxxxxxxxxwwwwwwwwwwwwwwwwwwwwwwwwwwvbbbbwvvvvvvvvvvvwbbbb
(PID.TID 0000.0001)     22 wbbbbbbbbbbbwwwxxyyyxxyybbbxxbzyxxxyyxyyyyxxxxxxxxxxxxxwwwwwwwwwwwwvvwbbbbbbxwwwwwxxxyyyxw
(PID.TID 0000.0001)     21 wvvbbbbbbbbxxxxxxxyyyzzz+bbbbbzyzzzzyzzzzzzyyyyyyyyyyyxxxxxxxxxxxxwvvvbbbbbbbbxxxyyyyzzyxw
(PID.TID 0000.0001)     20 wwvbbbbbbbyyyyyyyyyzzzzz+bbbbbbzbzzzzz+++++zzzzzzzzzyyyyxxxxxxxxxxxwwvbbbbbbbbbyyyyyyyyxxw
(PID.TID 0000.0001)     19 vvwbbbbbbbzzzyyyyyyyyyyyzzybbbzzzbbbbbz+zz++zzzzzzzzyyyxxxxxwwwvvwwvvvbbbbbbbbbbbyxxwwwvwv
(PID.TID 0000.0001)     18 vuubbbbbbbzzyxxxyyyyyyyyyyzzzz+zzbbb++zzzz+zzzzzzzzzyyyyxxxxwwwvvvvvuutbbbbbbbbbbyxxwwvvwv
(PID.TID 0000.0001)     17 uutbbbbbbbzbyxxxxxxxyyyxyyyyyzzbbbbbzzyyzzzzzzzzzyzzyyxxxxxxwwwvuvvuttvbbbbbbbbbxyyxxvuvvv
(PID.TID 0000.0001)     16 utsbbbbbbyzbyxxxxwwwxxwwwwxxyzbbbbbbbxxxyyyyyyyyyyyyyyxxxxxxxwwwvvvuutstbbbbbbbbxyyyxwvvvu
(PID.TID 0000.0001)     15 tsrrbbbbwxxbwxwwwvwvwwwvuuvvxbbbbbbbbbwwwxxxxxxxxxxxxxxxxxyxxwwwvvuuttssrbbbbbbxxxxxxxwwvu
(PID.TID 0000.0001)     14 tsrqbbbbwxwvwwwvwwwvuuuuttttubbbbbbbbbvvvwwwwwwwwwxxxxxwxxxxxwwwvvvutssssbbbbbvwxxxxxwwwvu
(PID.TID 0000.0001)     13 utsqbbbbvxwvwwvuvvvvuuutsssssbbbbbbbbbuvvvvvvvvvvvuvvvwvwwwxxwvvvuuuussspbbbbvvwwwwwwwwvvu
(PID.TID 0000.0001)     12 sssstsqsuvutuutssssstutrrssrrqqrrqbbbbtuuutttttsststttttttuvuttttsstssrrbbbbbtvvvutuuuuttt
(PID.TID 0000.0001)     11 qpppqqrsrsrqrsrqqqpppqqppqppppqqqqqbbssssssbrrrqrrrrrrrrrrssqqrrrqrrrrqpbbbboqsssrrrsrrrqq
(PID.TID 0000.0001)     10 mmllmnopppoooponnmnnnnnmmmmllnnooooobqrrqqqbpqqqqqqpppqppppooopoooooopoobbopppppooonoppoon
(PID.TID 0000.0001)      9 jjjiijjkkjjkkkkjjiijkjjiiijjijkklmnmmnooopbnnoooooooooooonmmmmmmmmllmmmmbmnnnnmmlllkklllkj
(PID.TID 0000.0001)      8 ggggggghhgghhiiihghhhhhggghhhhijjjjjjkkllmmlllllllllmmllllkkkjkkkkkjkklkbkklkkjjiiiihihggf
(PID.TID 0000.0001)      7 eeeeefffgggffggggfffffeeeffggggghhhghhijjkjjjjjkkjjjiiiiiiiiiihiiiiiiijjiijiiihhgffffffeee
(PID.TID 0000.0001)      6 ddddeeeeeeeeeefeffeeeeefeeeeddefffeffggghhhhhhhhihggffggggggffffggghhhhhhhhhhgffeeeeeddddd
(PID.TID 0000.0001)      5 ddddddddddeeeeeeeeedddeedddddeeeeeeeeeeffffffffeffedddeeeeeeeeeeeeefffffeffeeeeddddddcdccd
(PID.TID 0000.0001)      4 ddddddccccccccccccccccccbbbcccccccbbccccddddddcccddddddddddccdddddddddddddbbbbbbcccccccccd
(PID.TID 0000.0001)      3 ccccbbbaaabbbbbbbbbbbbbbbbbbbbbbbbbbbbbbaaabbbbbbcccccbbbbbbbbbbbbbbbbbbbbbbbaaabbccccbbbb
(PID.TID 0000.0001)      2 bbbbbbbbbbbbbbbbbbbbbbbbbbbbbbbbbbbbbbbbbbaabbbbbbbbbaaaaaaaaaaabbaaaabbbbbaaaaaabbbbbbbbb
(PID.TID 0000.0001)      1 bbbbbbbbbbbbbbbbbbbbbbbbbbbbbbbbbbbbbbbbbbbbbbbbbbbbbbbbbbbbbbbbbbbbbbbbbbbbbbbbbbbbbbbbbb
(PID.TID 0000.0001) // =======================================================
(PID.TID 0000.0001) // END OF FIELD                                          =
(PID.TID 0000.0001) // =======================================================
(PID.TID 0000.0001) 
(PID.TID 0000.0001) // =======================================================
(PID.TID 0000.0001) // Field Current etaN   at iteration         80
(PID.TID 0000.0001) // CMIN =         -2.207795715830116E+00
(PID.TID 0000.0001) // CMAX =          1.175566075789072E+00
(PID.TID 0000.0001) // CINT =          1.253096959858958E-01
(PID.TID 0000.0001) // SYMBOLS (CMIN->CMAX): -abcdefghijklmnopqrstuvwxyz+
(PID.TID 0000.0001) //                  0.0: .
(PID.TID 0000.0001) // RANGE I (Lo:Hi:Step):(    -1:    92:     1)
(PID.TID 0000.0001) // RANGE J (Lo:Hi:Step):(    42:    -1:    -1)
(PID.TID 0000.0001) // RANGE K (Lo:Hi:Step):(   1:   1:   1)
(PID.TID 0000.0001) // =======================================================
(PID.TID 0000.0001) K =   1
(PID.TID 0000.0001)                I=8       I=18      I=28      I=38      I=48      I=58      I=68      I=78      I=88
(PID.TID 0000.0001) |--J--|101234567|901234567|901234567|901234567|901234567|901234567|901234567|901234567|901234567|9012
(PID.TID 0000.0001)     42 ............................................eeeeeeeeeffffffeeeeeee..gggf.....-aaaaabbaaaa.....
(PID.TID 0000.0001)     41 ..............................................................................................
(PID.TID 0000.0001)     40 fffffgg.jjiiiiiiiiiii..................................................................fggffff
(PID.TID 0000.0001)     39 fffffghhhhhggggg...ii.....................................................hhhh........gggfffff
(PID.TID 0000.0001)     38 fgggghhggggggff...........................................................hhhgg......gfffffggg
(PID.TID 0000.0001)     37 ggggh..................................................................jj...hgg...eedee.fggggg
(PID.TID 0000.0001)     36 gggi.........................................rrrr....................jjjjiihgggf.gdddefgfggggi
(PID.TID 0000.0001)     35 hhhh.................................tttt..rrrrrrr...srqrr...........jjj....igfffedeefffgghhhh
(PID.TID 0000.0001)     34 .....................................tttt.ssrrrrrr.rqqqqqrs..................ihgffeefgghhj....
(PID.TID 0000.0001)     33 i.....................................ttstssrrrrrrrrrqqrrrsst.................khgggghhiiihi...
(PID.TID 0000.0001)     32 k.....................................ssssssssrsssrsrrrssssst................fkjiiijjjjjjik...
(PID.TID 0000.0001)     31 ......................................rssssssssttsssssstttttu..............hijkjjjjkkkjjjj....
(PID.TID 0000.0001)     30 .....................................rstttttuuttuuutttuuuuuuu............fiijlllmllllkkkjj....
(PID.TID 0000.0001)     29 ...................................uvvwwwwwwwwvvvvvvvvvvvvvvut...........jklmmmmmmmlllkkkk....
(PID.TID 0000.0001)     28 .................................wxxxyyyyxxxxxxxwwwwvvvvvvvvvut.........mmmmnnnmmmmmllkkkk....
(PID.TID 0000.0001)     27 ................ss..............yyyzzzzzzyyyyyyxxxwwwwwwwvvvvuut...nmmn.nnnnnnnmmmllllkk......
(PID.TID 0000.0001)     26 ................sss...........zzzzzzzzzzzzzzzyyyxxxxxwwwwwvvvuuuuu.mmnnooooonnnnmmmllllk......
(PID.TID 0000.0001)     25 ................ssst...uuu...zyyyzzzzzzzzzzzzyyyxxxxxwwwwwvvvvuuuvv...noooooonnnmmmmlllk......
(PID.TID 0000.0001)     24 ..............ssssttt.uuuu...zzy.+zzzzzzzzzzyyyxxxxxxwwwwwvvvvvvvvvvvv.onnnnnnnmmmmmllll......
(PID.TID 0000.0001)     23 ..............tttttuu.uuuu...zzz..zyyyyyyyyyyxxxxxxxwwwwwvvvvvvvvvvvvvv....nnnmmmmmmmmmn......
(PID.TID 0000.0001)     22 nnn...........tttttuuuuuuu...zz.zzyxxxxxxxxyyxxxxxxxxxwwwwwwwwvvvvvvvvvv......nnnnnnnnnnnnnnn.
(PID.TID 0000.0001)     21 nnnnn........uuttttttuuuuuv.....zzyyyyyyxyxxxyyxxxxxxxxxwwwwwwwvvvvvvvuu........nnnnonnoonnnnn
(PID.TID 0000.0001)     20 nnnnn.......vuuutttttttuuuu......y.zzzzzyyyyyxxxxxxxxxwwwwwvvvvvvvuuuuuu.........ooooonoonnnnn
(PID.TID 0000.0001)     19 mmnnn.......vuuttsstttttuuuuu...wxx.....yyyyyyyxxxxxxxwwwwvvvvvuuuuuuuuu...........oonnnnmmmnn
(PID.TID 0000.0001)     18 mmmmn.......vvuttsttuuuuuuuuuuvvwxx...zzyyyyyyyyyxxxxxwwwwvvvvvuuuuuuuutt..........ponnnmmmmmm
(PID.TID 0000.0001)     17 nmmmm.......w.wuuuuuuuuvvuuuvvvvv.....yyxxxyxyyyyyxxxxxxwwwwwwvvvuuuuuuuu.........ppoonnnnnmmm
(PID.TID 0000.0001)     16 onnmm......ww.wvvvuvvvvvvuuuuuuv.......xxxxxxyyxxyyxxxxxxxxxwwwwwvvvvvuutt........pppppoooonnm
(PID.TID 0000.0001)     15 oonnml....uvv.uvvvvvvvuuvuutttu.........wwwxxxxxxxxxxxxxxxxxxxxwwwvvvvuuttt......oppppqpppoonn
(PID.TID 0000.0001)     14 poonml....uvutuuuuuvvuttuuttsst.........vwwwwwwwwwwwwwxxxxxxxxxxwwwwvvvuutt.....pppppqqqqqpoon
(PID.TID 0000.0001)     13 qpponm....uvuuuuuuuuuuttuutssss.........uvwwvvvvvvvvvvvwwwwxxxxxwwwwwvvuutt....ppppqqqqrrrqppo
(PID.TID 0000.0001)     12 qppoonnmqrtvutuuuttttttuuutsssssstts....uvvvuuuuuuuuuuuvvvvvwwwwwwwvvvuuut.....opppppqqqqqqppo
(PID.TID 0000.0001)     11 pooonnnpqrstttttttttttstttssssrssstss..tuuuuu.sttttttuuuuuuuvvvvwwwvuuuutt....lnnooooopppppooo
(PID.TID 0000.0001)     10 nnmmmmmnoppqqpopqqqqqqqrrrrrqqqrrrrsss.sttuuv.ssssttttuuuuuuuuuuvvvutttttu..nklmmlllmmmnnonnmm
(PID.TID 0000.0001)      9 kkkkkkkkklmmlkkklmmllmnooooooooppqrrsrqrsstt.srqrsstttttuuuuutttuuttsssstt.mmlklkjjijjjkkkkkkk
(PID.TID 0000.0001)      8 gfgghhggghiiiiiiijljhijkkkkkllmmnnopqqpqrssttqppqqrrssttttssssssstssrrsstw.nmlkjigfggggggggfgg
(PID.TID 0000.0001)      7 ddddcddeefffffffgghiggfgghhhiijjkkklllklmnpqpoooooooopppqqppppppqqqqqqqqqrronmkjhgeedddddddddd
(PID.TID 0000.0001)      6 bbaaabccdddddeeeefffffeeffffgghhhhhhhhhiijllmmlllllllkkkkllmmmmmmnnnnmnnnmmlkjhgeddccccccbbbaa
(PID.TID 0000.0001)      5 aaaaabbcccccccdddeeeeeeeeeeefffffffffgffgghhhhiiiihhhggggghijjjjjjjjjjjjiihgfecccbbbbbbbbaaaaa
(PID.TID 0000.0001)      4 aaaabbbbccccddddddddeeeeeeffffffffffffeeeeeffffffffeeeeefffgggggghhhhggggggg..abaaaaaaaaaaaaaa
(PID.TID 0000.0001)      3 abbbcccccccc............................deeeeeeeeeeeeeeeeeeeeeeeffffffffggg..aaaaaaaaaaaaaabbb
(PID.TID 0000.0001)      2 ............................................eeeeeeeeeffffffeeeeeee..gggf.....-aaaaabbaaaa.....
(PID.TID 0000.0001)      1 ..............................................................................................
(PID.TID 0000.0001)      0 fffffgg.jjiiiiiiiiiii..................................................................fggffff
(PID.TID 0000.0001)     -1 fffffghhhhhggggg...ii.....................................................hhhh........gggfffff
(PID.TID 0000.0001) // =======================================================
(PID.TID 0000.0001) // END OF FIELD                                          =
(PID.TID 0000.0001) // =======================================================
(PID.TID 0000.0001) 
(PID.TID 0000.0001)  MDS_WRITE_FIELD: it,rec,kS,kL,kH=      80     1  15   1  15 file=U.0000000080
(PID.TID 0000.0001)  MDS_WRITE_FIELD: it,rec,kS,kL,kH=      80     1  15   1  15 file=V.0000000080
(PID.TID 0000.0001)  MDS_WRITE_FIELD: it,rec,kS,kL,kH=      80     1  15   1  15 file=T.0000000080
(PID.TID 0000.0001)  MDS_WRITE_FIELD: it,rec,kS,kL,kH=      80     1  15   1  15 file=S.0000000080
(PID.TID 0000.0001)  MDS_WRITE_FIELD: it,rec,kS,kL,kH=      80     1   1   1   1 file=Eta.0000000080
(PID.TID 0000.0001)  MDS_WRITE_FIELD: it,rec,kS,kL,kH=      80     1  15   1  15 file=W.0000000080
(PID.TID 0000.0001)  MDS_WRITE_FIELD: it,rec,kS,kL,kH=      80     1  15   1  15 file=PH.0000000080
(PID.TID 0000.0001)  MDS_WRITE_FIELD: it,rec,kS,kL,kH=      80     1   1   1   1 file=PHL.0000000080
(PID.TID 0000.0001)  MDS_WRITE_FIELD: it,rec,kS,kL,kH=      80     1   1   1   1 file=ETAtave.0000000080
(PID.TID 0000.0001)  MDS_WRITE_FIELD: it,rec,kS,kL,kH=      80     1  15   1  15 file=Ttave.0000000080
(PID.TID 0000.0001)  MDS_WRITE_FIELD: it,rec,kS,kL,kH=      80     1  15   1  15 file=Stave.0000000080
(PID.TID 0000.0001)  MDS_WRITE_FIELD: it,rec,kS,kL,kH=      80     1  15   1  15 file=uVeltave.0000000080
(PID.TID 0000.0001)  MDS_WRITE_FIELD: it,rec,kS,kL,kH=      80     1  15   1  15 file=vVeltave.0000000080
(PID.TID 0000.0001)  MDS_WRITE_FIELD: it,rec,kS,kL,kH=      80     1  15   1  15 file=wVeltave.0000000080
(PID.TID 0000.0001)  MDS_WRITE_FIELD: it,rec,kS,kL,kH=      80     1   1   1   1 file=Eta2tave.0000000080
(PID.TID 0000.0001)  MDS_WRITE_FIELD: it,rec,kS,kL,kH=      80     1  15   1  15 file=UTtave.0000000080
(PID.TID 0000.0001)  MDS_WRITE_FIELD: it,rec,kS,kL,kH=      80     1  15   1  15 file=VTtave.0000000080
(PID.TID 0000.0001)  MDS_WRITE_FIELD: it,rec,kS,kL,kH=      80     1  15   1  15 file=WTtave.0000000080
(PID.TID 0000.0001)  MDS_WRITE_FIELD: it,rec,kS,kL,kH=      80     1  15   1  15 file=UStave.0000000080
(PID.TID 0000.0001)  MDS_WRITE_FIELD: it,rec,kS,kL,kH=      80     1  15   1  15 file=VStave.0000000080
(PID.TID 0000.0001)  MDS_WRITE_FIELD: it,rec,kS,kL,kH=      80     1  15   1  15 file=WStave.0000000080
(PID.TID 0000.0001)  MDS_WRITE_FIELD: it,rec,kS,kL,kH=      80     1  15   1  15 file=TTtave.0000000080
(PID.TID 0000.0001)  MDS_WRITE_FIELD: it,rec,kS,kL,kH=      80     1  15   1  15 file=UUtave.0000000080
(PID.TID 0000.0001)  MDS_WRITE_FIELD: it,rec,kS,kL,kH=      80     1  15   1  15 file=VVtave.0000000080
(PID.TID 0000.0001)  MDS_WRITE_FIELD: it,rec,kS,kL,kH=      80     1  15   1  15 file=UVtave.0000000080
(PID.TID 0000.0001)  MDS_WRITE_FIELD: it,rec,kS,kL,kH=      80     1  15   1  15 file=Tdiftave.0000000080
(PID.TID 0000.0001)  MDS_WRITE_FIELD: it,rec,kS,kL,kH=      80     1  15   1  15 file=PhHytave.0000000080
(PID.TID 0000.0001)  MDS_WRITE_FIELD: it,rec,kS,kL,kH=      80     1   1   1   1 file=PHLtave.0000000080
(PID.TID 0000.0001)  MDS_WRITE_FIELD: it,rec,kS,kL,kH=      80     1   1   1   1 file=uFluxtave.0000000080
(PID.TID 0000.0001)  MDS_WRITE_FIELD: it,rec,kS,kL,kH=      80     1   1   1   1 file=vFluxtave.0000000080
(PID.TID 0000.0001)  MDS_WRITE_FIELD: it,rec,kS,kL,kH=      80     1   1   1   1 file=tFluxtave.0000000080
(PID.TID 0000.0001)  MDS_WRITE_FIELD: it,rec,kS,kL,kH=      80     1   1   1   1 file=sFluxtave.0000000080
(PID.TID 0000.0001)  MDS_WRITE_FIELD: it,rec,kS,kL,kH=      80     1   1   1   1 file=PHL2tave.0000000080
(PID.TID 0000.0001)  MDS_WRITE_FIELD: it,rec,kS,kL,kH=      80     1  15   1  15 file=Convtave.0000000080
(PID.TID 0000.0001) // Time-average data written, t-step        80
(PID.TID 0000.0001) 
(PID.TID 0000.0001)  MDS_WRITE_FIELD: it,rec,kS,kL,kH=      80     1  15   1  15 file=GM_Kwx-T.0000000080
(PID.TID 0000.0001)  MDS_WRITE_FIELD: it,rec,kS,kL,kH=      80     1  15   1  15 file=GM_Kwy-T.0000000080
(PID.TID 0000.0001)  MDS_WRITE_FIELD: it,rec,kS,kL,kH=      80     1  15   1  15 file=GM_Kwz-T.0000000080
(PID.TID 0000.0001)  MDS_WRITE_FIELD: it,rec,kS,kL,kH=      80     1  15   1  15 file=pickup_cd.0000000080
(PID.TID 0000.0001)  MDS_WRITE_FIELD: it,rec,kS,kL,kH=      80     2  15   1  15 file=pickup_cd.0000000080
(PID.TID 0000.0001)  MDS_WRITE_FIELD: it,rec,kS,kL,kH=      80     3  15   1  15 file=pickup_cd.0000000080
(PID.TID 0000.0001)  MDS_WRITE_FIELD: it,rec,kS,kL,kH=      80     4  15   1  15 file=pickup_cd.0000000080
(PID.TID 0000.0001)  MDS_WRITE_FIELD: it,rec,kS,kL,kH=      80    61   1   1   1 file=pickup_cd.0000000080
(PID.TID 0000.0001)  MDS_WRITE_FIELD: it,rec,kS,kL,kH=      80    -1  15   1  15 file=pickup.0000000080
(PID.TID 0000.0001)  MDS_WRITE_FIELD: it,rec,kS,kL,kH=      80    -2  15   1  15 file=pickup.0000000080
(PID.TID 0000.0001)  MDS_WRITE_FIELD: it,rec,kS,kL,kH=      80    -3  15   1  15 file=pickup.0000000080
(PID.TID 0000.0001)  MDS_WRITE_FIELD: it,rec,kS,kL,kH=      80    -4  15   1  15 file=pickup.0000000080
(PID.TID 0000.0001)  MDS_WRITE_FIELD: it,rec,kS,kL,kH=      80    -5  15   1  15 file=pickup.0000000080
(PID.TID 0000.0001)  MDS_WRITE_FIELD: it,rec,kS,kL,kH=      80    -6  15   1  15 file=pickup.0000000080
(PID.TID 0000.0001)  MDS_WRITE_FIELD: it,rec,kS,kL,kH=      80    -7  15   1  15 file=pickup.0000000080
(PID.TID 0000.0001)  MDS_WRITE_FIELD: it,rec,kS,kL,kH=      80    -8  15   1  15 file=pickup.0000000080
(PID.TID 0000.0001)  MDS_WRITE_FIELD: it,rec,kS,kL,kH=      80  -121   1   1   1 file=pickup.0000000080
(PID.TID 0000.0001)  MDS_WRITE_FIELD: it,rec,kS,kL,kH=      80  -122   1   1   1 file=pickup.0000000080
(PID.TID 0000.0001)  MDS_WRITE_FIELD: it,rec,kS,kL,kH=      80  -123   1   1   1 file=pickup.0000000080
(PID.TID 0000.0001) %CHECKPOINT        80 0000000080
 EXTERNAL_FIELDS_LOAD,        80 : iP,iLd,i0,i1=    3    4    3    4 ; Wght=  0.8333333333  0.1666666667
 EXTERNAL_FIELDS_LOAD: (fu0,1),fu,fv= -2.7199E-02 -3.7252E-02 -2.8874E-02 -6.3511E-03
 EXTERNAL_FIELDS_LOAD: SST,SSS,Q,E-P= -1.4736E-01  3.4577E+01  1.9685E+02  8.8622E-06
DEBUG_STATS_RL:          Uvel (THERMODYNAMICS)  min= -1.27327228325314E-01
DEBUG_STATS_RL:          Uvel (THERMODYNAMICS)  max=  1.57776021260703E-01
DEBUG_STATS_RL:          Uvel (THERMODYNAMICS) mean=  6.39679694174693E-03
DEBUG_STATS_RL:          Uvel (THERMODYNAMICS) S.D.=  2.37904594686139E-02
DEBUG_STATS_RL:          Vvel (THERMODYNAMICS)  min= -9.65825145277183E-02
DEBUG_STATS_RL:          Vvel (THERMODYNAMICS)  max=  1.43291262925802E-01
DEBUG_STATS_RL:          Vvel (THERMODYNAMICS) mean=  1.01670322416827E-03
DEBUG_STATS_RL:          Vvel (THERMODYNAMICS) S.D.=  1.43497480529007E-02
DEBUG_STATS_RL:          Wvel (THERMODYNAMICS)  min= -8.84990140765479E-05
DEBUG_STATS_RL:          Wvel (THERMODYNAMICS)  max=  2.26421359994697E-04
DEBUG_STATS_RL:          Wvel (THERMODYNAMICS) mean=  1.32848525147987E-08
DEBUG_STATS_RL:          Wvel (THERMODYNAMICS) S.D.=  1.10089220222266E-05
DEBUG_STATS_RL:         Theta (THERMODYNAMICS)  min= -1.94497974522296E+00
DEBUG_STATS_RL:         Theta (THERMODYNAMICS)  max=  3.10374884491131E+01
DEBUG_STATS_RL:         Theta (THERMODYNAMICS) mean=  3.24111270897129E+00
DEBUG_STATS_RL:         Theta (THERMODYNAMICS) S.D.=  5.88672977219836E+00
DEBUG_STATS_RL:          Salt (THERMODYNAMICS)  min=  2.00000000000000E-02
DEBUG_STATS_RL:          Salt (THERMODYNAMICS)  max=  3.74839258920997E+01
DEBUG_STATS_RL:          Salt (THERMODYNAMICS) mean=  1.88648007930982E+01
DEBUG_STATS_RL:          Salt (THERMODYNAMICS) S.D.=  1.73003481234142E+01
DEBUG_STATS_RL:         GtNm1 (THERMODYNAMICS)  min= -2.81963153728532E-06
DEBUG_STATS_RL:         GtNm1 (THERMODYNAMICS)  max=  2.02520051302899E-06
DEBUG_STATS_RL:         GtNm1 (THERMODYNAMICS) mean=  7.23550670357990E-11
DEBUG_STATS_RL:         GtNm1 (THERMODYNAMICS) S.D.=  1.53587185692398E-07
DEBUG_STATS_RL:         GsNm1 (THERMODYNAMICS)  min= -3.41360936787529E-07
DEBUG_STATS_RL:         GsNm1 (THERMODYNAMICS)  max=  2.29994143669812E-07
DEBUG_STATS_RL:         GsNm1 (THERMODYNAMICS) mean=  2.06868583273889E-12
DEBUG_STATS_RL:         GsNm1 (THERMODYNAMICS) S.D.=  1.42679740216120E-08
DEBUG_STATS_RL:                EtaN (DYNAMICS)  min= -2.20779571583012E+00
DEBUG_STATS_RL:                EtaN (DYNAMICS)  max=  1.17556607578907E+00
DEBUG_STATS_RL:                EtaN (DYNAMICS) mean= -2.11525419444634E-01
DEBUG_STATS_RL:                EtaN (DYNAMICS) S.D.=  8.75053502450906E-01
DEBUG_STATS_RL:                Uvel (DYNAMICS)  min= -1.27327228325314E-01
DEBUG_STATS_RL:                Uvel (DYNAMICS)  max=  1.57776021260703E-01
DEBUG_STATS_RL:                Uvel (DYNAMICS) mean=  6.39679694174693E-03
DEBUG_STATS_RL:                Uvel (DYNAMICS) S.D.=  2.37904594686139E-02
DEBUG_STATS_RL:                Vvel (DYNAMICS)  min= -9.65825145277183E-02
DEBUG_STATS_RL:                Vvel (DYNAMICS)  max=  1.43291262925802E-01
DEBUG_STATS_RL:                Vvel (DYNAMICS) mean=  1.01670322416827E-03
DEBUG_STATS_RL:                Vvel (DYNAMICS) S.D.=  1.43497480529007E-02
DEBUG_STATS_RL:                Wvel (DYNAMICS)  min= -8.84990140765479E-05
DEBUG_STATS_RL:                Wvel (DYNAMICS)  max=  2.26421359994697E-04
DEBUG_STATS_RL:                Wvel (DYNAMICS) mean=  1.32848525147987E-08
DEBUG_STATS_RL:                Wvel (DYNAMICS) S.D.=  1.10089220222266E-05
DEBUG_STATS_RL:               Theta (DYNAMICS)  min= -1.94497974522296E+00
DEBUG_STATS_RL:               Theta (DYNAMICS)  max=  3.10374884491131E+01
DEBUG_STATS_RL:               Theta (DYNAMICS) mean=  3.24111270897129E+00
DEBUG_STATS_RL:               Theta (DYNAMICS) S.D.=  5.88672977219836E+00
DEBUG_STATS_RL:                Salt (DYNAMICS)  min=  2.00000000000000E-02
DEBUG_STATS_RL:                Salt (DYNAMICS)  max=  3.74839258920997E+01
DEBUG_STATS_RL:                Salt (DYNAMICS) mean=  1.88648007930982E+01
DEBUG_STATS_RL:                Salt (DYNAMICS) S.D.=  1.73003481234142E+01
DEBUG_STATS_RL:                  Gu (DYNAMICS)  min= -1.26595821040439E-01
DEBUG_STATS_RL:                  Gu (DYNAMICS)  max=  1.64920921376144E-01
DEBUG_STATS_RL:                  Gu (DYNAMICS) mean=  6.40330173816047E-03
DEBUG_STATS_RL:                  Gu (DYNAMICS) S.D.=  2.41127295970587E-02
DEBUG_STATS_RL:                  Gv (DYNAMICS)  min= -1.02913118922857E-01
DEBUG_STATS_RL:                  Gv (DYNAMICS)  max=  1.43312766733750E-01
DEBUG_STATS_RL:                  Gv (DYNAMICS) mean=  3.65731917405591E-03
DEBUG_STATS_RL:                  Gv (DYNAMICS) S.D.=  1.58222995583573E-02
DEBUG_STATS_RL:               GuNm1 (DYNAMICS)  min= -1.08928711529071E-05
DEBUG_STATS_RL:               GuNm1 (DYNAMICS)  max=  9.29952816900868E-06
DEBUG_STATS_RL:               GuNm1 (DYNAMICS) mean=  1.02383555846869E-08
DEBUG_STATS_RL:               GuNm1 (DYNAMICS) S.D.=  1.22813671208485E-06
DEBUG_STATS_RL:               GvNm1 (DYNAMICS)  min= -9.62063838876276E-06
DEBUG_STATS_RL:               GvNm1 (DYNAMICS)  max=  1.55122004835058E-05
DEBUG_STATS_RL:               GvNm1 (DYNAMICS) mean=  7.37660867994871E-07
DEBUG_STATS_RL:               GvNm1 (DYNAMICS) S.D.=  2.62109149082800E-06
DEBUG_STATS_RL:               GtNm1 (DYNAMICS)  min= -2.81963153728532E-06
DEBUG_STATS_RL:               GtNm1 (DYNAMICS)  max=  2.02520051302899E-06
DEBUG_STATS_RL:               GtNm1 (DYNAMICS) mean=  7.23550670357990E-11
DEBUG_STATS_RL:               GtNm1 (DYNAMICS) S.D.=  1.53587185692398E-07
DEBUG_STATS_RL:               GsNm1 (DYNAMICS)  min= -3.41360936787529E-07
DEBUG_STATS_RL:               GsNm1 (DYNAMICS)  max=  2.29994143669812E-07
DEBUG_STATS_RL:               GsNm1 (DYNAMICS) mean=  2.06868583273889E-12
DEBUG_STATS_RL:               GsNm1 (DYNAMICS) S.D.=  1.42679740216120E-08
DEBUG_STATS_RL:    cg2d_b (SOLVE_FOR_PRESSURE)  min= -2.63101490266073E+04
DEBUG_STATS_RL:    cg2d_b (SOLVE_FOR_PRESSURE)  max=  2.89061313317310E+04
DEBUG_STATS_RL:    cg2d_b (SOLVE_FOR_PRESSURE) mean=  5.29910929113816E+00
DEBUG_STATS_RL:    cg2d_b (SOLVE_FOR_PRESSURE) S.D.=  4.05957577890639E+03
 cg2d: Sum(rhs),rhsMax =   4.24388786870231E-01  1.89863209988734E+00
(PID.TID 0000.0001)  cg2d: iter=     1 ; resid.=  1.24859191770915E-01
(PID.TID 0000.0001)  cg2d: iter=     2 ; resid.=  9.12576243839910E-02
(PID.TID 0000.0001)  cg2d: iter=     3 ; resid.=  8.54943741043285E-02
(PID.TID 0000.0001)  cg2d: iter=     4 ; resid.=  7.99575684419525E-02
(PID.TID 0000.0001)  cg2d: iter=     5 ; resid.=  6.06653359225691E-02
(PID.TID 0000.0001)  cg2d: iter=     6 ; resid.=  4.86802876895505E-02
(PID.TID 0000.0001)  cg2d: iter=     7 ; resid.=  4.38130894868568E-02
(PID.TID 0000.0001)  cg2d: iter=     8 ; resid.=  3.94395849560887E-02
(PID.TID 0000.0001)  cg2d: iter=     9 ; resid.=  3.29134524599127E-02
(PID.TID 0000.0001)  cg2d: iter=    10 ; resid.=  2.75677845335360E-02
(PID.TID 0000.0001)  cg2d: iter=    11 ; resid.=  2.21732053940695E-02
(PID.TID 0000.0001)  cg2d: iter=    12 ; resid.=  1.88223121501926E-02
(PID.TID 0000.0001)  cg2d: iter=    13 ; resid.=  1.49906394855419E-02
(PID.TID 0000.0001)  cg2d: iter=    14 ; resid.=  1.21993108193402E-02
(PID.TID 0000.0001)  cg2d: iter=    15 ; resid.=  1.00283566066746E-02
(PID.TID 0000.0001)  cg2d: iter=    16 ; resid.=  7.69440405096863E-03
(PID.TID 0000.0001)  cg2d: iter=    17 ; resid.=  6.59141081990432E-03
(PID.TID 0000.0001)  cg2d: iter=    18 ; resid.=  5.74759678402449E-03
(PID.TID 0000.0001)  cg2d: iter=    19 ; resid.=  4.65826760650385E-03
(PID.TID 0000.0001)  cg2d: iter=    20 ; resid.=  4.16910067754076E-03
(PID.TID 0000.0001)  cg2d: iter=    21 ; resid.=  3.40046380838902E-03
(PID.TID 0000.0001)  cg2d: iter=    22 ; resid.=  3.22872595029960E-03
(PID.TID 0000.0001)  cg2d: iter=    23 ; resid.=  2.76659577442101E-03
(PID.TID 0000.0001)  cg2d: iter=    24 ; resid.=  2.16117315392295E-03
(PID.TID 0000.0001)  cg2d: iter=    25 ; resid.=  1.76369282892800E-03
(PID.TID 0000.0001)  cg2d: iter=    26 ; resid.=  1.43742898322908E-03
(PID.TID 0000.0001)  cg2d: iter=    27 ; resid.=  1.24932003158797E-03
(PID.TID 0000.0001)  cg2d: iter=    28 ; resid.=  1.08218768217038E-03
(PID.TID 0000.0001)  cg2d: iter=    29 ; resid.=  9.17874560893218E-04
(PID.TID 0000.0001)  cg2d: iter=    30 ; resid.=  7.28127838585178E-04
(PID.TID 0000.0001)  cg2d: iter=    31 ; resid.=  5.65625136208300E-04
(PID.TID 0000.0001)  cg2d: iter=    32 ; resid.=  4.33501787452749E-04
(PID.TID 0000.0001)  cg2d: iter=    33 ; resid.=  3.53288851246984E-04
(PID.TID 0000.0001)  cg2d: iter=    34 ; resid.=  2.91899989072552E-04
(PID.TID 0000.0001)  cg2d: iter=    35 ; resid.=  2.48783435554180E-04
(PID.TID 0000.0001)  cg2d: iter=    36 ; resid.=  2.16947777082218E-04
(PID.TID 0000.0001)  cg2d: iter=    37 ; resid.=  1.85444221413765E-04
(PID.TID 0000.0001)  cg2d: iter=    38 ; resid.=  1.51813777865072E-04
(PID.TID 0000.0001)  cg2d: iter=    39 ; resid.=  1.30086513982523E-04
(PID.TID 0000.0001)  cg2d: iter=    40 ; resid.=  1.11213812284801E-04
(PID.TID 0000.0001)  cg2d: iter=    41 ; resid.=  9.56921809773875E-05
(PID.TID 0000.0001)  cg2d: iter=    42 ; resid.=  8.29117819199952E-05
(PID.TID 0000.0001)  cg2d: iter=    43 ; resid.=  7.62262696878250E-05
(PID.TID 0000.0001)  cg2d: iter=    44 ; resid.=  6.41855601327404E-05
(PID.TID 0000.0001)  cg2d: iter=    45 ; resid.=  5.13357436506291E-05
(PID.TID 0000.0001)  cg2d: iter=    46 ; resid.=  4.03178475552494E-05
(PID.TID 0000.0001)  cg2d: iter=    47 ; resid.=  3.21132340445410E-05
(PID.TID 0000.0001)  cg2d: iter=    48 ; resid.=  2.81612638837761E-05
(PID.TID 0000.0001)  cg2d: iter=    49 ; resid.=  2.26866581961942E-05
(PID.TID 0000.0001)  cg2d: iter=    50 ; resid.=  1.81528091978691E-05
(PID.TID 0000.0001)  cg2d: iter=    51 ; resid.=  1.53379980064583E-05
(PID.TID 0000.0001)  cg2d: iter=    52 ; resid.=  1.34595265424329E-05
(PID.TID 0000.0001)  cg2d: iter=    53 ; resid.=  1.25889852184554E-05
(PID.TID 0000.0001)  cg2d: iter=    54 ; resid.=  1.06403599208237E-05
(PID.TID 0000.0001)  cg2d: iter=    55 ; resid.=  9.52029988558402E-06
(PID.TID 0000.0001)  cg2d: iter=    56 ; resid.=  7.80225861091912E-06
(PID.TID 0000.0001)  cg2d: iter=    57 ; resid.=  6.52631827001696E-06
(PID.TID 0000.0001)  cg2d: iter=    58 ; resid.=  4.69790592329768E-06
(PID.TID 0000.0001)  cg2d: iter=    59 ; resid.=  3.46824873400674E-06
(PID.TID 0000.0001)  cg2d: iter=    60 ; resid.=  2.75224629921381E-06
(PID.TID 0000.0001)  cg2d: iter=    61 ; resid.=  2.15625131064979E-06
(PID.TID 0000.0001)  cg2d: iter=    62 ; resid.=  1.60341930275943E-06
(PID.TID 0000.0001)  cg2d: iter=    63 ; resid.=  1.22991113586548E-06
(PID.TID 0000.0001)  cg2d: iter=    64 ; resid.=  9.72702450057172E-07
(PID.TID 0000.0001)  cg2d: iter=    65 ; resid.=  8.20174879343572E-07
(PID.TID 0000.0001)  cg2d: iter=    66 ; resid.=  6.43642096541146E-07
(PID.TID 0000.0001)  cg2d: iter=    67 ; resid.=  5.31388730353281E-07
(PID.TID 0000.0001)  cg2d: iter=    68 ; resid.=  4.57568950518610E-07
(PID.TID 0000.0001)  cg2d: iter=    69 ; resid.=  4.07821404726558E-07
(PID.TID 0000.0001)  cg2d: iter=    70 ; resid.=  3.45557524188824E-07
(PID.TID 0000.0001)  cg2d: iter=    71 ; resid.=  2.87754971493596E-07
(PID.TID 0000.0001)  cg2d: iter=    72 ; resid.=  2.65827029372425E-07
(PID.TID 0000.0001)  cg2d: iter=    73 ; resid.=  2.27163362235701E-07
(PID.TID 0000.0001)  cg2d: iter=    74 ; resid.=  1.86616364686669E-07
(PID.TID 0000.0001)  cg2d: iter=    75 ; resid.=  1.48162119161934E-07
(PID.TID 0000.0001)  cg2d: iter=    76 ; resid.=  1.20501980424696E-07
(PID.TID 0000.0001)  cg2d: iter=    77 ; resid.=  9.95065352934327E-08
(PID.TID 0000.0001)  cg2d: iter=    78 ; resid.=  8.03089431166347E-08
(PID.TID 0000.0001)  cg2d: iter=    79 ; resid.=  6.52959375552167E-08
(PID.TID 0000.0001)  cg2d: iter=    80 ; resid.=  5.34044187051141E-08
(PID.TID 0000.0001)  cg2d: iter=    81 ; resid.=  4.18117227984089E-08
(PID.TID 0000.0001)  cg2d: iter=    82 ; resid.=  3.16435531933234E-08
(PID.TID 0000.0001)  cg2d: iter=    83 ; resid.=  2.42914254720737E-08
(PID.TID 0000.0001)  cg2d: iter=    84 ; resid.=  1.92728569656990E-08
(PID.TID 0000.0001)  cg2d: iter=    85 ; resid.=  1.32474410738450E-08
(PID.TID 0000.0001)  cg2d: iter=    86 ; resid.=  9.30400271872996E-09
(PID.TID 0000.0001)  cg2d: iter=    87 ; resid.=  7.55149912140355E-09
(PID.TID 0000.0001)  cg2d: iter=    88 ; resid.=  5.79258257278991E-09
(PID.TID 0000.0001)  cg2d: iter=    89 ; resid.=  4.61064816562903E-09
(PID.TID 0000.0001)  cg2d: iter=    90 ; resid.=  4.03178551075263E-09
(PID.TID 0000.0001)  cg2d: iter=    91 ; resid.=  3.38717637321164E-09
(PID.TID 0000.0001)  cg2d: iter=    92 ; resid.=  2.98196447719539E-09
(PID.TID 0000.0001)  cg2d: iter=    93 ; resid.=  2.21510748305699E-09
(PID.TID 0000.0001)  cg2d: iter=    94 ; resid.=  1.84707037415136E-09
(PID.TID 0000.0001)  cg2d: iter=    95 ; resid.=  1.60212835044073E-09
(PID.TID 0000.0001)  cg2d: iter=    96 ; resid.=  1.29011067945493E-09
(PID.TID 0000.0001)  cg2d: iter=    97 ; resid.=  1.11680533767038E-09
(PID.TID 0000.0001)  cg2d: iter=    98 ; resid.=  8.79312157555605E-10
(PID.TID 0000.0001)  cg2d: iter=    99 ; resid.=  7.50573192713320E-10
(PID.TID 0000.0001)  cg2d: iter=   100 ; resid.=  5.76815949780765E-10
(PID.TID 0000.0001)  cg2d: iter=   101 ; resid.=  4.35146606412546E-10
(PID.TID 0000.0001)  cg2d: iter=   102 ; resid.=  3.44019439290214E-10
(PID.TID 0000.0001)  cg2d: iter=   103 ; resid.=  2.56084094564290E-10
(PID.TID 0000.0001)  cg2d: iter=   104 ; resid.=  1.97441337330439E-10
(PID.TID 0000.0001)  cg2d: iter=   105 ; resid.=  1.60714355192677E-10
(PID.TID 0000.0001)  cg2d: iter=   106 ; resid.=  1.22489602767769E-10
(PID.TID 0000.0001)  cg2d: iter=   107 ; resid.=  8.90948756810004E-11
(PID.TID 0000.0001)  cg2d: iter=   108 ; resid.=  7.72704077641878E-11
(PID.TID 0000.0001)  cg2d: iter=   109 ; resid.=  5.68050632653579E-11
(PID.TID 0000.0001)  cg2d: iter=   110 ; resid.=  4.27781091412741E-11
(PID.TID 0000.0001)  cg2d: iter=   111 ; resid.=  3.52614631529571E-11
(PID.TID 0000.0001)  cg2d: iter=   112 ; resid.=  2.74699730074873E-11
(PID.TID 0000.0001)  cg2d: iter=   113 ; resid.=  2.13023392483692E-11
(PID.TID 0000.0001)  cg2d: iter=   114 ; resid.=  1.63010719734438E-11
(PID.TID 0000.0001)  cg2d: iter=   115 ; resid.=  1.21330697066121E-11
(PID.TID 0000.0001)  cg2d: iter=   116 ; resid.=  8.73657747596772E-12
(PID.TID 0000.0001)  cg2d: iter=   117 ; resid.=  6.62870317212477E-12
(PID.TID 0000.0001)  cg2d: iter=   118 ; resid.=  5.08987306277708E-12
(PID.TID 0000.0001)  cg2d: iter=   119 ; resid.=  3.84634036801436E-12
(PID.TID 0000.0001)  cg2d: iter=   120 ; resid.=  2.74374105899982E-12
(PID.TID 0000.0001)  cg2d: iter=   121 ; resid.=  2.07519519929360E-12
(PID.TID 0000.0001)  cg2d: iter=   122 ; resid.=  1.76494034664125E-12
(PID.TID 0000.0001)  cg2d: iter=   123 ; resid.=  1.45238667352251E-12
(PID.TID 0000.0001)  cg2d: iter=   124 ; resid.=  1.19950431687677E-12
(PID.TID 0000.0001)  cg2d: iter=   125 ; resid.=  9.44670090239496E-13
(PID.TID 0000.0001)  cg2d: iter=   126 ; resid.=  7.18373983194945E-13
(PID.TID 0000.0001)  cg2d: iter=   127 ; resid.=  4.95566376322244E-13
(PID.TID 0000.0001)  cg2d: iter=   128 ; resid.=  3.00800213523532E-13
(PID.TID 0000.0001)  cg2d: iter=   129 ; resid.=  1.89178319787869E-13
(PID.TID 0000.0001)  cg2d: iter=   130 ; resid.=  1.34251292226874E-13
(PID.TID 0000.0001)  cg2d: iter=   131 ; resid.=  1.00073320032923E-13
(PID.TID 0000.0001)  cg2d: iter=   132 ; resid.=  7.41610080164922E-14
DEBUG_STATS_RL:    cg2d_x (SOLVE_FOR_PRESSURE)  min= -2.15029094793609E+01
DEBUG_STATS_RL:    cg2d_x (SOLVE_FOR_PRESSURE)  max=  1.13739506852120E+01
DEBUG_STATS_RL:    cg2d_x (SOLVE_FOR_PRESSURE) mean= -2.06616558391814E+00
DEBUG_STATS_RL:    cg2d_x (SOLVE_FOR_PRESSURE) S.D.=  8.47811231985889E+00
(PID.TID 0000.0001)      cg2d_init_res =   2.56867276697707E-01
(PID.TID 0000.0001)      cg2d_iters(min,last) =      -1     132
(PID.TID 0000.0001)      cg2d_last_res =   7.41610080164922E-14
(PID.TID 0000.0001) // =======================================================
(PID.TID 0000.0001) // Begin MONITOR dynamic field statistics
(PID.TID 0000.0001) // =======================================================
(PID.TID 0000.0001) %MON time_tsnumber                =                    81
(PID.TID 0000.0001) %MON time_secondsf                =   6.9984000000000E+06
(PID.TID 0000.0001) %MON dynstat_eta_max              =   1.1594241269329E+00
(PID.TID 0000.0001) %MON dynstat_eta_min              =  -2.1919377654804E+00
(PID.TID 0000.0001) %MON dynstat_eta_mean             =  -5.5289634774427E-03
(PID.TID 0000.0001) %MON dynstat_eta_sd               =   7.7320244904472E-01
(PID.TID 0000.0001) %MON dynstat_eta_del2             =   2.5388470278856E-03
(PID.TID 0000.0001) %MON dynstat_uvel_max             =   1.5998974642873E-01
(PID.TID 0000.0001) %MON dynstat_uvel_min             =  -1.2916832357323E-01
(PID.TID 0000.0001) %MON dynstat_uvel_mean            =   2.4693968395010E-03
(PID.TID 0000.0001) %MON dynstat_uvel_sd              =   1.6555418433458E-02
(PID.TID 0000.0001) %MON dynstat_uvel_del2            =   1.1513464189530E-04
(PID.TID 0000.0001) %MON dynstat_vvel_max             =   1.4221259571555E-01
(PID.TID 0000.0001) %MON dynstat_vvel_min             =  -9.9753925232532E-02
(PID.TID 0000.0001) %MON dynstat_vvel_mean            =  -3.0761636026603E-05
(PID.TID 0000.0001) %MON dynstat_vvel_sd              =   9.1503212103217E-03
(PID.TID 0000.0001) %MON dynstat_vvel_del2            =   8.2196598134641E-05
(PID.TID 0000.0001) %MON dynstat_wvel_max             =   2.3317151976369E-04
(PID.TID 0000.0001) %MON dynstat_wvel_min             =  -9.0292530929017E-05
(PID.TID 0000.0001) %MON dynstat_wvel_mean            =  -1.4976377085098E-23
(PID.TID 0000.0001) %MON dynstat_wvel_sd              =   1.2414663626542E-05
(PID.TID 0000.0001) %MON dynstat_wvel_del2            =   1.2334337190782E-07
(PID.TID 0000.0001) %MON dynstat_theta_max            =   3.1037488449113E+01
(PID.TID 0000.0001) %MON dynstat_theta_min            =  -1.9449797452230E+00
(PID.TID 0000.0001) %MON dynstat_theta_mean           =   3.6439413193413E+00
(PID.TID 0000.0001) %MON dynstat_theta_sd             =   4.4274568576963E+00
(PID.TID 0000.0001) %MON dynstat_theta_del2           =   4.8616059073147E-03
(PID.TID 0000.0001) %MON dynstat_salt_max             =   3.7483925892100E+01
(PID.TID 0000.0001) %MON dynstat_salt_min             =   2.9927928998410E+01
(PID.TID 0000.0001) %MON dynstat_salt_mean            =   3.4738027898126E+01
(PID.TID 0000.0001) %MON dynstat_salt_sd              =   2.9663642744467E-01
(PID.TID 0000.0001) %MON dynstat_salt_del2            =   9.9496229229732E-04
(PID.TID 0000.0001) %MON dynstat_sst_max              =   3.1037488449113E+01
(PID.TID 0000.0001) %MON dynstat_sst_min              =  -1.9449797452230E+00
(PID.TID 0000.0001) %MON dynstat_sst_mean             =   1.9080273391866E+01
(PID.TID 0000.0001) %MON dynstat_sst_sd               =   9.1879512844421E+00
(PID.TID 0000.0001) %MON dynstat_sst_del2             =   2.8977769579741E-02
(PID.TID 0000.0001) %MON dynstat_sss_max              =   3.7480466631886E+01
(PID.TID 0000.0001) %MON dynstat_sss_min              =   2.9927928998410E+01
(PID.TID 0000.0001) %MON dynstat_sss_mean             =   3.4858433729624E+01
(PID.TID 0000.0001) %MON dynstat_sss_sd               =   9.8747771456270E-01
(PID.TID 0000.0001) %MON dynstat_sss_del2             =   8.2116270093525E-03
(PID.TID 0000.0001) %MON forcing_qnet_max             =   2.5098151652018E+02
(PID.TID 0000.0001) %MON forcing_qnet_min             =  -1.6171560923258E+02
(PID.TID 0000.0001) %MON forcing_qnet_mean            =  -5.2798838452964E+00
(PID.TID 0000.0001) %MON forcing_qnet_sd              =   4.2422430545569E+01
(PID.TID 0000.0001) %MON forcing_qnet_del2            =   8.1785036435017E-01
(PID.TID 0000.0001) %MON forcing_qsw_max              =   0.0000000000000E+00
(PID.TID 0000.0001) %MON forcing_qsw_min              =   0.0000000000000E+00
(PID.TID 0000.0001) %MON forcing_qsw_mean             =   0.0000000000000E+00
(PID.TID 0000.0001) %MON forcing_qsw_sd               =   0.0000000000000E+00
(PID.TID 0000.0001) %MON forcing_qsw_del2             =   0.0000000000000E+00
(PID.TID 0000.0001) %MON forcing_empmr_max            =   6.8627966716880E-05
(PID.TID 0000.0001) %MON forcing_empmr_min            =  -8.3338647982600E-05
(PID.TID 0000.0001) %MON forcing_empmr_mean           =   4.3848422954086E-07
(PID.TID 0000.0001) %MON forcing_empmr_sd             =   2.5959291357545E-05
(PID.TID 0000.0001) %MON forcing_empmr_del2           =   3.6379540965220E-07
(PID.TID 0000.0001) %MON forcing_fu_max               =   3.5326997439067E-01
(PID.TID 0000.0001) %MON forcing_fu_min               =  -3.9322178065777E-01
(PID.TID 0000.0001) %MON forcing_fu_mean              =   1.9820768815724E-02
(PID.TID 0000.0001) %MON forcing_fu_sd                =   1.0094744547946E-01
(PID.TID 0000.0001) %MON forcing_fu_del2              =   8.0814335674264E-04
(PID.TID 0000.0001) %MON forcing_fv_max               =   1.8282033999761E-01
(PID.TID 0000.0001) %MON forcing_fv_min               =  -1.7629306515058E-01
(PID.TID 0000.0001) %MON forcing_fv_mean              =  -7.3471920781794E-03
(PID.TID 0000.0001) %MON forcing_fv_sd                =   4.0771862552171E-02
(PID.TID 0000.0001) %MON forcing_fv_del2              =   4.6338645656999E-04
(PID.TID 0000.0001) %MON trAdv_CFL_u_max              =   4.1256529510012E-02
(PID.TID 0000.0001) %MON trAdv_CFL_v_max              =   2.7725749011887E-02
(PID.TID 0000.0001) %MON trAdv_CFL_w_max              =   5.0161039752671E-02
(PID.TID 0000.0001) %MON advcfl_uvel_max              =   4.1826896640360E-02
(PID.TID 0000.0001) %MON advcfl_vvel_max              =   2.7629626531710E-02
(PID.TID 0000.0001) %MON advcfl_wvel_max              =   5.5194573445434E-02
(PID.TID 0000.0001) %MON advcfl_W_hf_max              =   5.9252997963480E-02
(PID.TID 0000.0001) %MON pe_b_mean                    =   7.6505005068494E-04
(PID.TID 0000.0001) %MON ke_max                       =   1.4997051451922E-02
(PID.TID 0000.0001) %MON ke_mean                      =   1.6487968736733E-04
(PID.TID 0000.0001) %MON ke_vol                       =   1.3226782436723E+18
(PID.TID 0000.0001) %MON vort_r_min                   =  -3.9121296961619E-07
(PID.TID 0000.0001) %MON vort_r_max                   =   3.9811731657644E-07
(PID.TID 0000.0001) %MON vort_a_mean                  =  -2.5274806841512E-05
(PID.TID 0000.0001) %MON vort_a_sd                    =   7.3604650604248E-05
(PID.TID 0000.0001) %MON vort_p_mean                  =  -3.1845655099002E-05
(PID.TID 0000.0001) %MON vort_p_sd                    =   1.3162547454775E-04
(PID.TID 0000.0001) %MON surfExpan_theta_mean         =  -2.7144487945027E-07
(PID.TID 0000.0001) %MON surfExpan_salt_mean          =   9.2221581946567E-08
(PID.TID 0000.0001) // =======================================================
(PID.TID 0000.0001) // End MONITOR dynamic field statistics
(PID.TID 0000.0001) // =======================================================
 EXTERNAL_FIELDS_LOAD,        81 : iP,iLd,i0,i1=    3    4    3    4 ; Wght=  0.8000000000  0.2000000000
 EXTERNAL_FIELDS_LOAD: (fu0,1),fu,fv= -2.7199E-02 -3.7252E-02 -2.9210E-02 -7.5057E-03
 EXTERNAL_FIELDS_LOAD: SST,SSS,Q,E-P= -1.4006E-01  3.4577E+01  1.9314E+02  8.8184E-06
DEBUG_STATS_RL:          Uvel (THERMODYNAMICS)  min= -1.29168323573232E-01
DEBUG_STATS_RL:          Uvel (THERMODYNAMICS)  max=  1.59989746428733E-01
DEBUG_STATS_RL:          Uvel (THERMODYNAMICS) mean=  6.37283401513525E-03
DEBUG_STATS_RL:          Uvel (THERMODYNAMICS) S.D.=  2.37035700797574E-02
DEBUG_STATS_RL:          Vvel (THERMODYNAMICS)  min= -9.97539252325325E-02
DEBUG_STATS_RL:          Vvel (THERMODYNAMICS)  max=  1.42212595715554E-01
DEBUG_STATS_RL:          Vvel (THERMODYNAMICS) mean=  1.05896853283834E-03
DEBUG_STATS_RL:          Vvel (THERMODYNAMICS) S.D.=  1.43291545569811E-02
DEBUG_STATS_RL:          Wvel (THERMODYNAMICS)  min= -9.02925309290168E-05
DEBUG_STATS_RL:          Wvel (THERMODYNAMICS)  max=  2.33171519763695E-04
DEBUG_STATS_RL:          Wvel (THERMODYNAMICS) mean=  1.75668536021661E-08
DEBUG_STATS_RL:          Wvel (THERMODYNAMICS) S.D.=  1.09723896557781E-05
DEBUG_STATS_RL:         Theta (THERMODYNAMICS)  min= -1.94372875873149E+00
DEBUG_STATS_RL:         Theta (THERMODYNAMICS)  max=  3.10590301180109E+01
DEBUG_STATS_RL:         Theta (THERMODYNAMICS) mean=  3.24106411702955E+00
DEBUG_STATS_RL:         Theta (THERMODYNAMICS) S.D.=  5.88708768892769E+00
DEBUG_STATS_RL:          Salt (THERMODYNAMICS)  min=  2.00000000000000E-02
DEBUG_STATS_RL:          Salt (THERMODYNAMICS)  max=  3.74836063248341E+01
DEBUG_STATS_RL:          Salt (THERMODYNAMICS) mean=  1.88648017544428E+01
DEBUG_STATS_RL:          Salt (THERMODYNAMICS) S.D.=  1.73003497488024E+01
DEBUG_STATS_RL:         GtNm1 (THERMODYNAMICS)  min= -2.83228361027155E-06
DEBUG_STATS_RL:         GtNm1 (THERMODYNAMICS)  max=  1.88526646848192E-06
DEBUG_STATS_RL:         GtNm1 (THERMODYNAMICS) mean= -1.28699967395878E-10
DEBUG_STATS_RL:         GtNm1 (THERMODYNAMICS) S.D.=  1.53346931099790E-07
DEBUG_STATS_RL:         GsNm1 (THERMODYNAMICS)  min= -4.36235569039321E-07
DEBUG_STATS_RL:         GsNm1 (THERMODYNAMICS)  max=  2.87157548966413E-07
DEBUG_STATS_RL:         GsNm1 (THERMODYNAMICS) mean= -2.86024511035959E-11
DEBUG_STATS_RL:         GsNm1 (THERMODYNAMICS) S.D.=  1.44775633296961E-08
DEBUG_STATS_RL:                EtaN (DYNAMICS)  min= -2.19193776548040E+00
DEBUG_STATS_RL:                EtaN (DYNAMICS)  max=  1.15942412693290E+00
DEBUG_STATS_RL:                EtaN (DYNAMICS) mean= -2.10618306209800E-01
DEBUG_STATS_RL:                EtaN (DYNAMICS) S.D.=  8.64231633013142E-01
DEBUG_STATS_RL:                Uvel (DYNAMICS)  min= -1.29168323573232E-01
DEBUG_STATS_RL:                Uvel (DYNAMICS)  max=  1.59989746428733E-01
DEBUG_STATS_RL:                Uvel (DYNAMICS) mean=  6.37283401513525E-03
DEBUG_STATS_RL:                Uvel (DYNAMICS) S.D.=  2.37035700797574E-02
DEBUG_STATS_RL:                Vvel (DYNAMICS)  min= -9.97539252325325E-02
DEBUG_STATS_RL:                Vvel (DYNAMICS)  max=  1.42212595715554E-01
DEBUG_STATS_RL:                Vvel (DYNAMICS) mean=  1.05896853283834E-03
DEBUG_STATS_RL:                Vvel (DYNAMICS) S.D.=  1.43291545569811E-02
DEBUG_STATS_RL:                Wvel (DYNAMICS)  min= -9.02925309290168E-05
DEBUG_STATS_RL:                Wvel (DYNAMICS)  max=  2.33171519763695E-04
DEBUG_STATS_RL:                Wvel (DYNAMICS) mean=  1.75668536021661E-08
DEBUG_STATS_RL:                Wvel (DYNAMICS) S.D.=  1.09723896557781E-05
DEBUG_STATS_RL:               Theta (DYNAMICS)  min= -1.94372875873149E+00
DEBUG_STATS_RL:               Theta (DYNAMICS)  max=  3.10590301180109E+01
DEBUG_STATS_RL:               Theta (DYNAMICS) mean=  3.24106411702955E+00
DEBUG_STATS_RL:               Theta (DYNAMICS) S.D.=  5.88708768892769E+00
DEBUG_STATS_RL:                Salt (DYNAMICS)  min=  2.00000000000000E-02
DEBUG_STATS_RL:                Salt (DYNAMICS)  max=  3.74836063248341E+01
DEBUG_STATS_RL:                Salt (DYNAMICS) mean=  1.88648017544428E+01
DEBUG_STATS_RL:                Salt (DYNAMICS) S.D.=  1.73003497488024E+01
DEBUG_STATS_RL:                  Gu (DYNAMICS)  min= -1.28407024283068E-01
DEBUG_STATS_RL:                  Gu (DYNAMICS)  max=  1.66094383175754E-01
DEBUG_STATS_RL:                  Gu (DYNAMICS) mean=  6.37427823986402E-03
DEBUG_STATS_RL:                  Gu (DYNAMICS) S.D.=  2.40162690032649E-02
DEBUG_STATS_RL:                  Gv (DYNAMICS)  min= -1.05508235630611E-01
DEBUG_STATS_RL:                  Gv (DYNAMICS)  max=  1.42583785878828E-01
DEBUG_STATS_RL:                  Gv (DYNAMICS) mean=  3.66044050956352E-03
DEBUG_STATS_RL:                  Gv (DYNAMICS) S.D.=  1.58066689069080E-02
DEBUG_STATS_RL:               GuNm1 (DYNAMICS)  min= -1.08582619560820E-05
DEBUG_STATS_RL:               GuNm1 (DYNAMICS)  max=  9.27745375928494E-06
DEBUG_STATS_RL:               GuNm1 (DYNAMICS) mean=  1.07169967707835E-08
DEBUG_STATS_RL:               GuNm1 (DYNAMICS) S.D.=  1.22871929140846E-06
DEBUG_STATS_RL:               GvNm1 (DYNAMICS)  min= -9.56595271460664E-06
DEBUG_STATS_RL:               GvNm1 (DYNAMICS)  max=  1.54908156516577E-05
DEBUG_STATS_RL:               GvNm1 (DYNAMICS) mean=  7.37494180685765E-07
DEBUG_STATS_RL:               GvNm1 (DYNAMICS) S.D.=  2.61955106407169E-06
DEBUG_STATS_RL:               GtNm1 (DYNAMICS)  min= -2.83228361027155E-06
DEBUG_STATS_RL:               GtNm1 (DYNAMICS)  max=  1.88526646848192E-06
DEBUG_STATS_RL:               GtNm1 (DYNAMICS) mean= -1.28699967395878E-10
DEBUG_STATS_RL:               GtNm1 (DYNAMICS) S.D.=  1.53346931099790E-07
DEBUG_STATS_RL:               GsNm1 (DYNAMICS)  min= -4.36235569039321E-07
DEBUG_STATS_RL:               GsNm1 (DYNAMICS)  max=  2.87157548966413E-07
DEBUG_STATS_RL:               GsNm1 (DYNAMICS) mean= -2.86024511035959E-11
DEBUG_STATS_RL:               GsNm1 (DYNAMICS) S.D.=  1.44775633296961E-08
DEBUG_STATS_RL:    cg2d_b (SOLVE_FOR_PRESSURE)  min= -2.73158238054530E+04
DEBUG_STATS_RL:    cg2d_b (SOLVE_FOR_PRESSURE)  max=  2.95012271239333E+04
DEBUG_STATS_RL:    cg2d_b (SOLVE_FOR_PRESSURE) mean=  5.33239566224861E+00
DEBUG_STATS_RL:    cg2d_b (SOLVE_FOR_PRESSURE) S.D.=  4.06387505395902E+03
 cg2d: Sum(rhs),rhsMax =   4.18440084076794E-01  1.93771958484397E+00
(PID.TID 0000.0001)  cg2d: iter=     1 ; resid.=  1.24898799654554E-01
(PID.TID 0000.0001)  cg2d: iter=     2 ; resid.=  9.76169229696874E-02
(PID.TID 0000.0001)  cg2d: iter=     3 ; resid.=  9.59023342820760E-02
(PID.TID 0000.0001)  cg2d: iter=     4 ; resid.=  9.06884578615269E-02
(PID.TID 0000.0001)  cg2d: iter=     5 ; resid.=  7.14125470173362E-02
(PID.TID 0000.0001)  cg2d: iter=     6 ; resid.=  5.94431275893096E-02
(PID.TID 0000.0001)  cg2d: iter=     7 ; resid.=  5.43329453098808E-02
(PID.TID 0000.0001)  cg2d: iter=     8 ; resid.=  4.68848465980377E-02
(PID.TID 0000.0001)  cg2d: iter=     9 ; resid.=  3.68893006136103E-02
(PID.TID 0000.0001)  cg2d: iter=    10 ; resid.=  3.02023390795209E-02
(PID.TID 0000.0001)  cg2d: iter=    11 ; resid.=  2.39576650714190E-02
(PID.TID 0000.0001)  cg2d: iter=    12 ; resid.=  2.03541115579624E-02
(PID.TID 0000.0001)  cg2d: iter=    13 ; resid.=  1.61658918692148E-02
(PID.TID 0000.0001)  cg2d: iter=    14 ; resid.=  1.29869992506565E-02
(PID.TID 0000.0001)  cg2d: iter=    15 ; resid.=  1.06426346208657E-02
(PID.TID 0000.0001)  cg2d: iter=    16 ; resid.=  8.39635088359189E-03
(PID.TID 0000.0001)  cg2d: iter=    17 ; resid.=  7.42717612536665E-03
(PID.TID 0000.0001)  cg2d: iter=    18 ; resid.=  6.50111150493554E-03
(PID.TID 0000.0001)  cg2d: iter=    19 ; resid.=  5.18234153923494E-03
(PID.TID 0000.0001)  cg2d: iter=    20 ; resid.=  4.70233787376633E-03
(PID.TID 0000.0001)  cg2d: iter=    21 ; resid.=  3.86401929841127E-03
(PID.TID 0000.0001)  cg2d: iter=    22 ; resid.=  3.65338622348951E-03
(PID.TID 0000.0001)  cg2d: iter=    23 ; resid.=  3.06474073875362E-03
(PID.TID 0000.0001)  cg2d: iter=    24 ; resid.=  2.35443652653335E-03
(PID.TID 0000.0001)  cg2d: iter=    25 ; resid.=  1.88206055956060E-03
(PID.TID 0000.0001)  cg2d: iter=    26 ; resid.=  1.49721100302376E-03
(PID.TID 0000.0001)  cg2d: iter=    27 ; resid.=  1.28700092733635E-03
(PID.TID 0000.0001)  cg2d: iter=    28 ; resid.=  1.11129787777081E-03
(PID.TID 0000.0001)  cg2d: iter=    29 ; resid.=  9.27572907672853E-04
(PID.TID 0000.0001)  cg2d: iter=    30 ; resid.=  7.28390284619661E-04
(PID.TID 0000.0001)  cg2d: iter=    31 ; resid.=  5.58478196292727E-04
(PID.TID 0000.0001)  cg2d: iter=    32 ; resid.=  4.24986112422562E-04
(PID.TID 0000.0001)  cg2d: iter=    33 ; resid.=  3.41466479088319E-04
(PID.TID 0000.0001)  cg2d: iter=    34 ; resid.=  2.85528167983498E-04
(PID.TID 0000.0001)  cg2d: iter=    35 ; resid.=  2.49005962096903E-04
(PID.TID 0000.0001)  cg2d: iter=    36 ; resid.=  2.18044401094973E-04
(PID.TID 0000.0001)  cg2d: iter=    37 ; resid.=  1.87936948881186E-04
(PID.TID 0000.0001)  cg2d: iter=    38 ; resid.=  1.54612202414753E-04
(PID.TID 0000.0001)  cg2d: iter=    39 ; resid.=  1.33041708893156E-04
(PID.TID 0000.0001)  cg2d: iter=    40 ; resid.=  1.12055409773013E-04
(PID.TID 0000.0001)  cg2d: iter=    41 ; resid.=  9.30658655308895E-05
(PID.TID 0000.0001)  cg2d: iter=    42 ; resid.=  7.84065608239017E-05
(PID.TID 0000.0001)  cg2d: iter=    43 ; resid.=  7.18463582091633E-05
(PID.TID 0000.0001)  cg2d: iter=    44 ; resid.=  6.07512815996097E-05
(PID.TID 0000.0001)  cg2d: iter=    45 ; resid.=  4.91874295016365E-05
(PID.TID 0000.0001)  cg2d: iter=    46 ; resid.=  3.83225666382281E-05
(PID.TID 0000.0001)  cg2d: iter=    47 ; resid.=  3.00675001501618E-05
(PID.TID 0000.0001)  cg2d: iter=    48 ; resid.=  2.64846758772636E-05
(PID.TID 0000.0001)  cg2d: iter=    49 ; resid.=  2.21664522279850E-05
(PID.TID 0000.0001)  cg2d: iter=    50 ; resid.=  1.86471413105493E-05
(PID.TID 0000.0001)  cg2d: iter=    51 ; resid.=  1.61581516697348E-05
(PID.TID 0000.0001)  cg2d: iter=    52 ; resid.=  1.43079778588522E-05
(PID.TID 0000.0001)  cg2d: iter=    53 ; resid.=  1.35558230120071E-05
(PID.TID 0000.0001)  cg2d: iter=    54 ; resid.=  1.13745822635034E-05
(PID.TID 0000.0001)  cg2d: iter=    55 ; resid.=  1.00725932195249E-05
(PID.TID 0000.0001)  cg2d: iter=    56 ; resid.=  8.05238503776096E-06
(PID.TID 0000.0001)  cg2d: iter=    57 ; resid.=  6.53204552431197E-06
(PID.TID 0000.0001)  cg2d: iter=    58 ; resid.=  4.74743258061373E-06
(PID.TID 0000.0001)  cg2d: iter=    59 ; resid.=  3.47190033675612E-06
(PID.TID 0000.0001)  cg2d: iter=    60 ; resid.=  2.85040919896842E-06
(PID.TID 0000.0001)  cg2d: iter=    61 ; resid.=  2.27164417022292E-06
(PID.TID 0000.0001)  cg2d: iter=    62 ; resid.=  1.73756114942680E-06
(PID.TID 0000.0001)  cg2d: iter=    63 ; resid.=  1.35648260636582E-06
(PID.TID 0000.0001)  cg2d: iter=    64 ; resid.=  1.10205132724943E-06
(PID.TID 0000.0001)  cg2d: iter=    65 ; resid.=  9.66622868055596E-07
(PID.TID 0000.0001)  cg2d: iter=    66 ; resid.=  7.74164581764657E-07
(PID.TID 0000.0001)  cg2d: iter=    67 ; resid.=  6.47055398668199E-07
(PID.TID 0000.0001)  cg2d: iter=    68 ; resid.=  5.86558532358164E-07
(PID.TID 0000.0001)  cg2d: iter=    69 ; resid.=  5.24819791858069E-07
(PID.TID 0000.0001)  cg2d: iter=    70 ; resid.=  4.40575339330950E-07
(PID.TID 0000.0001)  cg2d: iter=    71 ; resid.=  3.54455138330225E-07
(PID.TID 0000.0001)  cg2d: iter=    72 ; resid.=  3.21286552631843E-07
(PID.TID 0000.0001)  cg2d: iter=    73 ; resid.=  2.70316849170404E-07
(PID.TID 0000.0001)  cg2d: iter=    74 ; resid.=  2.19202772150771E-07
(PID.TID 0000.0001)  cg2d: iter=    75 ; resid.=  1.75535387482814E-07
(PID.TID 0000.0001)  cg2d: iter=    76 ; resid.=  1.40684373290657E-07
(PID.TID 0000.0001)  cg2d: iter=    77 ; resid.=  1.13846521247384E-07
(PID.TID 0000.0001)  cg2d: iter=    78 ; resid.=  9.30492165945800E-08
(PID.TID 0000.0001)  cg2d: iter=    79 ; resid.=  7.41671795570392E-08
(PID.TID 0000.0001)  cg2d: iter=    80 ; resid.=  5.86682277100092E-08
(PID.TID 0000.0001)  cg2d: iter=    81 ; resid.=  4.44982695698228E-08
(PID.TID 0000.0001)  cg2d: iter=    82 ; resid.=  3.32561483876044E-08
(PID.TID 0000.0001)  cg2d: iter=    83 ; resid.=  2.58997701276682E-08
(PID.TID 0000.0001)  cg2d: iter=    84 ; resid.=  2.06682770651237E-08
(PID.TID 0000.0001)  cg2d: iter=    85 ; resid.=  1.44089987876431E-08
(PID.TID 0000.0001)  cg2d: iter=    86 ; resid.=  1.02492125760391E-08
(PID.TID 0000.0001)  cg2d: iter=    87 ; resid.=  8.41705945377803E-09
(PID.TID 0000.0001)  cg2d: iter=    88 ; resid.=  6.67615638263290E-09
(PID.TID 0000.0001)  cg2d: iter=    89 ; resid.=  5.46972550335996E-09
(PID.TID 0000.0001)  cg2d: iter=    90 ; resid.=  4.82884435731700E-09
(PID.TID 0000.0001)  cg2d: iter=    91 ; resid.=  4.06581778971274E-09
(PID.TID 0000.0001)  cg2d: iter=    92 ; resid.=  3.55274605361011E-09
(PID.TID 0000.0001)  cg2d: iter=    93 ; resid.=  2.63082917020079E-09
(PID.TID 0000.0001)  cg2d: iter=    94 ; resid.=  2.14767807386297E-09
(PID.TID 0000.0001)  cg2d: iter=    95 ; resid.=  1.84889123196173E-09
(PID.TID 0000.0001)  cg2d: iter=    96 ; resid.=  1.45253920377313E-09
(PID.TID 0000.0001)  cg2d: iter=    97 ; resid.=  1.21893282063654E-09
(PID.TID 0000.0001)  cg2d: iter=    98 ; resid.=  9.62933268535596E-10
(PID.TID 0000.0001)  cg2d: iter=    99 ; resid.=  8.35956269619940E-10
(PID.TID 0000.0001)  cg2d: iter=   100 ; resid.=  6.52866451572717E-10
(PID.TID 0000.0001)  cg2d: iter=   101 ; resid.=  4.97349327009560E-10
(PID.TID 0000.0001)  cg2d: iter=   102 ; resid.=  3.91940240029925E-10
(PID.TID 0000.0001)  cg2d: iter=   103 ; resid.=  2.89436436307323E-10
(PID.TID 0000.0001)  cg2d: iter=   104 ; resid.=  2.34018482030049E-10
(PID.TID 0000.0001)  cg2d: iter=   105 ; resid.=  1.95542851629060E-10
(PID.TID 0000.0001)  cg2d: iter=   106 ; resid.=  1.51617286411884E-10
(PID.TID 0000.0001)  cg2d: iter=   107 ; resid.=  1.11792352985624E-10
(PID.TID 0000.0001)  cg2d: iter=   108 ; resid.=  9.56467436085798E-11
(PID.TID 0000.0001)  cg2d: iter=   109 ; resid.=  7.04126288432373E-11
(PID.TID 0000.0001)  cg2d: iter=   110 ; resid.=  5.32592035457478E-11
(PID.TID 0000.0001)  cg2d: iter=   111 ; resid.=  4.32236127050399E-11
(PID.TID 0000.0001)  cg2d: iter=   112 ; resid.=  3.23692423283984E-11
(PID.TID 0000.0001)  cg2d: iter=   113 ; resid.=  2.36852718413552E-11
(PID.TID 0000.0001)  cg2d: iter=   114 ; resid.=  1.79600156962886E-11
(PID.TID 0000.0001)  cg2d: iter=   115 ; resid.=  1.31838841893766E-11
(PID.TID 0000.0001)  cg2d: iter=   116 ; resid.=  9.64394923833594E-12
(PID.TID 0000.0001)  cg2d: iter=   117 ; resid.=  7.37563052183539E-12
(PID.TID 0000.0001)  cg2d: iter=   118 ; resid.=  5.54711351214131E-12
(PID.TID 0000.0001)  cg2d: iter=   119 ; resid.=  4.25253517464128E-12
(PID.TID 0000.0001)  cg2d: iter=   120 ; resid.=  3.15428343259526E-12
(PID.TID 0000.0001)  cg2d: iter=   121 ; resid.=  2.42188028024082E-12
(PID.TID 0000.0001)  cg2d: iter=   122 ; resid.=  2.06507575213884E-12
(PID.TID 0000.0001)  cg2d: iter=   123 ; resid.=  1.65123115085882E-12
(PID.TID 0000.0001)  cg2d: iter=   124 ; resid.=  1.33905404459579E-12
(PID.TID 0000.0001)  cg2d: iter=   125 ; resid.=  1.04352918061873E-12
(PID.TID 0000.0001)  cg2d: iter=   126 ; resid.=  7.66568147566602E-13
(PID.TID 0000.0001)  cg2d: iter=   127 ; resid.=  5.17172056489800E-13
(PID.TID 0000.0001)  cg2d: iter=   128 ; resid.=  3.12122954924365E-13
(PID.TID 0000.0001)  cg2d: iter=   129 ; resid.=  1.92507483758863E-13
(PID.TID 0000.0001)  cg2d: iter=   130 ; resid.=  1.34377564403397E-13
(PID.TID 0000.0001)  cg2d: iter=   131 ; resid.=  9.97599442917088E-14
DEBUG_STATS_RL:    cg2d_x (SOLVE_FOR_PRESSURE)  min= -2.12655716486312E+01
DEBUG_STATS_RL:    cg2d_x (SOLVE_FOR_PRESSURE)  max=  1.11622156796029E+01
DEBUG_STATS_RL:    cg2d_x (SOLVE_FOR_PRESSURE) mean= -2.05282870738219E+00
DEBUG_STATS_RL:    cg2d_x (SOLVE_FOR_PRESSURE) S.D.=  8.34188457348635E+00
(PID.TID 0000.0001)      cg2d_init_res =   2.51050783853864E-01
(PID.TID 0000.0001)      cg2d_iters(min,last) =      -1     131
(PID.TID 0000.0001)      cg2d_last_res =   9.97599442917088E-14
(PID.TID 0000.0001) // =======================================================
(PID.TID 0000.0001) // Begin MONITOR dynamic field statistics
(PID.TID 0000.0001) // =======================================================
(PID.TID 0000.0001) %MON time_tsnumber                =                    82
(PID.TID 0000.0001) %MON time_secondsf                =   7.0848000000000E+06
(PID.TID 0000.0001) %MON dynstat_eta_max              =   1.1378405381859E+00
(PID.TID 0000.0001) %MON dynstat_eta_min              =  -2.1677443066903E+00
(PID.TID 0000.0001) %MON dynstat_eta_mean             =  -5.5636936783228E-03
(PID.TID 0000.0001) %MON dynstat_eta_sd               =   7.5773642877968E-01
(PID.TID 0000.0001) %MON dynstat_eta_del2             =   2.5494094803087E-03
(PID.TID 0000.0001) %MON dynstat_uvel_max             =   1.6111146977417E-01
(PID.TID 0000.0001) %MON dynstat_uvel_min             =  -1.3093984200671E-01
(PID.TID 0000.0001) %MON dynstat_uvel_mean            =   2.4477420454568E-03
(PID.TID 0000.0001) %MON dynstat_uvel_sd              =   1.6501263494887E-02
(PID.TID 0000.0001) %MON dynstat_uvel_del2            =   1.1570292489857E-04
(PID.TID 0000.0001) %MON dynstat_vvel_max             =   1.4457350501530E-01
(PID.TID 0000.0001) %MON dynstat_vvel_min             =  -1.0182279219631E-01
(PID.TID 0000.0001) %MON dynstat_vvel_mean            =  -8.3105142800522E-06
(PID.TID 0000.0001) %MON dynstat_vvel_sd              =   9.1347688117874E-03
(PID.TID 0000.0001) %MON dynstat_vvel_del2            =   8.2391990812584E-05
(PID.TID 0000.0001) %MON dynstat_wvel_max             =   2.3624668647408E-04
(PID.TID 0000.0001) %MON dynstat_wvel_min             =  -9.0509523606342E-05
(PID.TID 0000.0001) %MON dynstat_wvel_mean            =   3.5589216257224E-22
(PID.TID 0000.0001) %MON dynstat_wvel_sd              =   1.2343685340620E-05
(PID.TID 0000.0001) %MON dynstat_wvel_del2            =   1.2243394093362E-07
(PID.TID 0000.0001) %MON dynstat_theta_max            =   3.1059030118011E+01
(PID.TID 0000.0001) %MON dynstat_theta_min            =  -1.9437287587315E+00
(PID.TID 0000.0001) %MON dynstat_theta_mean           =   3.6439754751874E+00
(PID.TID 0000.0001) %MON dynstat_theta_sd             =   4.4276337494488E+00
(PID.TID 0000.0001) %MON dynstat_theta_del2           =   4.8593974366371E-03
(PID.TID 0000.0001) %MON dynstat_salt_max             =   3.7483606324834E+01
(PID.TID 0000.0001) %MON dynstat_salt_min             =   2.9930665426061E+01
(PID.TID 0000.0001) %MON dynstat_salt_mean            =   3.4738025996667E+01
(PID.TID 0000.0001) %MON dynstat_salt_sd              =   2.9663912472497E-01
(PID.TID 0000.0001) %MON dynstat_salt_del2            =   9.9530684312330E-04
(PID.TID 0000.0001) %MON dynstat_sst_max              =   3.1059030118011E+01
(PID.TID 0000.0001) %MON dynstat_sst_min              =  -1.9437287587315E+00
(PID.TID 0000.0001) %MON dynstat_sst_mean             =   1.9080190040058E+01
(PID.TID 0000.0001) %MON dynstat_sst_sd               =   9.1958134933457E+00
(PID.TID 0000.0001) %MON dynstat_sst_del2             =   2.9025421608709E-02
(PID.TID 0000.0001) %MON dynstat_sss_max              =   3.7481342550624E+01
(PID.TID 0000.0001) %MON dynstat_sss_min              =   2.9930665426061E+01
(PID.TID 0000.0001) %MON dynstat_sss_mean             =   3.4858396006842E+01
(PID.TID 0000.0001) %MON dynstat_sss_sd               =   9.8785328304311E-01
(PID.TID 0000.0001) %MON dynstat_sss_del2             =   8.2213097153361E-03
(PID.TID 0000.0001) %MON forcing_qnet_max             =   2.4627628173828E+02
(PID.TID 0000.0001) %MON forcing_qnet_min             =  -1.6128761291504E+02
(PID.TID 0000.0001) %MON forcing_qnet_mean            =  -4.8828474163268E+00
(PID.TID 0000.0001) %MON forcing_qnet_sd              =   4.1789417838572E+01
(PID.TID 0000.0001) %MON forcing_qnet_del2            =   8.1227755261188E-01
(PID.TID 0000.0001) %MON forcing_qsw_max              =   0.0000000000000E+00
(PID.TID 0000.0001) %MON forcing_qsw_min              =   0.0000000000000E+00
(PID.TID 0000.0001) %MON forcing_qsw_mean             =   0.0000000000000E+00
(PID.TID 0000.0001) %MON forcing_qsw_sd               =   0.0000000000000E+00
(PID.TID 0000.0001) %MON forcing_qsw_del2             =   0.0000000000000E+00
(PID.TID 0000.0001) %MON forcing_empmr_max            =   6.8531795704985E-05
(PID.TID 0000.0001) %MON forcing_empmr_min            =  -8.3353494062521E-05
(PID.TID 0000.0001) %MON forcing_empmr_mean           =   4.1603886471329E-07
(PID.TID 0000.0001) %MON forcing_empmr_sd             =   2.5903822702636E-05
(PID.TID 0000.0001) %MON forcing_empmr_del2           =   3.6347696662718E-07
(PID.TID 0000.0001) %MON forcing_fu_max               =   3.5241369009018E-01
(PID.TID 0000.0001) %MON forcing_fu_min               =  -3.9415485262871E-01
(PID.TID 0000.0001) %MON forcing_fu_mean              =   1.9693576718791E-02
(PID.TID 0000.0001) %MON forcing_fu_sd                =   1.0078027975270E-01
(PID.TID 0000.0001) %MON forcing_fu_del2              =   8.0191903414414E-04
(PID.TID 0000.0001) %MON forcing_fv_max               =   1.8272433876991E-01
(PID.TID 0000.0001) %MON forcing_fv_min               =  -1.7288535237312E-01
(PID.TID 0000.0001) %MON forcing_fv_mean              =  -7.3107154058064E-03
(PID.TID 0000.0001) %MON forcing_fv_sd                =   4.0457031472126E-02
(PID.TID 0000.0001) %MON forcing_fv_del2              =   4.5597816085300E-04
(PID.TID 0000.0001) %MON trAdv_CFL_u_max              =   4.1835391982218E-02
(PID.TID 0000.0001) %MON trAdv_CFL_v_max              =   2.7584724123518E-02
(PID.TID 0000.0001) %MON trAdv_CFL_w_max              =   5.1656459763034E-02
(PID.TID 0000.0001) %MON advcfl_uvel_max              =   4.2120154223897E-02
(PID.TID 0000.0001) %MON advcfl_vvel_max              =   2.8088313344217E-02
(PID.TID 0000.0001) %MON advcfl_wvel_max              =   5.5922503318796E-02
(PID.TID 0000.0001) %MON advcfl_W_hf_max              =   6.0034452092237E-02
(PID.TID 0000.0001) %MON pe_b_mean                    =   7.3475228791747E-04
(PID.TID 0000.0001) %MON ke_max                       =   1.4634697545952E-02
(PID.TID 0000.0001) %MON ke_mean                      =   1.6388994190108E-04
(PID.TID 0000.0001) %MON ke_vol                       =   1.3226782436723E+18
(PID.TID 0000.0001) %MON vort_r_min                   =  -3.9140136860341E-07
(PID.TID 0000.0001) %MON vort_r_max                   =   3.9752433330214E-07
(PID.TID 0000.0001) %MON vort_a_mean                  =  -2.5274806923199E-05
(PID.TID 0000.0001) %MON vort_a_sd                    =   7.3604642562416E-05
(PID.TID 0000.0001) %MON vort_p_mean                  =  -3.1845655201926E-05
(PID.TID 0000.0001) %MON vort_p_sd                    =   1.3162541666519E-04
(PID.TID 0000.0001) %MON surfExpan_theta_mean         =  -3.7245182013060E-07
(PID.TID 0000.0001) %MON surfExpan_salt_mean          =   1.1878778624432E-07
(PID.TID 0000.0001) // =======================================================
(PID.TID 0000.0001) // End MONITOR dynamic field statistics
(PID.TID 0000.0001) // =======================================================
 EXTERNAL_FIELDS_LOAD,        82 : iP,iLd,i0,i1=    3    4    3    4 ; Wght=  0.7666666667  0.2333333333
 EXTERNAL_FIELDS_LOAD: (fu0,1),fu,fv= -2.7199E-02 -3.7252E-02 -2.9545E-02 -8.6603E-03
 EXTERNAL_FIELDS_LOAD: SST,SSS,Q,E-P= -1.3275E-01  3.4577E+01  1.8943E+02  8.7747E-06
DEBUG_STATS_RL:          Uvel (THERMODYNAMICS)  min= -1.30939842006711E-01
DEBUG_STATS_RL:          Uvel (THERMODYNAMICS)  max=  1.61111469774165E-01
DEBUG_STATS_RL:          Uvel (THERMODYNAMICS) mean=  6.33628246074704E-03
DEBUG_STATS_RL:          Uvel (THERMODYNAMICS) S.D.=  2.36201365262032E-02
DEBUG_STATS_RL:          Vvel (THERMODYNAMICS)  min= -1.01822792196310E-01
DEBUG_STATS_RL:          Vvel (THERMODYNAMICS)  max=  1.44573505015297E-01
DEBUG_STATS_RL:          Vvel (THERMODYNAMICS) mean=  1.09017523007812E-03
DEBUG_STATS_RL:          Vvel (THERMODYNAMICS) S.D.=  1.42959246346876E-02
DEBUG_STATS_RL:          Wvel (THERMODYNAMICS)  min= -9.05095236063423E-05
DEBUG_STATS_RL:          Wvel (THERMODYNAMICS)  max=  2.36246686474080E-04
DEBUG_STATS_RL:          Wvel (THERMODYNAMICS) mean=  1.96194953450558E-08
DEBUG_STATS_RL:          Wvel (THERMODYNAMICS) S.D.=  1.09159019808882E-05
DEBUG_STATS_RL:         Theta (THERMODYNAMICS)  min= -1.94248810331786E+00
DEBUG_STATS_RL:         Theta (THERMODYNAMICS)  max=  3.10802034966139E+01
DEBUG_STATS_RL:         Theta (THERMODYNAMICS) mean=  3.24100717512102E+00
DEBUG_STATS_RL:         Theta (THERMODYNAMICS) S.D.=  5.88742338203606E+00
DEBUG_STATS_RL:          Salt (THERMODYNAMICS)  min=  2.00000000000000E-02
DEBUG_STATS_RL:          Salt (THERMODYNAMICS)  max=  3.74833210322412E+01
DEBUG_STATS_RL:          Salt (THERMODYNAMICS) mean=  1.88648012809312E+01
DEBUG_STATS_RL:          Salt (THERMODYNAMICS) S.D.=  1.73003500369566E+01
DEBUG_STATS_RL:         GtNm1 (THERMODYNAMICS)  min= -2.81612013098657E-06
DEBUG_STATS_RL:         GtNm1 (THERMODYNAMICS)  max=  2.01517201584302E-06
DEBUG_STATS_RL:         GtNm1 (THERMODYNAMICS) mean= -2.50167150194775E-10
DEBUG_STATS_RL:         GtNm1 (THERMODYNAMICS) S.D.=  1.52906840320283E-07
DEBUG_STATS_RL:         GsNm1 (THERMODYNAMICS)  min= -4.99751813984435E-07
DEBUG_STATS_RL:         GsNm1 (THERMODYNAMICS)  max=  3.28120619779309E-07
DEBUG_STATS_RL:         GsNm1 (THERMODYNAMICS) mean= -5.23978227801811E-11
DEBUG_STATS_RL:         GsNm1 (THERMODYNAMICS) S.D.=  1.44756832388037E-08
DEBUG_STATS_RL:                EtaN (DYNAMICS)  min= -2.16774430669027E+00
DEBUG_STATS_RL:                EtaN (DYNAMICS)  max=  1.13784053818585E+00
DEBUG_STATS_RL:                EtaN (DYNAMICS) mean= -2.09258787704605E-01
DEBUG_STATS_RL:                EtaN (DYNAMICS) S.D.=  8.50345012587805E-01
DEBUG_STATS_RL:                Uvel (DYNAMICS)  min= -1.30939842006711E-01
DEBUG_STATS_RL:                Uvel (DYNAMICS)  max=  1.61111469774165E-01
DEBUG_STATS_RL:                Uvel (DYNAMICS) mean=  6.33628246074704E-03
DEBUG_STATS_RL:                Uvel (DYNAMICS) S.D.=  2.36201365262032E-02
DEBUG_STATS_RL:                Vvel (DYNAMICS)  min= -1.01822792196310E-01
DEBUG_STATS_RL:                Vvel (DYNAMICS)  max=  1.44573505015297E-01
DEBUG_STATS_RL:                Vvel (DYNAMICS) mean=  1.09017523007812E-03
DEBUG_STATS_RL:                Vvel (DYNAMICS) S.D.=  1.42959246346876E-02
DEBUG_STATS_RL:                Wvel (DYNAMICS)  min= -9.05095236063423E-05
DEBUG_STATS_RL:                Wvel (DYNAMICS)  max=  2.36246686474080E-04
DEBUG_STATS_RL:                Wvel (DYNAMICS) mean=  1.96194953450558E-08
DEBUG_STATS_RL:                Wvel (DYNAMICS) S.D.=  1.09159019808882E-05
DEBUG_STATS_RL:               Theta (DYNAMICS)  min= -1.94248810331786E+00
DEBUG_STATS_RL:               Theta (DYNAMICS)  max=  3.10802034966139E+01
DEBUG_STATS_RL:               Theta (DYNAMICS) mean=  3.24100717512102E+00
DEBUG_STATS_RL:               Theta (DYNAMICS) S.D.=  5.88742338203606E+00
DEBUG_STATS_RL:                Salt (DYNAMICS)  min=  2.00000000000000E-02
DEBUG_STATS_RL:                Salt (DYNAMICS)  max=  3.74833210322412E+01
DEBUG_STATS_RL:                Salt (DYNAMICS) mean=  1.88648012809312E+01
DEBUG_STATS_RL:                Salt (DYNAMICS) S.D.=  1.73003500369566E+01
DEBUG_STATS_RL:                  Gu (DYNAMICS)  min= -1.30150410572089E-01
DEBUG_STATS_RL:                  Gu (DYNAMICS)  max=  1.66160383087164E-01
DEBUG_STATS_RL:                  Gu (DYNAMICS) mean=  6.33085699016074E-03
DEBUG_STATS_RL:                  Gu (DYNAMICS) S.D.=  2.39237991936315E-02
DEBUG_STATS_RL:                  Gv (DYNAMICS)  min= -1.06973776702787E-01
DEBUG_STATS_RL:                  Gv (DYNAMICS)  max=  1.44898287354368E-01
DEBUG_STATS_RL:                  Gv (DYNAMICS) mean=  3.65546152773363E-03
DEBUG_STATS_RL:                  Gv (DYNAMICS) S.D.=  1.57770492643438E-02
DEBUG_STATS_RL:               GuNm1 (DYNAMICS)  min= -1.08103978477337E-05
DEBUG_STATS_RL:               GuNm1 (DYNAMICS)  max=  9.25372249052888E-06
DEBUG_STATS_RL:               GuNm1 (DYNAMICS) mean=  1.12505415525365E-08
DEBUG_STATS_RL:               GuNm1 (DYNAMICS) S.D.=  1.22930094706635E-06
DEBUG_STATS_RL:               GvNm1 (DYNAMICS)  min= -9.51443974484359E-06
DEBUG_STATS_RL:               GvNm1 (DYNAMICS)  max=  1.54654983555692E-05
DEBUG_STATS_RL:               GvNm1 (DYNAMICS) mean=  7.37398837480657E-07
DEBUG_STATS_RL:               GvNm1 (DYNAMICS) S.D.=  2.61813078410491E-06
DEBUG_STATS_RL:               GtNm1 (DYNAMICS)  min= -2.81612013098657E-06
DEBUG_STATS_RL:               GtNm1 (DYNAMICS)  max=  2.01517201584302E-06
DEBUG_STATS_RL:               GtNm1 (DYNAMICS) mean= -2.50167150194775E-10
DEBUG_STATS_RL:               GtNm1 (DYNAMICS) S.D.=  1.52906840320283E-07
DEBUG_STATS_RL:               GsNm1 (DYNAMICS)  min= -4.99751813984435E-07
DEBUG_STATS_RL:               GsNm1 (DYNAMICS)  max=  3.28120619779309E-07
DEBUG_STATS_RL:               GsNm1 (DYNAMICS) mean= -5.23978227801811E-11
DEBUG_STATS_RL:               GsNm1 (DYNAMICS) S.D.=  1.44756832388037E-08
DEBUG_STATS_RL:    cg2d_b (SOLVE_FOR_PRESSURE)  min= -2.82234825786472E+04
DEBUG_STATS_RL:    cg2d_b (SOLVE_FOR_PRESSURE)  max=  3.00391177432434E+04
DEBUG_STATS_RL:    cg2d_b (SOLVE_FOR_PRESSURE) mean=  5.36388622819170E+00
DEBUG_STATS_RL:    cg2d_b (SOLVE_FOR_PRESSURE) S.D.=  4.06735614408573E+03
 cg2d: Sum(rhs),rhsMax =   4.13374211732890E-01  1.97304968088243E+00
(PID.TID 0000.0001)  cg2d: iter=     1 ; resid.=  1.25512656585275E-01
(PID.TID 0000.0001)  cg2d: iter=     2 ; resid.=  1.04601230746605E-01
(PID.TID 0000.0001)  cg2d: iter=     3 ; resid.=  1.06130985641092E-01
(PID.TID 0000.0001)  cg2d: iter=     4 ; resid.=  1.00154501954491E-01
(PID.TID 0000.0001)  cg2d: iter=     5 ; resid.=  8.15077604462180E-02
(PID.TID 0000.0001)  cg2d: iter=     6 ; resid.=  6.94513077286694E-02
(PID.TID 0000.0001)  cg2d: iter=     7 ; resid.=  6.26486396641258E-02
(PID.TID 0000.0001)  cg2d: iter=     8 ; resid.=  5.11478045278635E-02
(PID.TID 0000.0001)  cg2d: iter=     9 ; resid.=  3.83803700708832E-02
(PID.TID 0000.0001)  cg2d: iter=    10 ; resid.=  3.12116697345864E-02
(PID.TID 0000.0001)  cg2d: iter=    11 ; resid.=  2.48011555163918E-02
(PID.TID 0000.0001)  cg2d: iter=    12 ; resid.=  2.11771330539963E-02
(PID.TID 0000.0001)  cg2d: iter=    13 ; resid.=  1.69575598548632E-02
(PID.TID 0000.0001)  cg2d: iter=    14 ; resid.=  1.36310132177008E-02
(PID.TID 0000.0001)  cg2d: iter=    15 ; resid.=  1.12496836422056E-02
(PID.TID 0000.0001)  cg2d: iter=    16 ; resid.=  9.18438632211980E-03
(PID.TID 0000.0001)  cg2d: iter=    17 ; resid.=  8.29063081153809E-03
(PID.TID 0000.0001)  cg2d: iter=    18 ; resid.=  7.19584888568985E-03
(PID.TID 0000.0001)  cg2d: iter=    19 ; resid.=  5.62881722390090E-03
(PID.TID 0000.0001)  cg2d: iter=    20 ; resid.=  5.14170003584370E-03
(PID.TID 0000.0001)  cg2d: iter=    21 ; resid.=  4.23384657671580E-03
(PID.TID 0000.0001)  cg2d: iter=    22 ; resid.=  3.95919529869599E-03
(PID.TID 0000.0001)  cg2d: iter=    23 ; resid.=  3.26529696708578E-03
(PID.TID 0000.0001)  cg2d: iter=    24 ; resid.=  2.50177853574173E-03
(PID.TID 0000.0001)  cg2d: iter=    25 ; resid.=  1.96646641578186E-03
(PID.TID 0000.0001)  cg2d: iter=    26 ; resid.=  1.53758747469345E-03
(PID.TID 0000.0001)  cg2d: iter=    27 ; resid.=  1.30757027295865E-03
(PID.TID 0000.0001)  cg2d: iter=    28 ; resid.=  1.12706964121550E-03
(PID.TID 0000.0001)  cg2d: iter=    29 ; resid.=  9.36001578599437E-04
(PID.TID 0000.0001)  cg2d: iter=    30 ; resid.=  7.36428485659041E-04
(PID.TID 0000.0001)  cg2d: iter=    31 ; resid.=  5.62804605578564E-04
(PID.TID 0000.0001)  cg2d: iter=    32 ; resid.=  4.24233970442744E-04
(PID.TID 0000.0001)  cg2d: iter=    33 ; resid.=  3.34081920080616E-04
(PID.TID 0000.0001)  cg2d: iter=    34 ; resid.=  2.82719202951105E-04
(PID.TID 0000.0001)  cg2d: iter=    35 ; resid.=  2.50714395916751E-04
(PID.TID 0000.0001)  cg2d: iter=    36 ; resid.=  2.17644724719002E-04
(PID.TID 0000.0001)  cg2d: iter=    37 ; resid.=  1.87814508981676E-04
(PID.TID 0000.0001)  cg2d: iter=    38 ; resid.=  1.53824370520605E-04
(PID.TID 0000.0001)  cg2d: iter=    39 ; resid.=  1.31977067721893E-04
(PID.TID 0000.0001)  cg2d: iter=    40 ; resid.=  1.08890199718040E-04
(PID.TID 0000.0001)  cg2d: iter=    41 ; resid.=  8.71119491787551E-05
(PID.TID 0000.0001)  cg2d: iter=    42 ; resid.=  7.14986351945194E-05
(PID.TID 0000.0001)  cg2d: iter=    43 ; resid.=  6.48370978818615E-05
(PID.TID 0000.0001)  cg2d: iter=    44 ; resid.=  5.49025127401672E-05
(PID.TID 0000.0001)  cg2d: iter=    45 ; resid.=  4.51329231466410E-05
(PID.TID 0000.0001)  cg2d: iter=    46 ; resid.=  3.48778268310601E-05
(PID.TID 0000.0001)  cg2d: iter=    47 ; resid.=  2.69201644210976E-05
(PID.TID 0000.0001)  cg2d: iter=    48 ; resid.=  2.33498019181836E-05
(PID.TID 0000.0001)  cg2d: iter=    49 ; resid.=  1.98956845745358E-05
(PID.TID 0000.0001)  cg2d: iter=    50 ; resid.=  1.71087685585881E-05
(PID.TID 0000.0001)  cg2d: iter=    51 ; resid.=  1.49467689963591E-05
(PID.TID 0000.0001)  cg2d: iter=    52 ; resid.=  1.33364328016257E-05
(PID.TID 0000.0001)  cg2d: iter=    53 ; resid.=  1.27704980308486E-05
(PID.TID 0000.0001)  cg2d: iter=    54 ; resid.=  1.06766901023737E-05
(PID.TID 0000.0001)  cg2d: iter=    55 ; resid.=  9.45634453659336E-06
(PID.TID 0000.0001)  cg2d: iter=    56 ; resid.=  7.56475394903583E-06
(PID.TID 0000.0001)  cg2d: iter=    57 ; resid.=  6.12652242316195E-06
(PID.TID 0000.0001)  cg2d: iter=    58 ; resid.=  4.57514768883210E-06
(PID.TID 0000.0001)  cg2d: iter=    59 ; resid.=  3.35535668838555E-06
(PID.TID 0000.0001)  cg2d: iter=    60 ; resid.=  2.86961265993242E-06
(PID.TID 0000.0001)  cg2d: iter=    61 ; resid.=  2.35619014486914E-06
(PID.TID 0000.0001)  cg2d: iter=    62 ; resid.=  1.87078980300496E-06
(PID.TID 0000.0001)  cg2d: iter=    63 ; resid.=  1.49408479794947E-06
(PID.TID 0000.0001)  cg2d: iter=    64 ; resid.=  1.22538323980873E-06
(PID.TID 0000.0001)  cg2d: iter=    65 ; resid.=  1.09000621914790E-06
(PID.TID 0000.0001)  cg2d: iter=    66 ; resid.=  8.73261435733874E-07
(PID.TID 0000.0001)  cg2d: iter=    67 ; resid.=  7.26333604286386E-07
(PID.TID 0000.0001)  cg2d: iter=    68 ; resid.=  6.74687522983451E-07
(PID.TID 0000.0001)  cg2d: iter=    69 ; resid.=  5.86862065222150E-07
(PID.TID 0000.0001)  cg2d: iter=    70 ; resid.=  4.84255906852388E-07
(PID.TID 0000.0001)  cg2d: iter=    71 ; resid.=  3.81338605959510E-07
(PID.TID 0000.0001)  cg2d: iter=    72 ; resid.=  3.43358851814748E-07
(PID.TID 0000.0001)  cg2d: iter=    73 ; resid.=  2.90131481567734E-07
(PID.TID 0000.0001)  cg2d: iter=    74 ; resid.=  2.37432200194288E-07
(PID.TID 0000.0001)  cg2d: iter=    75 ; resid.=  1.97869781876567E-07
(PID.TID 0000.0001)  cg2d: iter=    76 ; resid.=  1.61342475027285E-07
(PID.TID 0000.0001)  cg2d: iter=    77 ; resid.=  1.31039285581734E-07
(PID.TID 0000.0001)  cg2d: iter=    78 ; resid.=  1.10223710369831E-07
(PID.TID 0000.0001)  cg2d: iter=    79 ; resid.=  8.63499022458415E-08
(PID.TID 0000.0001)  cg2d: iter=    80 ; resid.=  6.66704653661916E-08
(PID.TID 0000.0001)  cg2d: iter=    81 ; resid.=  4.96075933942241E-08
(PID.TID 0000.0001)  cg2d: iter=    82 ; resid.=  3.69370576030592E-08
(PID.TID 0000.0001)  cg2d: iter=    83 ; resid.=  2.94123250409955E-08
(PID.TID 0000.0001)  cg2d: iter=    84 ; resid.=  2.33266160740034E-08
(PID.TID 0000.0001)  cg2d: iter=    85 ; resid.=  1.65527444263076E-08
(PID.TID 0000.0001)  cg2d: iter=    86 ; resid.=  1.20935512896108E-08
(PID.TID 0000.0001)  cg2d: iter=    87 ; resid.=  1.00335607959580E-08
(PID.TID 0000.0001)  cg2d: iter=    88 ; resid.=  8.08127696361999E-09
(PID.TID 0000.0001)  cg2d: iter=    89 ; resid.=  6.57001007025201E-09
(PID.TID 0000.0001)  cg2d: iter=    90 ; resid.=  5.67924272212163E-09
(PID.TID 0000.0001)  cg2d: iter=    91 ; resid.=  4.67938127264831E-09
(PID.TID 0000.0001)  cg2d: iter=    92 ; resid.=  3.97415260210441E-09
(PID.TID 0000.0001)  cg2d: iter=    93 ; resid.=  2.91643745877621E-09
(PID.TID 0000.0001)  cg2d: iter=    94 ; resid.=  2.30616115924379E-09
(PID.TID 0000.0001)  cg2d: iter=    95 ; resid.=  1.97730029284045E-09
(PID.TID 0000.0001)  cg2d: iter=    96 ; resid.=  1.53429641600708E-09
(PID.TID 0000.0001)  cg2d: iter=    97 ; resid.=  1.27515011681013E-09
(PID.TID 0000.0001)  cg2d: iter=    98 ; resid.=  1.04017492170629E-09
(PID.TID 0000.0001)  cg2d: iter=    99 ; resid.=  9.26757238512856E-10
(PID.TID 0000.0001)  cg2d: iter=   100 ; resid.=  7.55648364294246E-10
(PID.TID 0000.0001)  cg2d: iter=   101 ; resid.=  5.94657100157921E-10
(PID.TID 0000.0001)  cg2d: iter=   102 ; resid.=  4.71956190400487E-10
(PID.TID 0000.0001)  cg2d: iter=   103 ; resid.=  3.54716760619839E-10
(PID.TID 0000.0001)  cg2d: iter=   104 ; resid.=  2.98495475257540E-10
(PID.TID 0000.0001)  cg2d: iter=   105 ; resid.=  2.50174518030790E-10
(PID.TID 0000.0001)  cg2d: iter=   106 ; resid.=  1.91017294803455E-10
(PID.TID 0000.0001)  cg2d: iter=   107 ; resid.=  1.38326812841743E-10
(PID.TID 0000.0001)  cg2d: iter=   108 ; resid.=  1.15721780096237E-10
(PID.TID 0000.0001)  cg2d: iter=   109 ; resid.=  8.46148580902058E-11
(PID.TID 0000.0001)  cg2d: iter=   110 ; resid.=  6.36754885820082E-11
(PID.TID 0000.0001)  cg2d: iter=   111 ; resid.=  5.03033226706836E-11
(PID.TID 0000.0001)  cg2d: iter=   112 ; resid.=  3.60055774655255E-11
(PID.TID 0000.0001)  cg2d: iter=   113 ; resid.=  2.53302187320770E-11
(PID.TID 0000.0001)  cg2d: iter=   114 ; resid.=  1.93941339310576E-11
(PID.TID 0000.0001)  cg2d: iter=   115 ; resid.=  1.42793439614751E-11
(PID.TID 0000.0001)  cg2d: iter=   116 ; resid.=  1.07185829576127E-11
(PID.TID 0000.0001)  cg2d: iter=   117 ; resid.=  8.30808880863491E-12
(PID.TID 0000.0001)  cg2d: iter=   118 ; resid.=  6.28461857125588E-12
(PID.TID 0000.0001)  cg2d: iter=   119 ; resid.=  4.95955774861930E-12
(PID.TID 0000.0001)  cg2d: iter=   120 ; resid.=  3.79492416686989E-12
(PID.TID 0000.0001)  cg2d: iter=   121 ; resid.=  2.90677974568869E-12
(PID.TID 0000.0001)  cg2d: iter=   122 ; resid.=  2.41032720768416E-12
(PID.TID 0000.0001)  cg2d: iter=   123 ; resid.=  1.86526531494262E-12
(PID.TID 0000.0001)  cg2d: iter=   124 ; resid.=  1.48417812755485E-12
(PID.TID 0000.0001)  cg2d: iter=   125 ; resid.=  1.13965553180188E-12
(PID.TID 0000.0001)  cg2d: iter=   126 ; resid.=  8.14614576076022E-13
(PID.TID 0000.0001)  cg2d: iter=   127 ; resid.=  5.39474516900787E-13
(PID.TID 0000.0001)  cg2d: iter=   128 ; resid.=  3.30895520867405E-13
(PID.TID 0000.0001)  cg2d: iter=   129 ; resid.=  2.04533192681912E-13
(PID.TID 0000.0001)  cg2d: iter=   130 ; resid.=  1.42812536703957E-13
(PID.TID 0000.0001)  cg2d: iter=   131 ; resid.=  1.07164231500902E-13
(PID.TID 0000.0001)  cg2d: iter=   132 ; resid.=  8.92575156817399E-14
DEBUG_STATS_RL:    cg2d_x (SOLVE_FOR_PRESSURE)  min= -2.09505517587408E+01
DEBUG_STATS_RL:    cg2d_x (SOLVE_FOR_PRESSURE)  max=  1.09050723086231E+01
DEBUG_STATS_RL:    cg2d_x (SOLVE_FOR_PRESSURE) mean= -2.03566235187450E+00
DEBUG_STATS_RL:    cg2d_x (SOLVE_FOR_PRESSURE) S.D.=  8.18290149986809E+00
(PID.TID 0000.0001)      cg2d_init_res =   2.46268469417658E-01
(PID.TID 0000.0001)      cg2d_iters(min,last) =      -1     132
(PID.TID 0000.0001)      cg2d_last_res =   8.92575156817399E-14
(PID.TID 0000.0001) // =======================================================
(PID.TID 0000.0001) // Begin MONITOR dynamic field statistics
(PID.TID 0000.0001) // =======================================================
(PID.TID 0000.0001) %MON time_tsnumber                =                    83
(PID.TID 0000.0001) %MON time_secondsf                =   7.1712000000000E+06
(PID.TID 0000.0001) %MON dynstat_eta_max              =   1.1116281660167E+00
(PID.TID 0000.0001) %MON dynstat_eta_min              =  -2.1356321874354E+00
(PID.TID 0000.0001) %MON dynstat_eta_mean             =  -5.5965501791826E-03
(PID.TID 0000.0001) %MON dynstat_eta_sd               =   7.3984765348127E-01
(PID.TID 0000.0001) %MON dynstat_eta_del2             =   2.5592512290994E-03
(PID.TID 0000.0001) %MON dynstat_uvel_max             =   1.6115040008789E-01
(PID.TID 0000.0001) %MON dynstat_uvel_min             =  -1.3262470207599E-01
(PID.TID 0000.0001) %MON dynstat_uvel_mean            =   2.4210465600496E-03
(PID.TID 0000.0001) %MON dynstat_uvel_sd              =   1.6443151438939E-02
(PID.TID 0000.0001) %MON dynstat_uvel_del2            =   1.1626020622203E-04
(PID.TID 0000.0001) %MON dynstat_vvel_max             =   1.4653389181530E-01
(PID.TID 0000.0001) %MON dynstat_vvel_min             =  -1.0272724168383E-01
(PID.TID 0000.0001) %MON dynstat_vvel_mean            =   1.2918209559595E-05
(PID.TID 0000.0001) %MON dynstat_vvel_sd              =   9.1127270947010E-03
(PID.TID 0000.0001) %MON dynstat_vvel_del2            =   8.2557721995059E-05
(PID.TID 0000.0001) %MON dynstat_wvel_max             =   2.3573974669372E-04
(PID.TID 0000.0001) %MON dynstat_wvel_min             =  -8.9158195374435E-05
(PID.TID 0000.0001) %MON dynstat_wvel_mean            =   7.5387931286601E-23
(PID.TID 0000.0001) %MON dynstat_wvel_sd              =   1.2259672889877E-05
(PID.TID 0000.0001) %MON dynstat_wvel_del2            =   1.2122425298264E-07
(PID.TID 0000.0001) %MON dynstat_theta_max            =   3.1080203496614E+01
(PID.TID 0000.0001) %MON dynstat_theta_min            =  -1.9424881033179E+00
(PID.TID 0000.0001) %MON dynstat_theta_mean           =   3.6440094681838E+00
(PID.TID 0000.0001) %MON dynstat_theta_sd             =   4.4278072400166E+00
(PID.TID 0000.0001) %MON dynstat_theta_del2           =   4.8572842863592E-03
(PID.TID 0000.0001) %MON dynstat_salt_max             =   3.7483321032241E+01
(PID.TID 0000.0001) %MON dynstat_salt_min             =   2.9933676908598E+01
(PID.TID 0000.0001) %MON dynstat_salt_mean            =   3.4738023524593E+01
(PID.TID 0000.0001) %MON dynstat_salt_sd              =   2.9664060484345E-01
(PID.TID 0000.0001) %MON dynstat_salt_del2            =   9.9565312350791E-04
(PID.TID 0000.0001) %MON dynstat_sst_max              =   3.1080203496614E+01
(PID.TID 0000.0001) %MON dynstat_sst_min              =  -1.9424881033179E+00
(PID.TID 0000.0001) %MON dynstat_sst_mean             =   1.9079882313344E+01
(PID.TID 0000.0001) %MON dynstat_sst_sd               =   9.2035600751337E+00
(PID.TID 0000.0001) %MON dynstat_sst_del2             =   2.9066751499132E-02
(PID.TID 0000.0001) %MON dynstat_sss_max              =   3.7482150575778E+01
(PID.TID 0000.0001) %MON dynstat_sss_min              =   2.9933676908598E+01
(PID.TID 0000.0001) %MON dynstat_sss_mean             =   3.4858355696061E+01
(PID.TID 0000.0001) %MON dynstat_sss_sd               =   9.8822288382395E-01
(PID.TID 0000.0001) %MON dynstat_sss_del2             =   8.2308783508002E-03
(PID.TID 0000.0001) %MON forcing_qnet_max             =   2.4157104695638E+02
(PID.TID 0000.0001) %MON forcing_qnet_min             =  -1.6085961659749E+02
(PID.TID 0000.0001) %MON forcing_qnet_mean            =  -4.4858109873572E+00
(PID.TID 0000.0001) %MON forcing_qnet_sd              =   4.1223620087480E+01
(PID.TID 0000.0001) %MON forcing_qnet_del2            =   8.0717282221424E-01
(PID.TID 0000.0001) %MON forcing_qsw_max              =   0.0000000000000E+00
(PID.TID 0000.0001) %MON forcing_qsw_min              =   0.0000000000000E+00
(PID.TID 0000.0001) %MON forcing_qsw_mean             =   0.0000000000000E+00
(PID.TID 0000.0001) %MON forcing_qsw_sd               =   0.0000000000000E+00
(PID.TID 0000.0001) %MON forcing_qsw_del2             =   0.0000000000000E+00
(PID.TID 0000.0001) %MON forcing_empmr_max            =   6.8435624693090E-05
(PID.TID 0000.0001) %MON forcing_empmr_min            =  -8.3368340142442E-05
(PID.TID 0000.0001) %MON forcing_empmr_mean           =   3.9359349988573E-07
(PID.TID 0000.0001) %MON forcing_empmr_sd             =   2.5851876556707E-05
(PID.TID 0000.0001) %MON forcing_empmr_del2           =   3.6323282010377E-07
(PID.TID 0000.0001) %MON forcing_fu_max               =   3.5182609558105E-01
(PID.TID 0000.0001) %MON forcing_fu_min               =  -3.9508792459965E-01
(PID.TID 0000.0001) %MON forcing_fu_mean              =   1.9566384621858E-02
(PID.TID 0000.0001) %MON forcing_fu_sd                =   1.0063685282734E-01
(PID.TID 0000.0001) %MON forcing_fu_del2              =   7.9634795376390E-04
(PID.TID 0000.0001) %MON forcing_fv_max               =   1.8262833754222E-01
(PID.TID 0000.0001) %MON forcing_fv_min               =  -1.6947763959567E-01
(PID.TID 0000.0001) %MON forcing_fv_mean              =  -7.2742387334334E-03
(PID.TID 0000.0001) %MON forcing_fv_sd                =   4.0166105631794E-02
(PID.TID 0000.0001) %MON forcing_fv_del2              =   4.4910941931624E-04
(PID.TID 0000.0001) %MON trAdv_CFL_u_max              =   4.2128709128468E-02
(PID.TID 0000.0001) %MON trAdv_CFL_v_max              =   2.8042665499149E-02
(PID.TID 0000.0001) %MON trAdv_CFL_w_max              =   5.2337727465027E-02
(PID.TID 0000.0001) %MON advcfl_uvel_max              =   4.2132305651830E-02
(PID.TID 0000.0001) %MON advcfl_vvel_max              =   2.8469185058634E-02
(PID.TID 0000.0001) %MON advcfl_wvel_max              =   5.5802504422842E-02
(PID.TID 0000.0001) %MON advcfl_W_hf_max              =   5.9905629748051E-02
(PID.TID 0000.0001) %MON pe_b_mean                    =   7.0047179326508E-04
(PID.TID 0000.0001) %MON ke_max                       =   1.4234379936082E-02
(PID.TID 0000.0001) %MON ke_mean                      =   1.6278059674532E-04
(PID.TID 0000.0001) %MON ke_vol                       =   1.3226782436723E+18
(PID.TID 0000.0001) %MON vort_r_min                   =  -3.8982362825752E-07
(PID.TID 0000.0001) %MON vort_r_max                   =   4.2052875848790E-07
(PID.TID 0000.0001) %MON vort_a_mean                  =  -2.5274807001579E-05
(PID.TID 0000.0001) %MON vort_a_sd                    =   7.3604634647748E-05
(PID.TID 0000.0001) %MON vort_p_mean                  =  -3.1845655300683E-05
(PID.TID 0000.0001) %MON vort_p_sd                    =   1.3162534283155E-04
(PID.TID 0000.0001) %MON surfExpan_theta_mean         =  -4.5701591200266E-07
(PID.TID 0000.0001) %MON surfExpan_salt_mean          =   1.4139643367180E-07
(PID.TID 0000.0001) // =======================================================
(PID.TID 0000.0001) // End MONITOR dynamic field statistics
(PID.TID 0000.0001) // =======================================================
 EXTERNAL_FIELDS_LOAD,        83 : iP,iLd,i0,i1=    3    4    3    4 ; Wght=  0.7333333333  0.2666666667
 EXTERNAL_FIELDS_LOAD: (fu0,1),fu,fv= -2.7199E-02 -3.7252E-02 -2.9880E-02 -9.8149E-03
 EXTERNAL_FIELDS_LOAD: SST,SSS,Q,E-P= -1.2544E-01  3.4576E+01  1.8572E+02  8.7310E-06
DEBUG_STATS_RL:          Uvel (THERMODYNAMICS)  min= -1.32624702075990E-01
DEBUG_STATS_RL:          Uvel (THERMODYNAMICS)  max=  1.61150400087892E-01
DEBUG_STATS_RL:          Uvel (THERMODYNAMICS) mean=  6.28775593818880E-03
DEBUG_STATS_RL:          Uvel (THERMODYNAMICS) S.D.=  2.35403050169565E-02
DEBUG_STATS_RL:          Vvel (THERMODYNAMICS)  min= -1.02727241683832E-01
DEBUG_STATS_RL:          Vvel (THERMODYNAMICS)  max=  1.46533891815303E-01
DEBUG_STATS_RL:          Vvel (THERMODYNAMICS) mean=  1.11029560471895E-03
DEBUG_STATS_RL:          Vvel (THERMODYNAMICS) S.D.=  1.42522851914141E-02
DEBUG_STATS_RL:          Wvel (THERMODYNAMICS)  min= -8.91581953744347E-05
DEBUG_STATS_RL:          Wvel (THERMODYNAMICS)  max=  2.35739746693720E-04
DEBUG_STATS_RL:          Wvel (THERMODYNAMICS) mean=  1.96564543725732E-08
DEBUG_STATS_RL:          Wvel (THERMODYNAMICS) S.D.=  1.08394983609783E-05
DEBUG_STATS_RL:         Theta (THERMODYNAMICS)  min= -1.94127116740096E+00
DEBUG_STATS_RL:         Theta (THERMODYNAMICS)  max=  3.11009122028832E+01
DEBUG_STATS_RL:         Theta (THERMODYNAMICS) mean=  3.24094103071498E+00
DEBUG_STATS_RL:         Theta (THERMODYNAMICS) S.D.=  5.88773395303566E+00
DEBUG_STATS_RL:          Salt (THERMODYNAMICS)  min=  2.00000000000000E-02
DEBUG_STATS_RL:          Salt (THERMODYNAMICS)  max=  3.74830785831689E+01
DEBUG_STATS_RL:          Salt (THERMODYNAMICS) mean=  1.88647991949570E+01
DEBUG_STATS_RL:          Salt (THERMODYNAMICS) S.D.=  1.73003488410986E+01
DEBUG_STATS_RL:         GtNm1 (THERMODYNAMICS)  min= -3.01829131410918E-06
DEBUG_STATS_RL:         GtNm1 (THERMODYNAMICS)  max=  2.10357708919454E-06
DEBUG_STATS_RL:         GtNm1 (THERMODYNAMICS) mean= -4.16209694658118E-10
DEBUG_STATS_RL:         GtNm1 (THERMODYNAMICS) S.D.=  1.52247435330349E-07
DEBUG_STATS_RL:         GsNm1 (THERMODYNAMICS)  min= -6.03928432618144E-07
DEBUG_STATS_RL:         GsNm1 (THERMODYNAMICS)  max=  3.98033141316073E-07
DEBUG_STATS_RL:         GsNm1 (THERMODYNAMICS) mean= -8.46599380529279E-11
DEBUG_STATS_RL:         GsNm1 (THERMODYNAMICS) S.D.=  1.46675366441590E-08
DEBUG_STATS_RL:                EtaN (DYNAMICS)  min= -2.13563218743538E+00
DEBUG_STATS_RL:                EtaN (DYNAMICS)  max=  1.11162816601668E+00
DEBUG_STATS_RL:                EtaN (DYNAMICS) mean= -2.07508904370490E-01
DEBUG_STATS_RL:                EtaN (DYNAMICS) S.D.=  8.34138786938650E-01
DEBUG_STATS_RL:                Uvel (DYNAMICS)  min= -1.32624702075990E-01
DEBUG_STATS_RL:                Uvel (DYNAMICS)  max=  1.61150400087892E-01
DEBUG_STATS_RL:                Uvel (DYNAMICS) mean=  6.28775593818880E-03
DEBUG_STATS_RL:                Uvel (DYNAMICS) S.D.=  2.35403050169565E-02
DEBUG_STATS_RL:                Vvel (DYNAMICS)  min= -1.02727241683832E-01
DEBUG_STATS_RL:                Vvel (DYNAMICS)  max=  1.46533891815303E-01
DEBUG_STATS_RL:                Vvel (DYNAMICS) mean=  1.11029560471895E-03
DEBUG_STATS_RL:                Vvel (DYNAMICS) S.D.=  1.42522851914141E-02
DEBUG_STATS_RL:                Wvel (DYNAMICS)  min= -8.91581953744347E-05
DEBUG_STATS_RL:                Wvel (DYNAMICS)  max=  2.35739746693720E-04
DEBUG_STATS_RL:                Wvel (DYNAMICS) mean=  1.96564543725732E-08
DEBUG_STATS_RL:                Wvel (DYNAMICS) S.D.=  1.08394983609783E-05
DEBUG_STATS_RL:               Theta (DYNAMICS)  min= -1.94127116740096E+00
DEBUG_STATS_RL:               Theta (DYNAMICS)  max=  3.11009122028832E+01
DEBUG_STATS_RL:               Theta (DYNAMICS) mean=  3.24094103071498E+00
DEBUG_STATS_RL:               Theta (DYNAMICS) S.D.=  5.88773395303566E+00
DEBUG_STATS_RL:                Salt (DYNAMICS)  min=  2.00000000000000E-02
DEBUG_STATS_RL:                Salt (DYNAMICS)  max=  3.74830785831689E+01
DEBUG_STATS_RL:                Salt (DYNAMICS) mean=  1.88647991949570E+01
DEBUG_STATS_RL:                Salt (DYNAMICS) S.D.=  1.73003488410986E+01
DEBUG_STATS_RL:                  Gu (DYNAMICS)  min= -1.31809084197946E-01
DEBUG_STATS_RL:                  Gu (DYNAMICS)  max=  1.65163198142449E-01
DEBUG_STATS_RL:                  Gu (DYNAMICS) mean=  6.27418785509102E-03
DEBUG_STATS_RL:                  Gu (DYNAMICS) S.D.=  2.38364807356101E-02
DEBUG_STATS_RL:                  Gv (DYNAMICS)  min= -1.07266505940888E-01
DEBUG_STATS_RL:                  Gv (DYNAMICS)  max=  1.46812484288124E-01
DEBUG_STATS_RL:                  Gv (DYNAMICS) mean=  3.64342180709717E-03
DEBUG_STATS_RL:                  Gv (DYNAMICS) S.D.=  1.57366167538436E-02
DEBUG_STATS_RL:               GuNm1 (DYNAMICS)  min= -1.07501964615476E-05
DEBUG_STATS_RL:               GuNm1 (DYNAMICS)  max=  9.22895726654146E-06
DEBUG_STATS_RL:               GuNm1 (DYNAMICS) mean=  1.18303355342042E-08
DEBUG_STATS_RL:               GuNm1 (DYNAMICS) S.D.=  1.22986543075470E-06
DEBUG_STATS_RL:               GvNm1 (DYNAMICS)  min= -9.46719957891402E-06
DEBUG_STATS_RL:               GvNm1 (DYNAMICS)  max=  1.54363293394010E-05
DEBUG_STATS_RL:               GvNm1 (DYNAMICS) mean=  7.37385297385865E-07
DEBUG_STATS_RL:               GvNm1 (DYNAMICS) S.D.=  2.61682735354802E-06
DEBUG_STATS_RL:               GtNm1 (DYNAMICS)  min= -3.01829131410918E-06
DEBUG_STATS_RL:               GtNm1 (DYNAMICS)  max=  2.10357708919454E-06
DEBUG_STATS_RL:               GtNm1 (DYNAMICS) mean= -4.16209694658118E-10
DEBUG_STATS_RL:               GtNm1 (DYNAMICS) S.D.=  1.52247435330349E-07
DEBUG_STATS_RL:               GsNm1 (DYNAMICS)  min= -6.03928432618144E-07
DEBUG_STATS_RL:               GsNm1 (DYNAMICS)  max=  3.98033141316073E-07
DEBUG_STATS_RL:               GsNm1 (DYNAMICS) mean= -8.46599380529279E-11
DEBUG_STATS_RL:               GsNm1 (DYNAMICS) S.D.=  1.46675366441590E-08
DEBUG_STATS_RL:    cg2d_b (SOLVE_FOR_PRESSURE)  min= -2.90170295802300E+04
DEBUG_STATS_RL:    cg2d_b (SOLVE_FOR_PRESSURE)  max=  3.05198740229738E+04
DEBUG_STATS_RL:    cg2d_b (SOLVE_FOR_PRESSURE) mean=  5.39358098896632E+00
DEBUG_STATS_RL:    cg2d_b (SOLVE_FOR_PRESSURE) S.D.=  4.07012494895504E+03
 cg2d: Sum(rhs),rhsMax =   4.09115056636757E-01  2.00462704052435E+00
(PID.TID 0000.0001)  cg2d: iter=     1 ; resid.=  1.26097062755641E-01
(PID.TID 0000.0001)  cg2d: iter=     2 ; resid.=  1.11020431709936E-01
(PID.TID 0000.0001)  cg2d: iter=     3 ; resid.=  1.14670741214435E-01
(PID.TID 0000.0001)  cg2d: iter=     4 ; resid.=  1.07229430761946E-01
(PID.TID 0000.0001)  cg2d: iter=     5 ; resid.=  9.00037371344417E-02
(PID.TID 0000.0001)  cg2d: iter=     6 ; resid.=  7.78078737477635E-02
(PID.TID 0000.0001)  cg2d: iter=     7 ; resid.=  6.82178592669360E-02
(PID.TID 0000.0001)  cg2d: iter=     8 ; resid.=  5.29493412253979E-02
(PID.TID 0000.0001)  cg2d: iter=     9 ; resid.=  3.84786064744651E-02
(PID.TID 0000.0001)  cg2d: iter=    10 ; resid.=  3.12800234926921E-02
(PID.TID 0000.0001)  cg2d: iter=    11 ; resid.=  2.50551648468662E-02
(PID.TID 0000.0001)  cg2d: iter=    12 ; resid.=  2.15017696186013E-02
(PID.TID 0000.0001)  cg2d: iter=    13 ; resid.=  1.75060186253459E-02
(PID.TID 0000.0001)  cg2d: iter=    14 ; resid.=  1.41992528392894E-02
(PID.TID 0000.0001)  cg2d: iter=    15 ; resid.=  1.18062334555867E-02
(PID.TID 0000.0001)  cg2d: iter=    16 ; resid.=  9.93713871672171E-03
(PID.TID 0000.0001)  cg2d: iter=    17 ; resid.=  9.02206644858444E-03
(PID.TID 0000.0001)  cg2d: iter=    18 ; resid.=  7.71307378759786E-03
(PID.TID 0000.0001)  cg2d: iter=    19 ; resid.=  5.93966084095668E-03
(PID.TID 0000.0001)  cg2d: iter=    20 ; resid.=  5.41436180420024E-03
(PID.TID 0000.0001)  cg2d: iter=    21 ; resid.=  4.45608035665804E-03
(PID.TID 0000.0001)  cg2d: iter=    22 ; resid.=  4.12823687508267E-03
(PID.TID 0000.0001)  cg2d: iter=    23 ; resid.=  3.38072731449080E-03
(PID.TID 0000.0001)  cg2d: iter=    24 ; resid.=  2.62057406782799E-03
(PID.TID 0000.0001)  cg2d: iter=    25 ; resid.=  2.02680610889123E-03
(PID.TID 0000.0001)  cg2d: iter=    26 ; resid.=  1.56152797927711E-03
(PID.TID 0000.0001)  cg2d: iter=    27 ; resid.=  1.31165762953596E-03
(PID.TID 0000.0001)  cg2d: iter=    28 ; resid.=  1.12564424926981E-03
(PID.TID 0000.0001)  cg2d: iter=    29 ; resid.=  9.36883179744582E-04
(PID.TID 0000.0001)  cg2d: iter=    30 ; resid.=  7.44205033134349E-04
(PID.TID 0000.0001)  cg2d: iter=    31 ; resid.=  5.71570814323108E-04
(PID.TID 0000.0001)  cg2d: iter=    32 ; resid.=  4.27476232800295E-04
(PID.TID 0000.0001)  cg2d: iter=    33 ; resid.=  3.30151273664337E-04
(PID.TID 0000.0001)  cg2d: iter=    34 ; resid.=  2.83514376550808E-04
(PID.TID 0000.0001)  cg2d: iter=    35 ; resid.=  2.53740848127283E-04
(PID.TID 0000.0001)  cg2d: iter=    36 ; resid.=  2.17231507545650E-04
(PID.TID 0000.0001)  cg2d: iter=    37 ; resid.=  1.87941366427491E-04
(PID.TID 0000.0001)  cg2d: iter=    38 ; resid.=  1.53184542294233E-04
(PID.TID 0000.0001)  cg2d: iter=    39 ; resid.=  1.31109935165575E-04
(PID.TID 0000.0001)  cg2d: iter=    40 ; resid.=  1.06164166422765E-04
(PID.TID 0000.0001)  cg2d: iter=    41 ; resid.=  8.23121293118583E-05
(PID.TID 0000.0001)  cg2d: iter=    42 ; resid.=  6.60530757205736E-05
(PID.TID 0000.0001)  cg2d: iter=    43 ; resid.=  5.86840513729706E-05
(PID.TID 0000.0001)  cg2d: iter=    44 ; resid.=  4.93128260883547E-05
(PID.TID 0000.0001)  cg2d: iter=    45 ; resid.=  4.10126879168236E-05
(PID.TID 0000.0001)  cg2d: iter=    46 ; resid.=  3.14253831839546E-05
(PID.TID 0000.0001)  cg2d: iter=    47 ; resid.=  2.38194533945583E-05
(PID.TID 0000.0001)  cg2d: iter=    48 ; resid.=  1.99855408546916E-05
(PID.TID 0000.0001)  cg2d: iter=    49 ; resid.=  1.69214504645759E-05
(PID.TID 0000.0001)  cg2d: iter=    50 ; resid.=  1.44000528829241E-05
(PID.TID 0000.0001)  cg2d: iter=    51 ; resid.=  1.24490658976933E-05
(PID.TID 0000.0001)  cg2d: iter=    52 ; resid.=  1.11260239073304E-05
(PID.TID 0000.0001)  cg2d: iter=    53 ; resid.=  1.06920911582162E-05
(PID.TID 0000.0001)  cg2d: iter=    54 ; resid.=  8.91491707033322E-06
(PID.TID 0000.0001)  cg2d: iter=    55 ; resid.=  7.93249255598207E-06
(PID.TID 0000.0001)  cg2d: iter=    56 ; resid.=  6.47045895698701E-06
(PID.TID 0000.0001)  cg2d: iter=    57 ; resid.=  5.32033601736141E-06
(PID.TID 0000.0001)  cg2d: iter=    58 ; resid.=  4.09043178285224E-06
(PID.TID 0000.0001)  cg2d: iter=    59 ; resid.=  3.02125545289440E-06
(PID.TID 0000.0001)  cg2d: iter=    60 ; resid.=  2.66787986818758E-06
(PID.TID 0000.0001)  cg2d: iter=    61 ; resid.=  2.25935951339350E-06
(PID.TID 0000.0001)  cg2d: iter=    62 ; resid.=  1.85960748659023E-06
(PID.TID 0000.0001)  cg2d: iter=    63 ; resid.=  1.50473793522740E-06
(PID.TID 0000.0001)  cg2d: iter=    64 ; resid.=  1.22362281201254E-06
(PID.TID 0000.0001)  cg2d: iter=    65 ; resid.=  1.07995999417527E-06
(PID.TID 0000.0001)  cg2d: iter=    66 ; resid.=  8.60753701496742E-07
(PID.TID 0000.0001)  cg2d: iter=    67 ; resid.=  7.09779790730420E-07
(PID.TID 0000.0001)  cg2d: iter=    68 ; resid.=  6.69008579737881E-07
(PID.TID 0000.0001)  cg2d: iter=    69 ; resid.=  5.73592283865735E-07
(PID.TID 0000.0001)  cg2d: iter=    70 ; resid.=  4.74824170130565E-07
(PID.TID 0000.0001)  cg2d: iter=    71 ; resid.=  3.75700928615321E-07
(PID.TID 0000.0001)  cg2d: iter=    72 ; resid.=  3.40391568449055E-07
(PID.TID 0000.0001)  cg2d: iter=    73 ; resid.=  2.90392046602864E-07
(PID.TID 0000.0001)  cg2d: iter=    74 ; resid.=  2.42853897787455E-07
(PID.TID 0000.0001)  cg2d: iter=    75 ; resid.=  2.11633109634822E-07
(PID.TID 0000.0001)  cg2d: iter=    76 ; resid.=  1.75760708255560E-07
(PID.TID 0000.0001)  cg2d: iter=    77 ; resid.=  1.43169485963393E-07
(PID.TID 0000.0001)  cg2d: iter=    78 ; resid.=  1.22337272386972E-07
(PID.TID 0000.0001)  cg2d: iter=    79 ; resid.=  9.38748885838898E-08
(PID.TID 0000.0001)  cg2d: iter=    80 ; resid.=  7.06982267334687E-08
(PID.TID 0000.0001)  cg2d: iter=    81 ; resid.=  5.16289993372924E-08
(PID.TID 0000.0001)  cg2d: iter=    82 ; resid.=  3.80700494248629E-08
(PID.TID 0000.0001)  cg2d: iter=    83 ; resid.=  3.06248766881720E-08
(PID.TID 0000.0001)  cg2d: iter=    84 ; resid.=  2.41811276715479E-08
(PID.TID 0000.0001)  cg2d: iter=    85 ; resid.=  1.75489722267185E-08
(PID.TID 0000.0001)  cg2d: iter=    86 ; resid.=  1.30963823250186E-08
(PID.TID 0000.0001)  cg2d: iter=    87 ; resid.=  1.08899645986969E-08
(PID.TID 0000.0001)  cg2d: iter=    88 ; resid.=  8.80075558676957E-09
(PID.TID 0000.0001)  cg2d: iter=    89 ; resid.=  7.04507613020161E-09
(PID.TID 0000.0001)  cg2d: iter=    90 ; resid.=  6.01508165903058E-09
(PID.TID 0000.0001)  cg2d: iter=    91 ; resid.=  4.91341898491674E-09
(PID.TID 0000.0001)  cg2d: iter=    92 ; resid.=  4.16254146432811E-09
(PID.TID 0000.0001)  cg2d: iter=    93 ; resid.=  3.10173611114877E-09
(PID.TID 0000.0001)  cg2d: iter=    94 ; resid.=  2.41214343919364E-09
(PID.TID 0000.0001)  cg2d: iter=    95 ; resid.=  2.06981553882644E-09
(PID.TID 0000.0001)  cg2d: iter=    96 ; resid.=  1.58095652916191E-09
(PID.TID 0000.0001)  cg2d: iter=    97 ; resid.=  1.28793997277789E-09
(PID.TID 0000.0001)  cg2d: iter=    98 ; resid.=  1.06948853276441E-09
(PID.TID 0000.0001)  cg2d: iter=    99 ; resid.=  9.58146429138479E-10
(PID.TID 0000.0001)  cg2d: iter=   100 ; resid.=  8.11091664442601E-10
(PID.TID 0000.0001)  cg2d: iter=   101 ; resid.=  6.49830168138829E-10
(PID.TID 0000.0001)  cg2d: iter=   102 ; resid.=  5.09452400812413E-10
(PID.TID 0000.0001)  cg2d: iter=   103 ; resid.=  3.82806961818081E-10
(PID.TID 0000.0001)  cg2d: iter=   104 ; resid.=  3.21611939158585E-10
(PID.TID 0000.0001)  cg2d: iter=   105 ; resid.=  2.65309348309866E-10
(PID.TID 0000.0001)  cg2d: iter=   106 ; resid.=  1.99263901835003E-10
(PID.TID 0000.0001)  cg2d: iter=   107 ; resid.=  1.42435264090283E-10
(PID.TID 0000.0001)  cg2d: iter=   108 ; resid.=  1.17820809262021E-10
(PID.TID 0000.0001)  cg2d: iter=   109 ; resid.=  8.71321402843838E-11
(PID.TID 0000.0001)  cg2d: iter=   110 ; resid.=  6.63504112826637E-11
(PID.TID 0000.0001)  cg2d: iter=   111 ; resid.=  5.18188996460741E-11
(PID.TID 0000.0001)  cg2d: iter=   112 ; resid.=  3.62270036678481E-11
(PID.TID 0000.0001)  cg2d: iter=   113 ; resid.=  2.48799554343895E-11
(PID.TID 0000.0001)  cg2d: iter=   114 ; resid.=  1.91229026280545E-11
(PID.TID 0000.0001)  cg2d: iter=   115 ; resid.=  1.41359178313348E-11
(PID.TID 0000.0001)  cg2d: iter=   116 ; resid.=  1.08279433025552E-11
(PID.TID 0000.0001)  cg2d: iter=   117 ; resid.=  8.54565806179265E-12
(PID.TID 0000.0001)  cg2d: iter=   118 ; resid.=  6.61448082932406E-12
(PID.TID 0000.0001)  cg2d: iter=   119 ; resid.=  5.33468481895968E-12
(PID.TID 0000.0001)  cg2d: iter=   120 ; resid.=  4.13533228637991E-12
(PID.TID 0000.0001)  cg2d: iter=   121 ; resid.=  3.08079157475199E-12
(PID.TID 0000.0001)  cg2d: iter=   122 ; resid.=  2.44315625422027E-12
(PID.TID 0000.0001)  cg2d: iter=   123 ; resid.=  1.86043906428243E-12
(PID.TID 0000.0001)  cg2d: iter=   124 ; resid.=  1.47017632055931E-12
(PID.TID 0000.0001)  cg2d: iter=   125 ; resid.=  1.12987654535205E-12
(PID.TID 0000.0001)  cg2d: iter=   126 ; resid.=  8.08377881919116E-13
(PID.TID 0000.0001)  cg2d: iter=   127 ; resid.=  5.34717735287577E-13
(PID.TID 0000.0001)  cg2d: iter=   128 ; resid.=  3.42651275243219E-13
(PID.TID 0000.0001)  cg2d: iter=   129 ; resid.=  2.12661157963857E-13
(PID.TID 0000.0001)  cg2d: iter=   130 ; resid.=  1.45859306309180E-13
(PID.TID 0000.0001)  cg2d: iter=   131 ; resid.=  1.06537978299600E-13
(PID.TID 0000.0001)  cg2d: iter=   132 ; resid.=  8.74819082160141E-14
DEBUG_STATS_RL:    cg2d_x (SOLVE_FOR_PRESSURE)  min= -2.05644413094104E+01
DEBUG_STATS_RL:    cg2d_x (SOLVE_FOR_PRESSURE)  max=  1.06112476384977E+01
DEBUG_STATS_RL:    cg2d_x (SOLVE_FOR_PRESSURE) mean= -2.01534727663987E+00
DEBUG_STATS_RL:    cg2d_x (SOLVE_FOR_PRESSURE) S.D.=  8.00931862554713E+00
(PID.TID 0000.0001)      cg2d_init_res =   2.42248547971902E-01
(PID.TID 0000.0001)      cg2d_iters(min,last) =      -1     132
(PID.TID 0000.0001)      cg2d_last_res =   8.74819082160141E-14
(PID.TID 0000.0001) // =======================================================
(PID.TID 0000.0001) // Begin MONITOR dynamic field statistics
(PID.TID 0000.0001) // =======================================================
(PID.TID 0000.0001) %MON time_tsnumber                =                    84
(PID.TID 0000.0001) %MON time_secondsf                =   7.2576000000000E+06
(PID.TID 0000.0001) %MON dynstat_eta_max              =   1.0816766196225E+00
(PID.TID 0000.0001) %MON dynstat_eta_min              =  -2.0962733240989E+00
(PID.TID 0000.0001) %MON dynstat_eta_mean             =  -5.6275329800227E-03
(PID.TID 0000.0001) %MON dynstat_eta_sd               =   7.2043532517020E-01
(PID.TID 0000.0001) %MON dynstat_eta_del2             =   2.5682935186560E-03
(PID.TID 0000.0001) %MON dynstat_uvel_max             =   1.6015256371217E-01
(PID.TID 0000.0001) %MON dynstat_uvel_min             =  -1.3420650838776E-01
(PID.TID 0000.0001) %MON dynstat_uvel_mean            =   2.3898533555014E-03
(PID.TID 0000.0001) %MON dynstat_uvel_sd              =   1.6379880299478E-02
(PID.TID 0000.0001) %MON dynstat_uvel_del2            =   1.1680617901331E-04
(PID.TID 0000.0001) %MON dynstat_vvel_max             =   1.4808663314760E-01
(PID.TID 0000.0001) %MON dynstat_vvel_min             =  -1.0243604734906E-01
(PID.TID 0000.0001) %MON dynstat_vvel_mean            =   3.2321508455568E-05
(PID.TID 0000.0001) %MON dynstat_vvel_sd              =   9.0849390962370E-03
(PID.TID 0000.0001) %MON dynstat_vvel_del2            =   8.2690829528019E-05
(PID.TID 0000.0001) %MON dynstat_wvel_max             =   2.3186863245161E-04
(PID.TID 0000.0001) %MON dynstat_wvel_min             =  -8.6295066775514E-05
(PID.TID 0000.0001) %MON dynstat_wvel_mean            =   1.6974469779767E-22
(PID.TID 0000.0001) %MON dynstat_wvel_sd              =   1.2163089294758E-05
(PID.TID 0000.0001) %MON dynstat_wvel_del2            =   1.1977755782960E-07
(PID.TID 0000.0001) %MON dynstat_theta_max            =   3.1100912202883E+01
(PID.TID 0000.0001) %MON dynstat_theta_min            =  -1.9412711674010E+00
(PID.TID 0000.0001) %MON dynstat_theta_mean           =   3.6440428949166E+00
(PID.TID 0000.0001) %MON dynstat_theta_sd             =   4.4279760601771E+00
(PID.TID 0000.0001) %MON dynstat_theta_del2           =   4.8552063962481E-03
(PID.TID 0000.0001) %MON dynstat_salt_max             =   3.7483078583169E+01
(PID.TID 0000.0001) %MON dynstat_salt_min             =   2.9936937919692E+01
(PID.TID 0000.0001) %MON dynstat_salt_mean            =   3.4738020579882E+01
(PID.TID 0000.0001) %MON dynstat_salt_sd              =   2.9664111009540E-01
(PID.TID 0000.0001) %MON dynstat_salt_del2            =   9.9599379132913E-04
(PID.TID 0000.0001) %MON dynstat_sst_max              =   3.1100912202883E+01
(PID.TID 0000.0001) %MON dynstat_sst_min              =  -1.9412711674010E+00
(PID.TID 0000.0001) %MON dynstat_sst_mean             =   1.9079219328319E+01
(PID.TID 0000.0001) %MON dynstat_sst_sd               =   9.2113570893314E+00
(PID.TID 0000.0001) %MON dynstat_sst_del2             =   2.9110749378711E-02
(PID.TID 0000.0001) %MON dynstat_sss_max              =   3.7482890164296E+01
(PID.TID 0000.0001) %MON dynstat_sss_min              =   2.9936937919692E+01
(PID.TID 0000.0001) %MON dynstat_sss_mean             =   3.4858292776630E+01
(PID.TID 0000.0001) %MON dynstat_sss_sd               =   9.8860889569941E-01
(PID.TID 0000.0001) %MON dynstat_sss_del2             =   8.2406677764395E-03
(PID.TID 0000.0001) %MON forcing_qnet_max             =   2.3686581217448E+02
(PID.TID 0000.0001) %MON forcing_qnet_min             =  -1.6043162027995E+02
(PID.TID 0000.0001) %MON forcing_qnet_mean            =  -4.0887745583875E+00
(PID.TID 0000.0001) %MON forcing_qnet_sd              =   4.0727838671898E+01
(PID.TID 0000.0001) %MON forcing_qnet_del2            =   8.0254510514999E-01
(PID.TID 0000.0001) %MON forcing_qsw_max              =   0.0000000000000E+00
(PID.TID 0000.0001) %MON forcing_qsw_min              =   0.0000000000000E+00
(PID.TID 0000.0001) %MON forcing_qsw_mean             =   0.0000000000000E+00
(PID.TID 0000.0001) %MON forcing_qsw_sd               =   0.0000000000000E+00
(PID.TID 0000.0001) %MON forcing_qsw_del2             =   0.0000000000000E+00
(PID.TID 0000.0001) %MON forcing_empmr_max            =   6.8339453681195E-05
(PID.TID 0000.0001) %MON forcing_empmr_min            =  -8.3383186222363E-05
(PID.TID 0000.0001) %MON forcing_empmr_mean           =   3.7114813505816E-07
(PID.TID 0000.0001) %MON forcing_empmr_sd             =   2.5803474193734E-05
(PID.TID 0000.0001) %MON forcing_empmr_del2           =   3.6306311996696E-07
(PID.TID 0000.0001) %MON forcing_fu_max               =   3.5133404135704E-01
(PID.TID 0000.0001) %MON forcing_fu_min               =  -3.9602099657059E-01
(PID.TID 0000.0001) %MON forcing_fu_mean              =   1.9439192524925E-02
(PID.TID 0000.0001) %MON forcing_fu_sd                =   1.0051726632131E-01
(PID.TID 0000.0001) %MON forcing_fu_del2              =   7.9144391050227E-04
(PID.TID 0000.0001) %MON forcing_fv_max               =   1.8253233631452E-01
(PID.TID 0000.0001) %MON forcing_fv_min               =  -1.6606992681821E-01
(PID.TID 0000.0001) %MON forcing_fv_mean              =  -7.2377620610603E-03
(PID.TID 0000.0001) %MON forcing_fv_sd                =   3.9899607945901E-02
(PID.TID 0000.0001) %MON forcing_fv_del2              =   4.4280534116419E-04
(PID.TID 0000.0001) %MON trAdv_CFL_u_max              =   4.2140863024443E-02
(PID.TID 0000.0001) %MON trAdv_CFL_v_max              =   2.8422918238237E-02
(PID.TID 0000.0001) %MON trAdv_CFL_w_max              =   5.2225420805993E-02
(PID.TID 0000.0001) %MON advcfl_uvel_max              =   4.2519610418793E-02
(PID.TID 0000.0001) %MON advcfl_vvel_max              =   2.8770857796523E-02
(PID.TID 0000.0001) %MON advcfl_wvel_max              =   5.4886163955670E-02
(PID.TID 0000.0001) %MON advcfl_W_hf_max              =   5.8921911305351E-02
(PID.TID 0000.0001) %MON pe_b_mean                    =   6.6419820466135E-04
(PID.TID 0000.0001) %MON ke_max                       =   1.3800864508864E-02
(PID.TID 0000.0001) %MON ke_mean                      =   1.6154229326494E-04
(PID.TID 0000.0001) %MON ke_vol                       =   1.3226782436723E+18
(PID.TID 0000.0001) %MON vort_r_min                   =  -3.8681779867459E-07
(PID.TID 0000.0001) %MON vort_r_max                   =   4.4582004270050E-07
(PID.TID 0000.0001) %MON vort_a_mean                  =  -2.5274807074085E-05
(PID.TID 0000.0001) %MON vort_a_sd                    =   7.3604627066003E-05
(PID.TID 0000.0001) %MON vort_p_mean                  =  -3.1845655392039E-05
(PID.TID 0000.0001) %MON vort_p_sd                    =   1.3162525683917E-04
(PID.TID 0000.0001) %MON surfExpan_theta_mean         =  -5.2336879777410E-07
(PID.TID 0000.0001) %MON surfExpan_salt_mean          =   1.5956319101339E-07
(PID.TID 0000.0001) // =======================================================
(PID.TID 0000.0001) // End MONITOR dynamic field statistics
(PID.TID 0000.0001) // =======================================================
 EXTERNAL_FIELDS_LOAD,        84 : iP,iLd,i0,i1=    3    4    3    4 ; Wght=  0.7000000000  0.3000000000
 EXTERNAL_FIELDS_LOAD: (fu0,1),fu,fv= -2.7199E-02 -3.7252E-02 -3.0215E-02 -1.0969E-02
 EXTERNAL_FIELDS_LOAD: SST,SSS,Q,E-P= -1.1813E-01  3.4576E+01  1.8201E+02  8.6873E-06
DEBUG_STATS_RL:          Uvel (THERMODYNAMICS)  min= -1.34206508387760E-01
DEBUG_STATS_RL:          Uvel (THERMODYNAMICS)  max=  1.60152563712170E-01
DEBUG_STATS_RL:          Uvel (THERMODYNAMICS) mean=  6.22855996744031E-03
DEBUG_STATS_RL:          Uvel (THERMODYNAMICS) S.D.=  2.34645181923844E-02
DEBUG_STATS_RL:          Vvel (THERMODYNAMICS)  min= -1.02436047349062E-01
DEBUG_STATS_RL:          Vvel (THERMODYNAMICS)  max=  1.48086633147602E-01
DEBUG_STATS_RL:          Vvel (THERMODYNAMICS) mean=  1.11980725716020E-03
DEBUG_STATS_RL:          Vvel (THERMODYNAMICS) S.D.=  1.42009063142023E-02
DEBUG_STATS_RL:          Wvel (THERMODYNAMICS)  min= -8.62950667755141E-05
DEBUG_STATS_RL:          Wvel (THERMODYNAMICS)  max=  2.31868632451614E-04
DEBUG_STATS_RL:          Wvel (THERMODYNAMICS) mean=  1.79525477654093E-08
DEBUG_STATS_RL:          Wvel (THERMODYNAMICS) S.D.=  1.07444874547253E-05
DEBUG_STATS_RL:         Theta (THERMODYNAMICS)  min= -1.94008328550232E+00
DEBUG_STATS_RL:         Theta (THERMODYNAMICS)  max=  3.11210646787748E+01
DEBUG_STATS_RL:         Theta (THERMODYNAMICS) mean=  3.24086775536080E+00
DEBUG_STATS_RL:         Theta (THERMODYNAMICS) S.D.=  5.88801858121953E+00
DEBUG_STATS_RL:          Salt (THERMODYNAMICS)  min=  2.00000000000000E-02
DEBUG_STATS_RL:          Salt (THERMODYNAMICS)  max=  3.74835669248411E+01
DEBUG_STATS_RL:          Salt (THERMODYNAMICS) mean=  1.88647957518183E+01
DEBUG_STATS_RL:          Salt (THERMODYNAMICS) S.D.=  1.73003463872429E+01
DEBUG_STATS_RL:         GtNm1 (THERMODYNAMICS)  min= -3.54952993884181E-06
DEBUG_STATS_RL:         GtNm1 (THERMODYNAMICS)  max=  2.61561391941319E-06
DEBUG_STATS_RL:         GtNm1 (THERMODYNAMICS) mean= -5.31689641040193E-10
DEBUG_STATS_RL:         GtNm1 (THERMODYNAMICS) S.D.=  1.53591122455049E-07
DEBUG_STATS_RL:         GsNm1 (THERMODYNAMICS)  min= -7.08996058644463E-07
DEBUG_STATS_RL:         GsNm1 (THERMODYNAMICS)  max=  4.68632220745692E-07
DEBUG_STATS_RL:         GsNm1 (THERMODYNAMICS) mean= -1.11914722760120E-10
DEBUG_STATS_RL:         GsNm1 (THERMODYNAMICS) S.D.=  1.52623949314495E-08
DEBUG_STATS_RL:                EtaN (DYNAMICS)  min= -2.09627332409889E+00
DEBUG_STATS_RL:                EtaN (DYNAMICS)  max=  1.08167661962250E+00
DEBUG_STATS_RL:                EtaN (DYNAMICS) mean= -2.05438050625879E-01
DEBUG_STATS_RL:                EtaN (DYNAMICS) S.D.=  8.16444304337126E-01
DEBUG_STATS_RL:                Uvel (DYNAMICS)  min= -1.34206508387760E-01
DEBUG_STATS_RL:                Uvel (DYNAMICS)  max=  1.60152563712170E-01
DEBUG_STATS_RL:                Uvel (DYNAMICS) mean=  6.22855996744031E-03
DEBUG_STATS_RL:                Uvel (DYNAMICS) S.D.=  2.34645181923844E-02
DEBUG_STATS_RL:                Vvel (DYNAMICS)  min= -1.02436047349062E-01
DEBUG_STATS_RL:                Vvel (DYNAMICS)  max=  1.48086633147602E-01
DEBUG_STATS_RL:                Vvel (DYNAMICS) mean=  1.11980725716020E-03
DEBUG_STATS_RL:                Vvel (DYNAMICS) S.D.=  1.42009063142023E-02
DEBUG_STATS_RL:                Wvel (DYNAMICS)  min= -8.62950667755141E-05
DEBUG_STATS_RL:                Wvel (DYNAMICS)  max=  2.31868632451614E-04
DEBUG_STATS_RL:                Wvel (DYNAMICS) mean=  1.79525477654093E-08
DEBUG_STATS_RL:                Wvel (DYNAMICS) S.D.=  1.07444874547253E-05
DEBUG_STATS_RL:               Theta (DYNAMICS)  min= -1.94008328550232E+00
DEBUG_STATS_RL:               Theta (DYNAMICS)  max=  3.11210646787748E+01
DEBUG_STATS_RL:               Theta (DYNAMICS) mean=  3.24086775536080E+00
DEBUG_STATS_RL:               Theta (DYNAMICS) S.D.=  5.88801858121953E+00
DEBUG_STATS_RL:                Salt (DYNAMICS)  min=  2.00000000000000E-02
DEBUG_STATS_RL:                Salt (DYNAMICS)  max=  3.74835669248411E+01
DEBUG_STATS_RL:                Salt (DYNAMICS) mean=  1.88647957518183E+01
DEBUG_STATS_RL:                Salt (DYNAMICS) S.D.=  1.73003463872429E+01
DEBUG_STATS_RL:                  Gu (DYNAMICS)  min= -1.33366817543322E-01
DEBUG_STATS_RL:                  Gu (DYNAMICS)  max=  1.63181727603659E-01
DEBUG_STATS_RL:                  Gu (DYNAMICS) mean=  6.20614215502472E-03
DEBUG_STATS_RL:                  Gu (DYNAMICS) S.D.=  2.37556963852066E-02
DEBUG_STATS_RL:                  Gv (DYNAMICS)  min= -1.06374280180132E-01
DEBUG_STATS_RL:                  Gv (DYNAMICS)  max=  1.48319429849208E-01
DEBUG_STATS_RL:                  Gv (DYNAMICS) mean=  3.62569670303636E-03
DEBUG_STATS_RL:                  Gv (DYNAMICS) S.D.=  1.56885872260854E-02
DEBUG_STATS_RL:               GuNm1 (DYNAMICS)  min= -1.06788688590682E-05
DEBUG_STATS_RL:               GuNm1 (DYNAMICS)  max=  9.20382487683367E-06
DEBUG_STATS_RL:               GuNm1 (DYNAMICS) mean=  1.24425800505361E-08
DEBUG_STATS_RL:               GuNm1 (DYNAMICS) S.D.=  1.23039812968966E-06
DEBUG_STATS_RL:               GvNm1 (DYNAMICS)  min= -9.42446703004422E-06
DEBUG_STATS_RL:               GvNm1 (DYNAMICS)  max=  1.54035335572711E-05
DEBUG_STATS_RL:               GvNm1 (DYNAMICS) mean=  7.37462552609673E-07
DEBUG_STATS_RL:               GvNm1 (DYNAMICS) S.D.=  2.61563491586250E-06
DEBUG_STATS_RL:               GtNm1 (DYNAMICS)  min= -3.54952993884181E-06
DEBUG_STATS_RL:               GtNm1 (DYNAMICS)  max=  2.61561391941319E-06
DEBUG_STATS_RL:               GtNm1 (DYNAMICS) mean= -5.31689641040193E-10
DEBUG_STATS_RL:               GtNm1 (DYNAMICS) S.D.=  1.53591122455049E-07
DEBUG_STATS_RL:               GsNm1 (DYNAMICS)  min= -7.08996058644463E-07
DEBUG_STATS_RL:               GsNm1 (DYNAMICS)  max=  4.68632220745692E-07
DEBUG_STATS_RL:               GsNm1 (DYNAMICS) mean= -1.11914722760120E-10
DEBUG_STATS_RL:               GsNm1 (DYNAMICS) S.D.=  1.52623949314495E-08
DEBUG_STATS_RL:    cg2d_b (SOLVE_FOR_PRESSURE)  min= -2.96840138105667E+04
DEBUG_STATS_RL:    cg2d_b (SOLVE_FOR_PRESSURE)  max=  3.09448460664313E+04
DEBUG_STATS_RL:    cg2d_b (SOLVE_FOR_PRESSURE) mean=  5.42147994457279E+00
DEBUG_STATS_RL:    cg2d_b (SOLVE_FOR_PRESSURE) S.D.=  4.07225982049276E+03
 cg2d: Sum(rhs),rhsMax =   4.05583729346795E-01  2.03254034216971E+00
(PID.TID 0000.0001)  cg2d: iter=     1 ; resid.=  1.26192213318253E-01
(PID.TID 0000.0001)  cg2d: iter=     2 ; resid.=  1.15988896094967E-01
(PID.TID 0000.0001)  cg2d: iter=     3 ; resid.=  1.20651276080484E-01
(PID.TID 0000.0001)  cg2d: iter=     4 ; resid.=  1.11568222250609E-01
(PID.TID 0000.0001)  cg2d: iter=     5 ; resid.=  9.64346504140298E-02
(PID.TID 0000.0001)  cg2d: iter=     6 ; resid.=  8.41279448397765E-02
(PID.TID 0000.0001)  cg2d: iter=     7 ; resid.=  7.12415387761074E-02
(PID.TID 0000.0001)  cg2d: iter=     8 ; resid.=  5.31527746898441E-02
(PID.TID 0000.0001)  cg2d: iter=     9 ; resid.=  3.78758656564100E-02
(PID.TID 0000.0001)  cg2d: iter=    10 ; resid.=  3.07594654040537E-02
(PID.TID 0000.0001)  cg2d: iter=    11 ; resid.=  2.48935328062669E-02
(PID.TID 0000.0001)  cg2d: iter=    12 ; resid.=  2.14613872607830E-02
(PID.TID 0000.0001)  cg2d: iter=    13 ; resid.=  1.78567762663614E-02
(PID.TID 0000.0001)  cg2d: iter=    14 ; resid.=  1.46691219697118E-02
(PID.TID 0000.0001)  cg2d: iter=    15 ; resid.=  1.22382952070861E-02
(PID.TID 0000.0001)  cg2d: iter=    16 ; resid.=  1.05577083531675E-02
(PID.TID 0000.0001)  cg2d: iter=    17 ; resid.=  9.54465962924225E-03
(PID.TID 0000.0001)  cg2d: iter=    18 ; resid.=  8.01465321084113E-03
(PID.TID 0000.0001)  cg2d: iter=    19 ; resid.=  6.10752555198085E-03
(PID.TID 0000.0001)  cg2d: iter=    20 ; resid.=  5.50891301300438E-03
(PID.TID 0000.0001)  cg2d: iter=    21 ; resid.=  4.52919717266561E-03
(PID.TID 0000.0001)  cg2d: iter=    22 ; resid.=  4.18051498519620E-03
(PID.TID 0000.0001)  cg2d: iter=    23 ; resid.=  3.42647983382098E-03
(PID.TID 0000.0001)  cg2d: iter=    24 ; resid.=  2.71444782821363E-03
(PID.TID 0000.0001)  cg2d: iter=    25 ; resid.=  2.06667618998461E-03
(PID.TID 0000.0001)  cg2d: iter=    26 ; resid.=  1.56936870289620E-03
(PID.TID 0000.0001)  cg2d: iter=    27 ; resid.=  1.29934394546853E-03
(PID.TID 0000.0001)  cg2d: iter=    28 ; resid.=  1.10366051625737E-03
(PID.TID 0000.0001)  cg2d: iter=    29 ; resid.=  9.22380365737565E-04
(PID.TID 0000.0001)  cg2d: iter=    30 ; resid.=  7.44049906025561E-04
(PID.TID 0000.0001)  cg2d: iter=    31 ; resid.=  5.79359753842297E-04
(PID.TID 0000.0001)  cg2d: iter=    32 ; resid.=  4.31771364718244E-04
(PID.TID 0000.0001)  cg2d: iter=    33 ; resid.=  3.28261942442485E-04
(PID.TID 0000.0001)  cg2d: iter=    34 ; resid.=  2.86330749167824E-04
(PID.TID 0000.0001)  cg2d: iter=    35 ; resid.=  2.56422326008639E-04
(PID.TID 0000.0001)  cg2d: iter=    36 ; resid.=  2.16086342862465E-04
(PID.TID 0000.0001)  cg2d: iter=    37 ; resid.=  1.87991670553674E-04
(PID.TID 0000.0001)  cg2d: iter=    38 ; resid.=  1.52970880919315E-04
(PID.TID 0000.0001)  cg2d: iter=    39 ; resid.=  1.30913046994217E-04
(PID.TID 0000.0001)  cg2d: iter=    40 ; resid.=  1.04784555542720E-04
(PID.TID 0000.0001)  cg2d: iter=    41 ; resid.=  7.97514849392652E-05
(PID.TID 0000.0001)  cg2d: iter=    42 ; resid.=  6.30475259351450E-05
(PID.TID 0000.0001)  cg2d: iter=    43 ; resid.=  5.46753016040759E-05
(PID.TID 0000.0001)  cg2d: iter=    44 ; resid.=  4.53188203269443E-05
(PID.TID 0000.0001)  cg2d: iter=    45 ; resid.=  3.80514668207926E-05
(PID.TID 0000.0001)  cg2d: iter=    46 ; resid.=  2.90743368282714E-05
(PID.TID 0000.0001)  cg2d: iter=    47 ; resid.=  2.17933678665271E-05
(PID.TID 0000.0001)  cg2d: iter=    48 ; resid.=  1.77632631424266E-05
(PID.TID 0000.0001)  cg2d: iter=    49 ; resid.=  1.48316267066418E-05
(PID.TID 0000.0001)  cg2d: iter=    50 ; resid.=  1.22322369400578E-05
(PID.TID 0000.0001)  cg2d: iter=    51 ; resid.=  1.03018489983473E-05
(PID.TID 0000.0001)  cg2d: iter=    52 ; resid.=  9.07172314935953E-06
(PID.TID 0000.0001)  cg2d: iter=    53 ; resid.=  8.56400179875423E-06
(PID.TID 0000.0001)  cg2d: iter=    54 ; resid.=  6.99715856571250E-06
(PID.TID 0000.0001)  cg2d: iter=    55 ; resid.=  6.15258801665191E-06
(PID.TID 0000.0001)  cg2d: iter=    56 ; resid.=  5.10335083554582E-06
(PID.TID 0000.0001)  cg2d: iter=    57 ; resid.=  4.23706520463082E-06
(PID.TID 0000.0001)  cg2d: iter=    58 ; resid.=  3.29969359207999E-06
(PID.TID 0000.0001)  cg2d: iter=    59 ; resid.=  2.41758566904142E-06
(PID.TID 0000.0001)  cg2d: iter=    60 ; resid.=  2.13752300630877E-06
(PID.TID 0000.0001)  cg2d: iter=    61 ; resid.=  1.82899125374005E-06
(PID.TID 0000.0001)  cg2d: iter=    62 ; resid.=  1.53558720850837E-06
(PID.TID 0000.0001)  cg2d: iter=    63 ; resid.=  1.24242784731696E-06
(PID.TID 0000.0001)  cg2d: iter=    64 ; resid.=  9.88032729557847E-07
(PID.TID 0000.0001)  cg2d: iter=    65 ; resid.=  8.46233218258884E-07
(PID.TID 0000.0001)  cg2d: iter=    66 ; resid.=  6.63636619989652E-07
(PID.TID 0000.0001)  cg2d: iter=    67 ; resid.=  5.30326102168991E-07
(PID.TID 0000.0001)  cg2d: iter=    68 ; resid.=  4.93734223603985E-07
(PID.TID 0000.0001)  cg2d: iter=    69 ; resid.=  4.21715172231651E-07
(PID.TID 0000.0001)  cg2d: iter=    70 ; resid.=  3.53075909660569E-07
(PID.TID 0000.0001)  cg2d: iter=    71 ; resid.=  2.84020235545845E-07
(PID.TID 0000.0001)  cg2d: iter=    72 ; resid.=  2.59809094347292E-07
(PID.TID 0000.0001)  cg2d: iter=    73 ; resid.=  2.25618467385952E-07
(PID.TID 0000.0001)  cg2d: iter=    74 ; resid.=  1.96989425179711E-07
(PID.TID 0000.0001)  cg2d: iter=    75 ; resid.=  1.81643297982286E-07
(PID.TID 0000.0001)  cg2d: iter=    76 ; resid.=  1.57694863448896E-07
(PID.TID 0000.0001)  cg2d: iter=    77 ; resid.=  1.32687566574680E-07
(PID.TID 0000.0001)  cg2d: iter=    78 ; resid.=  1.17833103263104E-07
(PID.TID 0000.0001)  cg2d: iter=    79 ; resid.=  9.20930604159572E-08
(PID.TID 0000.0001)  cg2d: iter=    80 ; resid.=  6.92604761560013E-08
(PID.TID 0000.0001)  cg2d: iter=    81 ; resid.=  5.04937600518624E-08
(PID.TID 0000.0001)  cg2d: iter=    82 ; resid.=  3.70122224368468E-08
(PID.TID 0000.0001)  cg2d: iter=    83 ; resid.=  2.97935821981028E-08
(PID.TID 0000.0001)  cg2d: iter=    84 ; resid.=  2.36330738115683E-08
(PID.TID 0000.0001)  cg2d: iter=    85 ; resid.=  1.75444983343030E-08
(PID.TID 0000.0001)  cg2d: iter=    86 ; resid.=  1.33357442369469E-08
(PID.TID 0000.0001)  cg2d: iter=    87 ; resid.=  1.12011295392180E-08
(PID.TID 0000.0001)  cg2d: iter=    88 ; resid.=  9.10164086759660E-09
(PID.TID 0000.0001)  cg2d: iter=    89 ; resid.=  7.27308865057483E-09
(PID.TID 0000.0001)  cg2d: iter=    90 ; resid.=  6.14063452448486E-09
(PID.TID 0000.0001)  cg2d: iter=    91 ; resid.=  4.95210480895589E-09
(PID.TID 0000.0001)  cg2d: iter=    92 ; resid.=  4.19641452342121E-09
(PID.TID 0000.0001)  cg2d: iter=    93 ; resid.=  3.17533703177999E-09
(PID.TID 0000.0001)  cg2d: iter=    94 ; resid.=  2.45674084230996E-09
(PID.TID 0000.0001)  cg2d: iter=    95 ; resid.=  2.10119519976609E-09
(PID.TID 0000.0001)  cg2d: iter=    96 ; resid.=  1.58393981658246E-09
(PID.TID 0000.0001)  cg2d: iter=    97 ; resid.=  1.26458302128169E-09
(PID.TID 0000.0001)  cg2d: iter=    98 ; resid.=  1.05456406809768E-09
(PID.TID 0000.0001)  cg2d: iter=    99 ; resid.=  9.50516012425434E-10
(PID.TID 0000.0001)  cg2d: iter=   100 ; resid.=  8.31289327203554E-10
(PID.TID 0000.0001)  cg2d: iter=   101 ; resid.=  6.78178232489575E-10
(PID.TID 0000.0001)  cg2d: iter=   102 ; resid.=  5.28009020061031E-10
(PID.TID 0000.0001)  cg2d: iter=   103 ; resid.=  3.95764875729478E-10
(PID.TID 0000.0001)  cg2d: iter=   104 ; resid.=  3.29067627222511E-10
(PID.TID 0000.0001)  cg2d: iter=   105 ; resid.=  2.64200045482460E-10
(PID.TID 0000.0001)  cg2d: iter=   106 ; resid.=  1.95273454402966E-10
(PID.TID 0000.0001)  cg2d: iter=   107 ; resid.=  1.38340034981649E-10
(PID.TID 0000.0001)  cg2d: iter=   108 ; resid.=  1.12088242690422E-10
(PID.TID 0000.0001)  cg2d: iter=   109 ; resid.=  8.41520993453253E-11
(PID.TID 0000.0001)  cg2d: iter=   110 ; resid.=  6.55509471912543E-11
(PID.TID 0000.0001)  cg2d: iter=   111 ; resid.=  5.12559453527465E-11
(PID.TID 0000.0001)  cg2d: iter=   112 ; resid.=  3.56780440075635E-11
(PID.TID 0000.0001)  cg2d: iter=   113 ; resid.=  2.39830345278684E-11
(PID.TID 0000.0001)  cg2d: iter=   114 ; resid.=  1.82592326952481E-11
(PID.TID 0000.0001)  cg2d: iter=   115 ; resid.=  1.34569178827278E-11
(PID.TID 0000.0001)  cg2d: iter=   116 ; resid.=  1.03617703223064E-11
(PID.TID 0000.0001)  cg2d: iter=   117 ; resid.=  8.31985008888790E-12
(PID.TID 0000.0001)  cg2d: iter=   118 ; resid.=  6.60208404839942E-12
(PID.TID 0000.0001)  cg2d: iter=   119 ; resid.=  5.40025916674139E-12
(PID.TID 0000.0001)  cg2d: iter=   120 ; resid.=  4.24935078733366E-12
(PID.TID 0000.0001)  cg2d: iter=   121 ; resid.=  3.08098483193281E-12
(PID.TID 0000.0001)  cg2d: iter=   122 ; resid.=  2.32411060458232E-12
(PID.TID 0000.0001)  cg2d: iter=   123 ; resid.=  1.74089160361366E-12
(PID.TID 0000.0001)  cg2d: iter=   124 ; resid.=  1.35646380869636E-12
(PID.TID 0000.0001)  cg2d: iter=   125 ; resid.=  1.04370617345476E-12
(PID.TID 0000.0001)  cg2d: iter=   126 ; resid.=  7.59321958454704E-13
(PID.TID 0000.0001)  cg2d: iter=   127 ; resid.=  5.08130284193006E-13
(PID.TID 0000.0001)  cg2d: iter=   128 ; resid.=  3.46121118421027E-13
(PID.TID 0000.0001)  cg2d: iter=   129 ; resid.=  2.17047339556711E-13
(PID.TID 0000.0001)  cg2d: iter=   130 ; resid.=  1.46606086454968E-13
(PID.TID 0000.0001)  cg2d: iter=   131 ; resid.=  1.02781118938684E-13
(PID.TID 0000.0001)  cg2d: iter=   132 ; resid.=  7.97285400470779E-14
DEBUG_STATS_RL:    cg2d_x (SOLVE_FOR_PRESSURE)  min= -2.04739791932062E+01
DEBUG_STATS_RL:    cg2d_x (SOLVE_FOR_PRESSURE)  max=  1.02899810892199E+01
DEBUG_STATS_RL:    cg2d_x (SOLVE_FOR_PRESSURE) mean= -1.99260815111023E+00
DEBUG_STATS_RL:    cg2d_x (SOLVE_FOR_PRESSURE) S.D.=  7.82957592604543E+00
(PID.TID 0000.0001)      cg2d_init_res =   2.38804981877960E-01
(PID.TID 0000.0001)      cg2d_iters(min,last) =      -1     132
(PID.TID 0000.0001)      cg2d_last_res =   7.97285400470779E-14
(PID.TID 0000.0001) // =======================================================
(PID.TID 0000.0001) // Begin MONITOR dynamic field statistics
(PID.TID 0000.0001) // =======================================================
(PID.TID 0000.0001) %MON time_tsnumber                =                    85
(PID.TID 0000.0001) %MON time_secondsf                =   7.3440000000000E+06
(PID.TID 0000.0001) %MON dynstat_eta_max              =   1.0489277359041E+00
(PID.TID 0000.0001) %MON dynstat_eta_min              =  -2.0870519055255E+00
(PID.TID 0000.0001) %MON dynstat_eta_mean             =  -5.6566420808417E-03
(PID.TID 0000.0001) %MON dynstat_eta_sd               =   7.0042938590019E-01
(PID.TID 0000.0001) %MON dynstat_eta_del2             =   2.5764256149969E-03
(PID.TID 0000.0001) %MON dynstat_uvel_max             =   1.5819747686014E-01
(PID.TID 0000.0001) %MON dynstat_uvel_min             =  -1.3566989660271E-01
(PID.TID 0000.0001) %MON dynstat_uvel_mean            =   2.3550822466952E-03
(PID.TID 0000.0001) %MON dynstat_uvel_sd              =   1.6311084779570E-02
(PID.TID 0000.0001) %MON dynstat_uvel_del2            =   1.1733964916473E-04
(PID.TID 0000.0001) %MON dynstat_vvel_max             =   1.4922652311262E-01
(PID.TID 0000.0001) %MON dynstat_vvel_min             =  -1.0094925195767E-01
(PID.TID 0000.0001) %MON dynstat_vvel_mean            =   4.9459647579517E-05
(PID.TID 0000.0001) %MON dynstat_vvel_sd              =   9.0524865679162E-03
(PID.TID 0000.0001) %MON dynstat_vvel_del2            =   8.2790300697366E-05
(PID.TID 0000.0001) %MON dynstat_wvel_max             =   2.2499689587928E-04
(PID.TID 0000.0001) %MON dynstat_wvel_min             =  -8.2029830197614E-05
(PID.TID 0000.0001) %MON dynstat_wvel_mean            =  -1.6333382785180E-22
(PID.TID 0000.0001) %MON dynstat_wvel_sd              =   1.2054870821862E-05
(PID.TID 0000.0001) %MON dynstat_wvel_del2            =   1.1817487052620E-07
(PID.TID 0000.0001) %MON dynstat_theta_max            =   3.1121064678775E+01
(PID.TID 0000.0001) %MON dynstat_theta_min            =  -1.9400832855023E+00
(PID.TID 0000.0001) %MON dynstat_theta_mean           =   3.6440753210437E+00
(PID.TID 0000.0001) %MON dynstat_theta_sd             =   4.4281387249936E+00
(PID.TID 0000.0001) %MON dynstat_theta_del2           =   4.8532360189374E-03
(PID.TID 0000.0001) %MON dynstat_salt_max             =   3.7483566924841E+01
(PID.TID 0000.0001) %MON dynstat_salt_min             =   2.9940419544363E+01
(PID.TID 0000.0001) %MON dynstat_salt_mean            =   3.4738017269209E+01
(PID.TID 0000.0001) %MON dynstat_salt_sd              =   2.9664085343256E-01
(PID.TID 0000.0001) %MON dynstat_salt_del2            =   9.9635311783130E-04
(PID.TID 0000.0001) %MON dynstat_sst_max              =   3.1121064678775E+01
(PID.TID 0000.0001) %MON dynstat_sst_min              =  -1.9400832855023E+00
(PID.TID 0000.0001) %MON dynstat_sst_mean             =   1.9078328188641E+01
(PID.TID 0000.0001) %MON dynstat_sst_sd               =   9.2190381991043E+00
(PID.TID 0000.0001) %MON dynstat_sst_del2             =   2.9152905944534E-02
(PID.TID 0000.0001) %MON dynstat_sss_max              =   3.7483566924841E+01
(PID.TID 0000.0001) %MON dynstat_sss_min              =   2.9940419544363E+01
(PID.TID 0000.0001) %MON dynstat_sss_mean             =   3.4858222074390E+01
(PID.TID 0000.0001) %MON dynstat_sss_sd               =   9.8899317142203E-01
(PID.TID 0000.0001) %MON dynstat_sss_del2             =   8.2506279380880E-03
(PID.TID 0000.0001) %MON forcing_qnet_max             =   2.3216057739258E+02
(PID.TID 0000.0001) %MON forcing_qnet_min             =  -1.6000362396240E+02
(PID.TID 0000.0001) %MON forcing_qnet_mean            =  -3.6917381294179E+00
(PID.TID 0000.0001) %MON forcing_qnet_sd              =   4.0304657455292E+01
(PID.TID 0000.0001) %MON forcing_qnet_del2            =   7.9840269608377E-01
(PID.TID 0000.0001) %MON forcing_qsw_max              =   0.0000000000000E+00
(PID.TID 0000.0001) %MON forcing_qsw_min              =   0.0000000000000E+00
(PID.TID 0000.0001) %MON forcing_qsw_mean             =   0.0000000000000E+00
(PID.TID 0000.0001) %MON forcing_qsw_sd               =   0.0000000000000E+00
(PID.TID 0000.0001) %MON forcing_qsw_del2             =   0.0000000000000E+00
(PID.TID 0000.0001) %MON forcing_empmr_max            =   6.8243282669300E-05
(PID.TID 0000.0001) %MON forcing_empmr_min            =  -8.3398032302284E-05
(PID.TID 0000.0001) %MON forcing_empmr_mean           =   3.4870277023059E-07
(PID.TID 0000.0001) %MON forcing_empmr_sd             =   2.5758635590810E-05
(PID.TID 0000.0001) %MON forcing_empmr_del2           =   3.6296797063557E-07
(PID.TID 0000.0001) %MON forcing_fu_max               =   3.5084198713303E-01
(PID.TID 0000.0001) %MON forcing_fu_min               =  -3.9695406854153E-01
(PID.TID 0000.0001) %MON forcing_fu_mean              =   1.9312000427992E-02
(PID.TID 0000.0001) %MON forcing_fu_sd                =   1.0042160540531E-01
(PID.TID 0000.0001) %MON forcing_fu_del2              =   7.8721937053415E-04
(PID.TID 0000.0001) %MON forcing_fv_max               =   1.8243633508682E-01
(PID.TID 0000.0001) %MON forcing_fv_min               =  -1.6266221404076E-01
(PID.TID 0000.0001) %MON forcing_fv_mean              =  -7.2012853886873E-03
(PID.TID 0000.0001) %MON forcing_fv_sd                =   3.9658030881186E-02
(PID.TID 0000.0001) %MON forcing_fv_del2              =   4.3709035920482E-04
(PID.TID 0000.0001) %MON trAdv_CFL_u_max              =   4.2528246455775E-02
(PID.TID 0000.0001) %MON trAdv_CFL_v_max              =   2.8724100711358E-02
(PID.TID 0000.0001) %MON trAdv_CFL_w_max              =   5.1367820112358E-02
(PID.TID 0000.0001) %MON advcfl_uvel_max              =   4.2748724680502E-02
(PID.TID 0000.0001) %MON advcfl_vvel_max              =   2.8992320135088E-02
(PID.TID 0000.0001) %MON advcfl_wvel_max              =   5.3259539188959E-02
(PID.TID 0000.0001) %MON advcfl_W_hf_max              =   5.7175681776382E-02
(PID.TID 0000.0001) %MON pe_b_mean                    =   6.2782447321924E-04
(PID.TID 0000.0001) %MON ke_max                       =   1.3339093268378E-02
(PID.TID 0000.0001) %MON ke_mean                      =   1.6018196475097E-04
(PID.TID 0000.0001) %MON ke_vol                       =   1.3226782436723E+18
(PID.TID 0000.0001) %MON vort_r_min                   =  -3.8275376304866E-07
(PID.TID 0000.0001) %MON vort_r_max                   =   4.6364078958097E-07
(PID.TID 0000.0001) %MON vort_a_mean                  =  -2.5274807138756E-05
(PID.TID 0000.0001) %MON vort_a_sd                    =   7.3604620026539E-05
(PID.TID 0000.0001) %MON vort_p_mean                  =  -3.1845655473523E-05
(PID.TID 0000.0001) %MON vort_p_sd                    =   1.3162516288424E-04
(PID.TID 0000.0001) %MON surfExpan_theta_mean         =  -5.7050291441483E-07
(PID.TID 0000.0001) %MON surfExpan_salt_mean          =   1.7295831644697E-07
(PID.TID 0000.0001) // =======================================================
(PID.TID 0000.0001) // End MONITOR dynamic field statistics
(PID.TID 0000.0001) // =======================================================
 EXTERNAL_FIELDS_LOAD,        85 : iP,iLd,i0,i1=    3    4    3    4 ; Wght=  0.6666666667  0.3333333333
 EXTERNAL_FIELDS_LOAD: (fu0,1),fu,fv= -2.7199E-02 -3.7252E-02 -3.0550E-02 -1.2124E-02
 EXTERNAL_FIELDS_LOAD: SST,SSS,Q,E-P= -1.1082E-01  3.4576E+01  1.7830E+02  8.6435E-06
DEBUG_STATS_RL:          Uvel (THERMODYNAMICS)  min= -1.35669896602710E-01
DEBUG_STATS_RL:          Uvel (THERMODYNAMICS)  max=  1.58197476860141E-01
DEBUG_STATS_RL:          Uvel (THERMODYNAMICS) mean=  6.16064474985875E-03
DEBUG_STATS_RL:          Uvel (THERMODYNAMICS) S.D.=  2.33936078719319E-02
DEBUG_STATS_RL:          Vvel (THERMODYNAMICS)  min= -1.00949251957674E-01
DEBUG_STATS_RL:          Vvel (THERMODYNAMICS)  max=  1.49226523112618E-01
DEBUG_STATS_RL:          Vvel (THERMODYNAMICS) mean=  1.11961940514084E-03
DEBUG_STATS_RL:          Vvel (THERMODYNAMICS) S.D.=  1.41444168999303E-02
DEBUG_STATS_RL:          Wvel (THERMODYNAMICS)  min= -8.20298301976136E-05
DEBUG_STATS_RL:          Wvel (THERMODYNAMICS)  max=  2.24996895879283E-04
DEBUG_STATS_RL:          Wvel (THERMODYNAMICS) mean=  1.48240762399820E-08
DEBUG_STATS_RL:          Wvel (THERMODYNAMICS) S.D.=  1.06332593082418E-05
DEBUG_STATS_RL:         Theta (THERMODYNAMICS)  min= -1.93892174616289E+00
DEBUG_STATS_RL:         Theta (THERMODYNAMICS)  max=  3.11405765643665E+01
DEBUG_STATS_RL:         Theta (THERMODYNAMICS) mean=  3.24078550378358E+00
DEBUG_STATS_RL:         Theta (THERMODYNAMICS) S.D.=  5.88827433917501E+00
DEBUG_STATS_RL:          Salt (THERMODYNAMICS)  min=  2.00000000000000E-02
DEBUG_STATS_RL:          Salt (THERMODYNAMICS)  max=  3.74841759381352E+01
DEBUG_STATS_RL:          Salt (THERMODYNAMICS) mean=  1.88647907474311E+01
DEBUG_STATS_RL:          Salt (THERMODYNAMICS) S.D.=  1.73003425017215E+01
DEBUG_STATS_RL:         GtNm1 (THERMODYNAMICS)  min= -3.51418448038340E-06
DEBUG_STATS_RL:         GtNm1 (THERMODYNAMICS)  max=  2.42882303660041E-06
DEBUG_STATS_RL:         GtNm1 (THERMODYNAMICS) mean= -7.12006410856672E-10
DEBUG_STATS_RL:         GtNm1 (THERMODYNAMICS) S.D.=  1.50860542848348E-07
DEBUG_STATS_RL:         GsNm1 (THERMODYNAMICS)  min= -7.04459760893715E-07
DEBUG_STATS_RL:         GsNm1 (THERMODYNAMICS)  max=  4.61006317041753E-07
DEBUG_STATS_RL:         GsNm1 (THERMODYNAMICS) mean= -1.48413502831188E-10
DEBUG_STATS_RL:         GsNm1 (THERMODYNAMICS) S.D.=  1.48347650786859E-08
DEBUG_STATS_RL:                EtaN (DYNAMICS)  min= -2.08705190552548E+00
DEBUG_STATS_RL:                EtaN (DYNAMICS)  max=  1.04892773590411E+00
DEBUG_STATS_RL:                EtaN (DYNAMICS) mean= -2.03120096953134E-01
DEBUG_STATS_RL:                EtaN (DYNAMICS) S.D.=  7.98121908873142E-01
DEBUG_STATS_RL:                Uvel (DYNAMICS)  min= -1.35669896602710E-01
DEBUG_STATS_RL:                Uvel (DYNAMICS)  max=  1.58197476860141E-01
DEBUG_STATS_RL:                Uvel (DYNAMICS) mean=  6.16064474985875E-03
DEBUG_STATS_RL:                Uvel (DYNAMICS) S.D.=  2.33936078719319E-02
DEBUG_STATS_RL:                Vvel (DYNAMICS)  min= -1.00949251957674E-01
DEBUG_STATS_RL:                Vvel (DYNAMICS)  max=  1.49226523112618E-01
DEBUG_STATS_RL:                Vvel (DYNAMICS) mean=  1.11961940514084E-03
DEBUG_STATS_RL:                Vvel (DYNAMICS) S.D.=  1.41444168999303E-02
DEBUG_STATS_RL:                Wvel (DYNAMICS)  min= -8.20298301976136E-05
DEBUG_STATS_RL:                Wvel (DYNAMICS)  max=  2.24996895879283E-04
DEBUG_STATS_RL:                Wvel (DYNAMICS) mean=  1.48240762399820E-08
DEBUG_STATS_RL:                Wvel (DYNAMICS) S.D.=  1.06332593082418E-05
DEBUG_STATS_RL:               Theta (DYNAMICS)  min= -1.93892174616289E+00
DEBUG_STATS_RL:               Theta (DYNAMICS)  max=  3.11405765643665E+01
DEBUG_STATS_RL:               Theta (DYNAMICS) mean=  3.24078550378358E+00
DEBUG_STATS_RL:               Theta (DYNAMICS) S.D.=  5.88827433917501E+00
DEBUG_STATS_RL:                Salt (DYNAMICS)  min=  2.00000000000000E-02
DEBUG_STATS_RL:                Salt (DYNAMICS)  max=  3.74841759381352E+01
DEBUG_STATS_RL:                Salt (DYNAMICS) mean=  1.88647907474311E+01
DEBUG_STATS_RL:                Salt (DYNAMICS) S.D.=  1.73003425017215E+01
DEBUG_STATS_RL:                  Gu (DYNAMICS)  min= -1.34808390958593E-01
DEBUG_STATS_RL:                  Gu (DYNAMICS)  max=  1.60325146444189E-01
DEBUG_STATS_RL:                  Gu (DYNAMICS) mean=  6.12925643272611E-03
DEBUG_STATS_RL:                  Gu (DYNAMICS) S.D.=  2.36829490283304E-02
DEBUG_STATS_RL:                  Gv (DYNAMICS)  min= -1.04316106244050E-01
DEBUG_STATS_RL:                  Gv (DYNAMICS)  max=  1.49414101177894E-01
DEBUG_STATS_RL:                  Gv (DYNAMICS) mean=  3.60388903480239E-03
DEBUG_STATS_RL:                  Gv (DYNAMICS) S.D.=  1.56357566803861E-02
DEBUG_STATS_RL:               GuNm1 (DYNAMICS)  min= -1.05978818877202E-05
DEBUG_STATS_RL:               GuNm1 (DYNAMICS)  max=  9.17898863626382E-06
DEBUG_STATS_RL:               GuNm1 (DYNAMICS) mean=  1.30769671512964E-08
DEBUG_STATS_RL:               GuNm1 (DYNAMICS) S.D.=  1.23088797648037E-06
DEBUG_STATS_RL:               GvNm1 (DYNAMICS)  min= -9.38718727618213E-06
DEBUG_STATS_RL:               GvNm1 (DYNAMICS)  max=  1.53674730309753E-05
DEBUG_STATS_RL:               GvNm1 (DYNAMICS) mean=  7.37636075572080E-07
DEBUG_STATS_RL:               GvNm1 (DYNAMICS) S.D.=  2.61455392228640E-06
DEBUG_STATS_RL:               GtNm1 (DYNAMICS)  min= -3.51418448038340E-06
DEBUG_STATS_RL:               GtNm1 (DYNAMICS)  max=  2.42882303660041E-06
DEBUG_STATS_RL:               GtNm1 (DYNAMICS) mean= -7.12006410856672E-10
DEBUG_STATS_RL:               GtNm1 (DYNAMICS) S.D.=  1.50860542848348E-07
DEBUG_STATS_RL:               GsNm1 (DYNAMICS)  min= -7.04459760893715E-07
DEBUG_STATS_RL:               GsNm1 (DYNAMICS)  max=  4.61006317041753E-07
DEBUG_STATS_RL:               GsNm1 (DYNAMICS) mean= -1.48413502831188E-10
DEBUG_STATS_RL:               GsNm1 (DYNAMICS) S.D.=  1.48347650786859E-08
DEBUG_STATS_RL:    cg2d_b (SOLVE_FOR_PRESSURE)  min= -3.02158902420784E+04
DEBUG_STATS_RL:    cg2d_b (SOLVE_FOR_PRESSURE)  max=  3.13164620359927E+04
DEBUG_STATS_RL:    cg2d_b (SOLVE_FOR_PRESSURE) mean=  5.44758309501124E+00
DEBUG_STATS_RL:    cg2d_b (SOLVE_FOR_PRESSURE) S.D.=  4.07389746034078E+03
 cg2d: Sum(rhs),rhsMax =   4.02700498238203E-01  2.05694907402465E+00
(PID.TID 0000.0001)  cg2d: iter=     1 ; resid.=  1.25454381865457E-01
(PID.TID 0000.0001)  cg2d: iter=     2 ; resid.=  1.18918928189215E-01
(PID.TID 0000.0001)  cg2d: iter=     3 ; resid.=  1.23808208732924E-01
(PID.TID 0000.0001)  cg2d: iter=     4 ; resid.=  1.13261848112714E-01
(PID.TID 0000.0001)  cg2d: iter=     5 ; resid.=  1.00552686381950E-01
(PID.TID 0000.0001)  cg2d: iter=     6 ; resid.=  8.82590639264138E-02
(PID.TID 0000.0001)  cg2d: iter=     7 ; resid.=  7.21510855317965E-02
(PID.TID 0000.0001)  cg2d: iter=     8 ; resid.=  5.23641325979964E-02
(PID.TID 0000.0001)  cg2d: iter=     9 ; resid.=  3.69558648305640E-02
(PID.TID 0000.0001)  cg2d: iter=    10 ; resid.=  2.98851439670510E-02
(PID.TID 0000.0001)  cg2d: iter=    11 ; resid.=  2.44675506598798E-02
(PID.TID 0000.0001)  cg2d: iter=    12 ; resid.=  2.11683752685541E-02
(PID.TID 0000.0001)  cg2d: iter=    13 ; resid.=  1.80071301444167E-02
(PID.TID 0000.0001)  cg2d: iter=    14 ; resid.=  1.49891416449548E-02
(PID.TID 0000.0001)  cg2d: iter=    15 ; resid.=  1.24917310031607E-02
(PID.TID 0000.0001)  cg2d: iter=    16 ; resid.=  1.09872381227773E-02
(PID.TID 0000.0001)  cg2d: iter=    17 ; resid.=  9.84229901454363E-03
(PID.TID 0000.0001)  cg2d: iter=    18 ; resid.=  8.11678841967453E-03
(PID.TID 0000.0001)  cg2d: iter=    19 ; resid.=  6.15857623957495E-03
(PID.TID 0000.0001)  cg2d: iter=    20 ; resid.=  5.45833876157627E-03
(PID.TID 0000.0001)  cg2d: iter=    21 ; resid.=  4.48268854968666E-03
(PID.TID 0000.0001)  cg2d: iter=    22 ; resid.=  4.14500113901360E-03
(PID.TID 0000.0001)  cg2d: iter=    23 ; resid.=  3.41231558118199E-03
(PID.TID 0000.0001)  cg2d: iter=    24 ; resid.=  2.77877349076482E-03
(PID.TID 0000.0001)  cg2d: iter=    25 ; resid.=  2.08915097392117E-03
(PID.TID 0000.0001)  cg2d: iter=    26 ; resid.=  1.56412993100204E-03
(PID.TID 0000.0001)  cg2d: iter=    27 ; resid.=  1.27401024895427E-03
(PID.TID 0000.0001)  cg2d: iter=    28 ; resid.=  1.06431905998060E-03
(PID.TID 0000.0001)  cg2d: iter=    29 ; resid.=  8.90661428850250E-04
(PID.TID 0000.0001)  cg2d: iter=    30 ; resid.=  7.32678623760961E-04
(PID.TID 0000.0001)  cg2d: iter=    31 ; resid.=  5.82950227030561E-04
(PID.TID 0000.0001)  cg2d: iter=    32 ; resid.=  4.34973027409402E-04
(PID.TID 0000.0001)  cg2d: iter=    33 ; resid.=  3.27643754970294E-04
(PID.TID 0000.0001)  cg2d: iter=    34 ; resid.=  2.90071444700352E-04
(PID.TID 0000.0001)  cg2d: iter=    35 ; resid.=  2.57733267079911E-04
(PID.TID 0000.0001)  cg2d: iter=    36 ; resid.=  2.13570919176604E-04
(PID.TID 0000.0001)  cg2d: iter=    37 ; resid.=  1.87024790937039E-04
(PID.TID 0000.0001)  cg2d: iter=    38 ; resid.=  1.52491423293112E-04
(PID.TID 0000.0001)  cg2d: iter=    39 ; resid.=  1.30797990250281E-04
(PID.TID 0000.0001)  cg2d: iter=    40 ; resid.=  1.04592394592965E-04
(PID.TID 0000.0001)  cg2d: iter=    41 ; resid.=  7.94049568012174E-05
(PID.TID 0000.0001)  cg2d: iter=    42 ; resid.=  6.24674395010289E-05
(PID.TID 0000.0001)  cg2d: iter=    43 ; resid.=  5.30779102046074E-05
(PID.TID 0000.0001)  cg2d: iter=    44 ; resid.=  4.33430766582557E-05
(PID.TID 0000.0001)  cg2d: iter=    45 ; resid.=  3.67308647916549E-05
(PID.TID 0000.0001)  cg2d: iter=    46 ; resid.=  2.82396571800102E-05
(PID.TID 0000.0001)  cg2d: iter=    47 ; resid.=  2.12815550776619E-05
(PID.TID 0000.0001)  cg2d: iter=    48 ; resid.=  1.73652084292092E-05
(PID.TID 0000.0001)  cg2d: iter=    49 ; resid.=  1.46206259949391E-05
(PID.TID 0000.0001)  cg2d: iter=    50 ; resid.=  1.18580506540720E-05
(PID.TID 0000.0001)  cg2d: iter=    51 ; resid.=  9.90744813612146E-06
(PID.TID 0000.0001)  cg2d: iter=    52 ; resid.=  8.66228769395543E-06
(PID.TID 0000.0001)  cg2d: iter=    53 ; resid.=  7.96760154860596E-06
(PID.TID 0000.0001)  cg2d: iter=    54 ; resid.=  6.30077309942606E-06
(PID.TID 0000.0001)  cg2d: iter=    55 ; resid.=  5.40539984805440E-06
(PID.TID 0000.0001)  cg2d: iter=    56 ; resid.=  4.54544809539814E-06
(PID.TID 0000.0001)  cg2d: iter=    57 ; resid.=  3.78785627540404E-06
(PID.TID 0000.0001)  cg2d: iter=    58 ; resid.=  2.94975591369023E-06
(PID.TID 0000.0001)  cg2d: iter=    59 ; resid.=  2.14605202966549E-06
(PID.TID 0000.0001)  cg2d: iter=    60 ; resid.=  1.86649743624997E-06
(PID.TID 0000.0001)  cg2d: iter=    61 ; resid.=  1.57782913684116E-06
(PID.TID 0000.0001)  cg2d: iter=    62 ; resid.=  1.31989691707294E-06
(PID.TID 0000.0001)  cg2d: iter=    63 ; resid.=  1.05631692757168E-06
(PID.TID 0000.0001)  cg2d: iter=    64 ; resid.=  8.17957827271928E-07
(PID.TID 0000.0001)  cg2d: iter=    65 ; resid.=  6.68894207967473E-07
(PID.TID 0000.0001)  cg2d: iter=    66 ; resid.=  5.05105954121380E-07
(PID.TID 0000.0001)  cg2d: iter=    67 ; resid.=  3.75832135183668E-07
(PID.TID 0000.0001)  cg2d: iter=    68 ; resid.=  3.22101715430579E-07
(PID.TID 0000.0001)  cg2d: iter=    69 ; resid.=  2.55212564267733E-07
(PID.TID 0000.0001)  cg2d: iter=    70 ; resid.=  1.97250873757893E-07
(PID.TID 0000.0001)  cg2d: iter=    71 ; resid.=  1.45078001844431E-07
(PID.TID 0000.0001)  cg2d: iter=    72 ; resid.=  1.17940678901662E-07
(PID.TID 0000.0001)  cg2d: iter=    73 ; resid.=  8.99689824791556E-08
(PID.TID 0000.0001)  cg2d: iter=    74 ; resid.=  6.99562420214900E-08
(PID.TID 0000.0001)  cg2d: iter=    75 ; resid.=  5.90080691105086E-08
(PID.TID 0000.0001)  cg2d: iter=    76 ; resid.=  4.98504268052209E-08
(PID.TID 0000.0001)  cg2d: iter=    77 ; resid.=  4.22508986575076E-08
(PID.TID 0000.0001)  cg2d: iter=    78 ; resid.=  4.17103222489624E-08
(PID.TID 0000.0001)  cg2d: iter=    79 ; resid.=  3.89075641993544E-08
(PID.TID 0000.0001)  cg2d: iter=    80 ; resid.=  3.48896166990803E-08
(PID.TID 0000.0001)  cg2d: iter=    81 ; resid.=  2.96896588263854E-08
(PID.TID 0000.0001)  cg2d: iter=    82 ; resid.=  2.39864779628547E-08
(PID.TID 0000.0001)  cg2d: iter=    83 ; resid.=  2.06375088822399E-08
(PID.TID 0000.0001)  cg2d: iter=    84 ; resid.=  1.74308707075015E-08
(PID.TID 0000.0001)  cg2d: iter=    85 ; resid.=  1.36355627879517E-08
(PID.TID 0000.0001)  cg2d: iter=    86 ; resid.=  1.07554694975391E-08
(PID.TID 0000.0001)  cg2d: iter=    87 ; resid.=  9.37471897683669E-09
(PID.TID 0000.0001)  cg2d: iter=    88 ; resid.=  7.94026608147966E-09
(PID.TID 0000.0001)  cg2d: iter=    89 ; resid.=  6.62801721541843E-09
(PID.TID 0000.0001)  cg2d: iter=    90 ; resid.=  5.70055471053297E-09
(PID.TID 0000.0001)  cg2d: iter=    91 ; resid.=  4.59413965643372E-09
(PID.TID 0000.0001)  cg2d: iter=    92 ; resid.=  3.89120148358487E-09
(PID.TID 0000.0001)  cg2d: iter=    93 ; resid.=  2.98246797331063E-09
(PID.TID 0000.0001)  cg2d: iter=    94 ; resid.=  2.31830210771093E-09
(PID.TID 0000.0001)  cg2d: iter=    95 ; resid.=  1.98168145414602E-09
(PID.TID 0000.0001)  cg2d: iter=    96 ; resid.=  1.50207678052845E-09
(PID.TID 0000.0001)  cg2d: iter=    97 ; resid.=  1.19581389980416E-09
(PID.TID 0000.0001)  cg2d: iter=    98 ; resid.=  1.00608198170369E-09
(PID.TID 0000.0001)  cg2d: iter=    99 ; resid.=  9.19656227586225E-10
(PID.TID 0000.0001)  cg2d: iter=   100 ; resid.=  8.19815443831024E-10
(PID.TID 0000.0001)  cg2d: iter=   101 ; resid.=  6.76817448246254E-10
(PID.TID 0000.0001)  cg2d: iter=   102 ; resid.=  5.25415678331011E-10
(PID.TID 0000.0001)  cg2d: iter=   103 ; resid.=  3.95553399074857E-10
(PID.TID 0000.0001)  cg2d: iter=   104 ; resid.=  3.28887514662515E-10
(PID.TID 0000.0001)  cg2d: iter=   105 ; resid.=  2.57930558950774E-10
(PID.TID 0000.0001)  cg2d: iter=   106 ; resid.=  1.88485298444694E-10
(PID.TID 0000.0001)  cg2d: iter=   107 ; resid.=  1.32330597773360E-10
(PID.TID 0000.0001)  cg2d: iter=   108 ; resid.=  1.02652146953238E-10
(PID.TID 0000.0001)  cg2d: iter=   109 ; resid.=  7.67652577303080E-11
(PID.TID 0000.0001)  cg2d: iter=   110 ; resid.=  6.07319380206290E-11
(PID.TID 0000.0001)  cg2d: iter=   111 ; resid.=  4.80037309002909E-11
(PID.TID 0000.0001)  cg2d: iter=   112 ; resid.=  3.41113702970584E-11
(PID.TID 0000.0001)  cg2d: iter=   113 ; resid.=  2.29943100115928E-11
(PID.TID 0000.0001)  cg2d: iter=   114 ; resid.=  1.76688030383958E-11
(PID.TID 0000.0001)  cg2d: iter=   115 ; resid.=  1.31556173361320E-11
(PID.TID 0000.0001)  cg2d: iter=   116 ; resid.=  1.01241093977301E-11
(PID.TID 0000.0001)  cg2d: iter=   117 ; resid.=  8.09606200260413E-12
(PID.TID 0000.0001)  cg2d: iter=   118 ; resid.=  6.38495138313888E-12
(PID.TID 0000.0001)  cg2d: iter=   119 ; resid.=  5.13737912240416E-12
(PID.TID 0000.0001)  cg2d: iter=   120 ; resid.=  4.09967597587672E-12
(PID.TID 0000.0001)  cg2d: iter=   121 ; resid.=  2.99376910639116E-12
(PID.TID 0000.0001)  cg2d: iter=   122 ; resid.=  2.22755833911825E-12
(PID.TID 0000.0001)  cg2d: iter=   123 ; resid.=  1.69199033086206E-12
(PID.TID 0000.0001)  cg2d: iter=   124 ; resid.=  1.31295351930510E-12
(PID.TID 0000.0001)  cg2d: iter=   125 ; resid.=  9.91441686725012E-13
(PID.TID 0000.0001)  cg2d: iter=   126 ; resid.=  7.13641927956110E-13
(PID.TID 0000.0001)  cg2d: iter=   127 ; resid.=  4.71309280919341E-13
(PID.TID 0000.0001)  cg2d: iter=   128 ; resid.=  3.33602780019868E-13
(PID.TID 0000.0001)  cg2d: iter=   129 ; resid.=  2.11420194594704E-13
(PID.TID 0000.0001)  cg2d: iter=   130 ; resid.=  1.42932093007638E-13
(PID.TID 0000.0001)  cg2d: iter=   131 ; resid.=  9.81393600120224E-14
DEBUG_STATS_RL:    cg2d_x (SOLVE_FOR_PRESSURE)  min= -2.03834952460884E+01
DEBUG_STATS_RL:    cg2d_x (SOLVE_FOR_PRESSURE)  max=  9.95081567783586E+00
DEBUG_STATS_RL:    cg2d_x (SOLVE_FOR_PRESSURE) mean= -1.96818924983888E+00
DEBUG_STATS_RL:    cg2d_x (SOLVE_FOR_PRESSURE) S.D.=  7.65183091745157E+00
(PID.TID 0000.0001)      cg2d_init_res =   2.35641182777784E-01
(PID.TID 0000.0001)      cg2d_iters(min,last) =      -1     131
(PID.TID 0000.0001)      cg2d_last_res =   9.81393600120224E-14
(PID.TID 0000.0001) // =======================================================
(PID.TID 0000.0001) // Begin MONITOR dynamic field statistics
(PID.TID 0000.0001) // =======================================================
(PID.TID 0000.0001) %MON time_tsnumber                =                    86
(PID.TID 0000.0001) %MON time_secondsf                =   7.4304000000000E+06
(PID.TID 0000.0001) %MON dynstat_eta_max              =   1.0143542994737E+00
(PID.TID 0000.0001) %MON dynstat_eta_min              =  -2.0778282615788E+00
(PID.TID 0000.0001) %MON dynstat_eta_mean             =  -5.6838774816407E-03
(PID.TID 0000.0001) %MON dynstat_eta_sd               =   6.8073017100835E-01
(PID.TID 0000.0001) %MON dynstat_eta_del2             =   2.5836023939148E-03
(PID.TID 0000.0001) %MON dynstat_uvel_max             =   1.5539382220811E-01
(PID.TID 0000.0001) %MON dynstat_uvel_min             =  -1.3700085205987E-01
(PID.TID 0000.0001) %MON dynstat_uvel_mean            =   2.3180054589595E-03
(PID.TID 0000.0001) %MON dynstat_uvel_sd              =   1.6237230805877E-02
(PID.TID 0000.0001) %MON dynstat_uvel_del2            =   1.1785642199162E-04
(PID.TID 0000.0001) %MON dynstat_vvel_max             =   1.4995033265445E-01
(PID.TID 0000.0001) %MON dynstat_vvel_min             =  -9.8297874378135E-02
(PID.TID 0000.0001) %MON dynstat_vvel_mean            =   6.4048072352623E-05
(PID.TID 0000.0001) %MON dynstat_vvel_sd              =   9.0165246693548E-03
(PID.TID 0000.0001) %MON dynstat_vvel_del2            =   8.2855187045269E-05
(PID.TID 0000.0001) %MON dynstat_wvel_max             =   2.1557805461499E-04
(PID.TID 0000.0001) %MON dynstat_wvel_min             =  -7.6514517791242E-05
(PID.TID 0000.0001) %MON dynstat_wvel_mean            =   4.3121415020556E-24
(PID.TID 0000.0001) %MON dynstat_wvel_sd              =   1.1936187276428E-05
(PID.TID 0000.0001) %MON dynstat_wvel_del2            =   1.1649984675662E-07
(PID.TID 0000.0001) %MON dynstat_theta_max            =   3.1140576564366E+01
(PID.TID 0000.0001) %MON dynstat_theta_min            =  -1.9389217461629E+00
(PID.TID 0000.0001) %MON dynstat_theta_mean           =   3.6441063036344E+00
(PID.TID 0000.0001) %MON dynstat_theta_sd             =   4.4282937987439E+00
(PID.TID 0000.0001) %MON dynstat_theta_del2           =   4.8509295219163E-03
(PID.TID 0000.0001) %MON dynstat_salt_max             =   3.7484175938135E+01
(PID.TID 0000.0001) %MON dynstat_salt_min             =   2.9944090700033E+01
(PID.TID 0000.0001) %MON dynstat_salt_mean            =   3.4738013704583E+01
(PID.TID 0000.0001) %MON dynstat_salt_sd              =   2.9664008178649E-01
(PID.TID 0000.0001) %MON dynstat_salt_del2            =   9.9664200033500E-04
(PID.TID 0000.0001) %MON dynstat_sst_max              =   3.1140576564366E+01
(PID.TID 0000.0001) %MON dynstat_sst_min              =  -1.9389217461629E+00
(PID.TID 0000.0001) %MON dynstat_sst_mean             =   1.9077075456334E+01
(PID.TID 0000.0001) %MON dynstat_sst_sd               =   9.2267627234146E+00
(PID.TID 0000.0001) %MON dynstat_sst_del2             =   2.9185130857136E-02
(PID.TID 0000.0001) %MON dynstat_sss_max              =   3.7484175938135E+01
(PID.TID 0000.0001) %MON dynstat_sss_min              =   2.9944090700033E+01
(PID.TID 0000.0001) %MON dynstat_sss_mean             =   3.4858121276928E+01
(PID.TID 0000.0001) %MON dynstat_sss_sd               =   9.8939711128085E-01
(PID.TID 0000.0001) %MON dynstat_sss_del2             =   8.2594032232153E-03
(PID.TID 0000.0001) %MON forcing_qnet_max             =   2.2745534261068E+02
(PID.TID 0000.0001) %MON forcing_qnet_min             =  -1.5957562764486E+02
(PID.TID 0000.0001) %MON forcing_qnet_mean            =  -3.2947017004483E+00
(PID.TID 0000.0001) %MON forcing_qnet_sd              =   3.9956383247608E+01
(PID.TID 0000.0001) %MON forcing_qnet_del2            =   7.9475318361249E-01
(PID.TID 0000.0001) %MON forcing_qsw_max              =   0.0000000000000E+00
(PID.TID 0000.0001) %MON forcing_qsw_min              =   0.0000000000000E+00
(PID.TID 0000.0001) %MON forcing_qsw_mean             =   0.0000000000000E+00
(PID.TID 0000.0001) %MON forcing_qsw_sd               =   0.0000000000000E+00
(PID.TID 0000.0001) %MON forcing_qsw_del2             =   0.0000000000000E+00
(PID.TID 0000.0001) %MON forcing_empmr_max            =   6.8147111657405E-05
(PID.TID 0000.0001) %MON forcing_empmr_min            =  -8.3412878382205E-05
(PID.TID 0000.0001) %MON forcing_empmr_mean           =   3.2625740540304E-07
(PID.TID 0000.0001) %MON forcing_empmr_sd             =   2.5717379388333E-05
(PID.TID 0000.0001) %MON forcing_empmr_del2           =   3.6294743074173E-07
(PID.TID 0000.0001) %MON forcing_fu_max               =   3.5034993290901E-01
(PID.TID 0000.0001) %MON forcing_fu_min               =  -3.9788714051247E-01
(PID.TID 0000.0001) %MON forcing_fu_mean              =   1.9184808331060E-02
(PID.TID 0000.0001) %MON forcing_fu_sd                =   1.0034993850227E-01
(PID.TID 0000.0001) %MON forcing_fu_del2              =   7.8368532274322E-04
(PID.TID 0000.0001) %MON forcing_fv_max               =   1.8234033385913E-01
(PID.TID 0000.0001) %MON forcing_fv_min               =  -1.5925450126330E-01
(PID.TID 0000.0001) %MON forcing_fv_mean              =  -7.1648087163143E-03
(PID.TID 0000.0001) %MON forcing_fv_sd                =   3.9441832348840E-02
(PID.TID 0000.0001) %MON forcing_fv_del2              =   4.3198785440953E-04
(PID.TID 0000.0001) %MON trAdv_CFL_u_max              =   4.2757407252229E-02
(PID.TID 0000.0001) %MON trAdv_CFL_v_max              =   2.8945203139437E-02
(PID.TID 0000.0001) %MON trAdv_CFL_w_max              =   4.9845466164026E-02
(PID.TID 0000.0001) %MON advcfl_uvel_max              =   4.4502090260701E-02
(PID.TID 0000.0001) %MON advcfl_vvel_max              =   2.9132944720557E-02
(PID.TID 0000.0001) %MON advcfl_wvel_max              =   5.1029983339001E-02
(PID.TID 0000.0001) %MON advcfl_W_hf_max              =   5.4782187996281E-02
(PID.TID 0000.0001) %MON pe_b_mean                    =   5.9300926149203E-04
(PID.TID 0000.0001) %MON ke_max                       =   1.2854050638548E-02
(PID.TID 0000.0001) %MON ke_mean                      =   1.5872017731859E-04
(PID.TID 0000.0001) %MON ke_vol                       =   1.3226782436723E+18
(PID.TID 0000.0001) %MON vort_r_min                   =  -3.7801599712989E-07
(PID.TID 0000.0001) %MON vort_r_max                   =   4.7350683095516E-07
(PID.TID 0000.0001) %MON vort_a_mean                  =  -2.5274807194134E-05
(PID.TID 0000.0001) %MON vort_a_sd                    =   7.3604613740714E-05
(PID.TID 0000.0001) %MON vort_p_mean                  =  -3.1845655543297E-05
(PID.TID 0000.0001) %MON vort_p_sd                    =   1.3162506534190E-04
(PID.TID 0000.0001) %MON surfExpan_theta_mean         =  -5.9798458891476E-07
(PID.TID 0000.0001) %MON surfExpan_salt_mean          =   1.8143331840292E-07
(PID.TID 0000.0001) // =======================================================
(PID.TID 0000.0001) // End MONITOR dynamic field statistics
(PID.TID 0000.0001) // =======================================================
 EXTERNAL_FIELDS_LOAD,        86 : iP,iLd,i0,i1=    3    4    3    4 ; Wght=  0.6333333333  0.3666666667
 EXTERNAL_FIELDS_LOAD: (fu0,1),fu,fv= -2.7199E-02 -3.7252E-02 -3.0885E-02 -1.3279E-02
 EXTERNAL_FIELDS_LOAD: SST,SSS,Q,E-P= -1.0352E-01  3.4575E+01  1.7459E+02  8.5998E-06
DEBUG_STATS_RL:          Uvel (THERMODYNAMICS)  min= -1.37000852059873E-01
DEBUG_STATS_RL:          Uvel (THERMODYNAMICS)  max=  1.55393822208108E-01
DEBUG_STATS_RL:          Uvel (THERMODYNAMICS) mean=  6.08652351740079E-03
DEBUG_STATS_RL:          Uvel (THERMODYNAMICS) S.D.=  2.33287078555653E-02
DEBUG_STATS_RL:          Vvel (THERMODYNAMICS)  min= -9.82978743781349E-02
DEBUG_STATS_RL:          Vvel (THERMODYNAMICS)  max=  1.49950332654450E-01
DEBUG_STATS_RL:          Vvel (THERMODYNAMICS) mean=  1.11097088086686E-03
DEBUG_STATS_RL:          Vvel (THERMODYNAMICS) S.D.=  1.40849745625352E-02
DEBUG_STATS_RL:          Wvel (THERMODYNAMICS)  min= -7.65145177912419E-05
DEBUG_STATS_RL:          Wvel (THERMODYNAMICS)  max=  2.15578054614993E-04
DEBUG_STATS_RL:          Wvel (THERMODYNAMICS) mean=  1.06067501439778E-08
DEBUG_STATS_RL:          Wvel (THERMODYNAMICS) S.D.=  1.05087550919120E-05
DEBUG_STATS_RL:         Theta (THERMODYNAMICS)  min= -1.93777663521899E+00
DEBUG_STATS_RL:         Theta (THERMODYNAMICS)  max=  3.11593729622226E+01
DEBUG_STATS_RL:         Theta (THERMODYNAMICS) mean=  3.24069712622975E+00
DEBUG_STATS_RL:         Theta (THERMODYNAMICS) S.D.=  5.88850256797014E+00
DEBUG_STATS_RL:          Salt (THERMODYNAMICS)  min=  2.00000000000000E-02
DEBUG_STATS_RL:          Salt (THERMODYNAMICS)  max=  3.74847228312823E+01
DEBUG_STATS_RL:          Salt (THERMODYNAMICS) mean=  1.88647847652737E+01
DEBUG_STATS_RL:          Salt (THERMODYNAMICS) S.D.=  1.73003377141326E+01
DEBUG_STATS_RL:         GtNm1 (THERMODYNAMICS)  min= -2.70498449724531E-06
DEBUG_STATS_RL:         GtNm1 (THERMODYNAMICS)  max=  1.83988084001696E-06
DEBUG_STATS_RL:         GtNm1 (THERMODYNAMICS) mean= -8.30305804590567E-10
DEBUG_STATS_RL:         GtNm1 (THERMODYNAMICS) S.D.=  1.49421389189497E-07
DEBUG_STATS_RL:         GsNm1 (THERMODYNAMICS)  min= -5.50985935039033E-07
DEBUG_STATS_RL:         GsNm1 (THERMODYNAMICS)  max=  3.47552284042085E-07
DEBUG_STATS_RL:         GsNm1 (THERMODYNAMICS) mean= -1.73054525367501E-10
DEBUG_STATS_RL:         GsNm1 (THERMODYNAMICS) S.D.=  1.46473348928470E-08
DEBUG_STATS_RL:                EtaN (DYNAMICS)  min= -2.07782826157881E+00
DEBUG_STATS_RL:                EtaN (DYNAMICS)  max=  1.01435429947368E+00
DEBUG_STATS_RL:                EtaN (DYNAMICS) mean= -2.00630912317928E-01
DEBUG_STATS_RL:                EtaN (DYNAMICS) S.D.=  7.80003151626058E-01
DEBUG_STATS_RL:                Uvel (DYNAMICS)  min= -1.37000852059873E-01
DEBUG_STATS_RL:                Uvel (DYNAMICS)  max=  1.55393822208108E-01
DEBUG_STATS_RL:                Uvel (DYNAMICS) mean=  6.08652351740079E-03
DEBUG_STATS_RL:                Uvel (DYNAMICS) S.D.=  2.33287078555653E-02
DEBUG_STATS_RL:                Vvel (DYNAMICS)  min= -9.82978743781349E-02
DEBUG_STATS_RL:                Vvel (DYNAMICS)  max=  1.49950332654450E-01
DEBUG_STATS_RL:                Vvel (DYNAMICS) mean=  1.11097088086686E-03
DEBUG_STATS_RL:                Vvel (DYNAMICS) S.D.=  1.40849745625352E-02
DEBUG_STATS_RL:                Wvel (DYNAMICS)  min= -7.65145177912419E-05
DEBUG_STATS_RL:                Wvel (DYNAMICS)  max=  2.15578054614993E-04
DEBUG_STATS_RL:                Wvel (DYNAMICS) mean=  1.06067501439778E-08
DEBUG_STATS_RL:                Wvel (DYNAMICS) S.D.=  1.05087550919120E-05
DEBUG_STATS_RL:               Theta (DYNAMICS)  min= -1.93777663521899E+00
DEBUG_STATS_RL:               Theta (DYNAMICS)  max=  3.11593729622226E+01
DEBUG_STATS_RL:               Theta (DYNAMICS) mean=  3.24069712622975E+00
DEBUG_STATS_RL:               Theta (DYNAMICS) S.D.=  5.88850256797014E+00
DEBUG_STATS_RL:                Salt (DYNAMICS)  min=  2.00000000000000E-02
DEBUG_STATS_RL:                Salt (DYNAMICS)  max=  3.74847228312823E+01
DEBUG_STATS_RL:                Salt (DYNAMICS) mean=  1.88647847652737E+01
DEBUG_STATS_RL:                Salt (DYNAMICS) S.D.=  1.73003377141326E+01
DEBUG_STATS_RL:                  Gu (DYNAMICS)  min= -1.36119906689641E-01
DEBUG_STATS_RL:                  Gu (DYNAMICS)  max=  1.56727720581998E-01
DEBUG_STATS_RL:                  Gu (DYNAMICS) mean=  6.04659203095772E-03
DEBUG_STATS_RL:                  Gu (DYNAMICS) S.D.=  2.36196378319028E-02
DEBUG_STATS_RL:                  Gv (DYNAMICS)  min= -1.01141286770633E-01
DEBUG_STATS_RL:                  Gv (DYNAMICS)  max=  1.50093461229085E-01
DEBUG_STATS_RL:                  Gv (DYNAMICS) mean=  3.57972736823188E-03
DEBUG_STATS_RL:                  Gv (DYNAMICS) S.D.=  1.55801917098922E-02
DEBUG_STATS_RL:               GuNm1 (DYNAMICS)  min= -1.05089121452606E-05
DEBUG_STATS_RL:               GuNm1 (DYNAMICS)  max=  9.29663809913193E-06
DEBUG_STATS_RL:               GuNm1 (DYNAMICS) mean=  1.37213715346300E-08
DEBUG_STATS_RL:               GuNm1 (DYNAMICS) S.D.=  1.23132646663922E-06
DEBUG_STATS_RL:               GvNm1 (DYNAMICS)  min= -9.35545020766275E-06
DEBUG_STATS_RL:               GvNm1 (DYNAMICS)  max=  1.53286356736312E-05
DEBUG_STATS_RL:               GvNm1 (DYNAMICS) mean=  7.37909285696934E-07
DEBUG_STATS_RL:               GvNm1 (DYNAMICS) S.D.=  2.61358186733606E-06
DEBUG_STATS_RL:               GtNm1 (DYNAMICS)  min= -2.70498449724531E-06
DEBUG_STATS_RL:               GtNm1 (DYNAMICS)  max=  1.83988084001696E-06
DEBUG_STATS_RL:               GtNm1 (DYNAMICS) mean= -8.30305804590567E-10
DEBUG_STATS_RL:               GtNm1 (DYNAMICS) S.D.=  1.49421389189497E-07
DEBUG_STATS_RL:               GsNm1 (DYNAMICS)  min= -5.50985935039033E-07
DEBUG_STATS_RL:               GsNm1 (DYNAMICS)  max=  3.47552284042085E-07
DEBUG_STATS_RL:               GsNm1 (DYNAMICS) mean= -1.73054525367501E-10
DEBUG_STATS_RL:               GsNm1 (DYNAMICS) S.D.=  1.46473348928470E-08
DEBUG_STATS_RL:    cg2d_b (SOLVE_FOR_PRESSURE)  min= -3.06081529876283E+04
DEBUG_STATS_RL:    cg2d_b (SOLVE_FOR_PRESSURE)  max=  3.16380297948319E+04
DEBUG_STATS_RL:    cg2d_b (SOLVE_FOR_PRESSURE) mean=  5.47189044028210E+00
DEBUG_STATS_RL:    cg2d_b (SOLVE_FOR_PRESSURE) S.D.=  4.07514485199813E+03
 cg2d: Sum(rhs),rhsMax =   4.00386068645874E-01  2.07807050539900E+00
(PID.TID 0000.0001)  cg2d: iter=     1 ; resid.=  1.23740242835050E-01
(PID.TID 0000.0001)  cg2d: iter=     2 ; resid.=  1.19533618452094E-01
(PID.TID 0000.0001)  cg2d: iter=     3 ; resid.=  1.24157906893271E-01
(PID.TID 0000.0001)  cg2d: iter=     4 ; resid.=  1.12574039646036E-01
(PID.TID 0000.0001)  cg2d: iter=     5 ; resid.=  1.02201828660738E-01
(PID.TID 0000.0001)  cg2d: iter=     6 ; resid.=  9.01999540010179E-02
(PID.TID 0000.0001)  cg2d: iter=     7 ; resid.=  7.14179447430873E-02
(PID.TID 0000.0001)  cg2d: iter=     8 ; resid.=  5.09689354212773E-02
(PID.TID 0000.0001)  cg2d: iter=     9 ; resid.=  3.59153887250604E-02
(PID.TID 0000.0001)  cg2d: iter=    10 ; resid.=  2.88386362642273E-02
(PID.TID 0000.0001)  cg2d: iter=    11 ; resid.=  2.39004197975983E-02
(PID.TID 0000.0001)  cg2d: iter=    12 ; resid.=  2.07137825215034E-02
(PID.TID 0000.0001)  cg2d: iter=    13 ; resid.=  1.79398088113986E-02
(PID.TID 0000.0001)  cg2d: iter=    14 ; resid.=  1.50987840213857E-02
(PID.TID 0000.0001)  cg2d: iter=    15 ; resid.=  1.25306788088988E-02
(PID.TID 0000.0001)  cg2d: iter=    16 ; resid.=  1.11915596552172E-02
(PID.TID 0000.0001)  cg2d: iter=    17 ; resid.=  9.93687921818863E-03
(PID.TID 0000.0001)  cg2d: iter=    18 ; resid.=  8.06594639450742E-03
(PID.TID 0000.0001)  cg2d: iter=    19 ; resid.=  6.13443462579686E-03
(PID.TID 0000.0001)  cg2d: iter=    20 ; resid.=  5.31690049060610E-03
(PID.TID 0000.0001)  cg2d: iter=    21 ; resid.=  4.35532468111945E-03
(PID.TID 0000.0001)  cg2d: iter=    22 ; resid.=  4.04558614444248E-03
(PID.TID 0000.0001)  cg2d: iter=    23 ; resid.=  3.34299173654906E-03
(PID.TID 0000.0001)  cg2d: iter=    24 ; resid.=  2.80322765498922E-03
(PID.TID 0000.0001)  cg2d: iter=    25 ; resid.=  2.09406351978735E-03
(PID.TID 0000.0001)  cg2d: iter=    26 ; resid.=  1.54991948558267E-03
(PID.TID 0000.0001)  cg2d: iter=    27 ; resid.=  1.24337966780862E-03
(PID.TID 0000.0001)  cg2d: iter=    28 ; resid.=  1.01863716374471E-03
(PID.TID 0000.0001)  cg2d: iter=    29 ; resid.=  8.48361880357988E-04
(PID.TID 0000.0001)  cg2d: iter=    30 ; resid.=  7.11535294074367E-04
(PID.TID 0000.0001)  cg2d: iter=    31 ; resid.=  5.80885309615159E-04
(PID.TID 0000.0001)  cg2d: iter=    32 ; resid.=  4.35302548051211E-04
(PID.TID 0000.0001)  cg2d: iter=    33 ; resid.=  3.27550198259592E-04
(PID.TID 0000.0001)  cg2d: iter=    34 ; resid.=  2.94162356850092E-04
(PID.TID 0000.0001)  cg2d: iter=    35 ; resid.=  2.57595276401978E-04
(PID.TID 0000.0001)  cg2d: iter=    36 ; resid.=  2.09918093519509E-04
(PID.TID 0000.0001)  cg2d: iter=    37 ; resid.=  1.84825873759968E-04
(PID.TID 0000.0001)  cg2d: iter=    38 ; resid.=  1.51274934228581E-04
(PID.TID 0000.0001)  cg2d: iter=    39 ; resid.=  1.30189180890197E-04
(PID.TID 0000.0001)  cg2d: iter=    40 ; resid.=  1.05109909817197E-04
(PID.TID 0000.0001)  cg2d: iter=    41 ; resid.=  8.08815329437455E-05
(PID.TID 0000.0001)  cg2d: iter=    42 ; resid.=  6.40117779955617E-05
(PID.TID 0000.0001)  cg2d: iter=    43 ; resid.=  5.36986191920879E-05
(PID.TID 0000.0001)  cg2d: iter=    44 ; resid.=  4.32810864954416E-05
(PID.TID 0000.0001)  cg2d: iter=    45 ; resid.=  3.69308387066763E-05
(PID.TID 0000.0001)  cg2d: iter=    46 ; resid.=  2.86922033459524E-05
(PID.TID 0000.0001)  cg2d: iter=    47 ; resid.=  2.20549804430797E-05
(PID.TID 0000.0001)  cg2d: iter=    48 ; resid.=  1.86047885530999E-05
(PID.TID 0000.0001)  cg2d: iter=    49 ; resid.=  1.62040648598821E-05
(PID.TID 0000.0001)  cg2d: iter=    50 ; resid.=  1.32483022603195E-05
(PID.TID 0000.0001)  cg2d: iter=    51 ; resid.=  1.13018652183230E-05
(PID.TID 0000.0001)  cg2d: iter=    52 ; resid.=  9.97417057298734E-06
(PID.TID 0000.0001)  cg2d: iter=    53 ; resid.=  8.96645503645838E-06
(PID.TID 0000.0001)  cg2d: iter=    54 ; resid.=  6.92260441250522E-06
(PID.TID 0000.0001)  cg2d: iter=    55 ; resid.=  5.87866021196824E-06
(PID.TID 0000.0001)  cg2d: iter=    56 ; resid.=  5.13025303870608E-06
(PID.TID 0000.0001)  cg2d: iter=    57 ; resid.=  4.37944750876304E-06
(PID.TID 0000.0001)  cg2d: iter=    58 ; resid.=  3.47460016060348E-06
(PID.TID 0000.0001)  cg2d: iter=    59 ; resid.=  2.63820690247177E-06
(PID.TID 0000.0001)  cg2d: iter=    60 ; resid.=  2.32728919447039E-06
(PID.TID 0000.0001)  cg2d: iter=    61 ; resid.=  1.98758336298703E-06
(PID.TID 0000.0001)  cg2d: iter=    62 ; resid.=  1.68606440882460E-06
(PID.TID 0000.0001)  cg2d: iter=    63 ; resid.=  1.38312742659148E-06
(PID.TID 0000.0001)  cg2d: iter=    64 ; resid.=  1.10691118985587E-06
(PID.TID 0000.0001)  cg2d: iter=    65 ; resid.=  9.29605050448097E-07
(PID.TID 0000.0001)  cg2d: iter=    66 ; resid.=  7.45446413244685E-07
(PID.TID 0000.0001)  cg2d: iter=    67 ; resid.=  6.00277788760843E-07
(PID.TID 0000.0001)  cg2d: iter=    68 ; resid.=  5.48873801177378E-07
(PID.TID 0000.0001)  cg2d: iter=    69 ; resid.=  4.62483500680984E-07
(PID.TID 0000.0001)  cg2d: iter=    70 ; resid.=  3.83540218035223E-07
(PID.TID 0000.0001)  cg2d: iter=    71 ; resid.=  3.17141659289003E-07
(PID.TID 0000.0001)  cg2d: iter=    72 ; resid.=  2.95027570858059E-07
(PID.TID 0000.0001)  cg2d: iter=    73 ; resid.=  2.55496776443800E-07
(PID.TID 0000.0001)  cg2d: iter=    74 ; resid.=  2.30877524235121E-07
(PID.TID 0000.0001)  cg2d: iter=    75 ; resid.=  2.11813472268180E-07
(PID.TID 0000.0001)  cg2d: iter=    76 ; resid.=  1.74557964714688E-07
(PID.TID 0000.0001)  cg2d: iter=    77 ; resid.=  1.41323320822518E-07
(PID.TID 0000.0001)  cg2d: iter=    78 ; resid.=  1.21283353062399E-07
(PID.TID 0000.0001)  cg2d: iter=    79 ; resid.=  9.42432360219299E-08
(PID.TID 0000.0001)  cg2d: iter=    80 ; resid.=  7.06776607152004E-08
(PID.TID 0000.0001)  cg2d: iter=    81 ; resid.=  5.23436949344864E-08
(PID.TID 0000.0001)  cg2d: iter=    82 ; resid.=  3.77804175768030E-08
(PID.TID 0000.0001)  cg2d: iter=    83 ; resid.=  2.96689758842062E-08
(PID.TID 0000.0001)  cg2d: iter=    84 ; resid.=  2.29596675565452E-08
(PID.TID 0000.0001)  cg2d: iter=    85 ; resid.=  1.68888872147329E-08
(PID.TID 0000.0001)  cg2d: iter=    86 ; resid.=  1.29124282109212E-08
(PID.TID 0000.0001)  cg2d: iter=    87 ; resid.=  1.10248759967843E-08
(PID.TID 0000.0001)  cg2d: iter=    88 ; resid.=  9.21521646084770E-09
(PID.TID 0000.0001)  cg2d: iter=    89 ; resid.=  7.70899130571045E-09
(PID.TID 0000.0001)  cg2d: iter=    90 ; resid.=  6.45536580294502E-09
(PID.TID 0000.0001)  cg2d: iter=    91 ; resid.=  5.01842840396683E-09
(PID.TID 0000.0001)  cg2d: iter=    92 ; resid.=  4.05929642392654E-09
(PID.TID 0000.0001)  cg2d: iter=    93 ; resid.=  3.03203556136431E-09
(PID.TID 0000.0001)  cg2d: iter=    94 ; resid.=  2.32916806954455E-09
(PID.TID 0000.0001)  cg2d: iter=    95 ; resid.=  1.95813639656195E-09
(PID.TID 0000.0001)  cg2d: iter=    96 ; resid.=  1.47885372979729E-09
(PID.TID 0000.0001)  cg2d: iter=    97 ; resid.=  1.17473897341429E-09
(PID.TID 0000.0001)  cg2d: iter=    98 ; resid.=  9.98050282198621E-10
(PID.TID 0000.0001)  cg2d: iter=    99 ; resid.=  9.24484903417990E-10
(PID.TID 0000.0001)  cg2d: iter=   100 ; resid.=  8.28610063798599E-10
(PID.TID 0000.0001)  cg2d: iter=   101 ; resid.=  6.80050763697966E-10
(PID.TID 0000.0001)  cg2d: iter=   102 ; resid.=  5.20855017966898E-10
(PID.TID 0000.0001)  cg2d: iter=   103 ; resid.=  3.91134653896945E-10
(PID.TID 0000.0001)  cg2d: iter=   104 ; resid.=  3.22037113303800E-10
(PID.TID 0000.0001)  cg2d: iter=   105 ; resid.=  2.47127230735164E-10
(PID.TID 0000.0001)  cg2d: iter=   106 ; resid.=  1.79259406868307E-10
(PID.TID 0000.0001)  cg2d: iter=   107 ; resid.=  1.25517999302035E-10
(PID.TID 0000.0001)  cg2d: iter=   108 ; resid.=  9.24446455240303E-11
(PID.TID 0000.0001)  cg2d: iter=   109 ; resid.=  6.75631516409647E-11
(PID.TID 0000.0001)  cg2d: iter=   110 ; resid.=  5.36006141354366E-11
(PID.TID 0000.0001)  cg2d: iter=   111 ; resid.=  4.26835697498670E-11
(PID.TID 0000.0001)  cg2d: iter=   112 ; resid.=  3.12850426492700E-11
(PID.TID 0000.0001)  cg2d: iter=   113 ; resid.=  2.16213687561487E-11
(PID.TID 0000.0001)  cg2d: iter=   114 ; resid.=  1.70406748240914E-11
(PID.TID 0000.0001)  cg2d: iter=   115 ; resid.=  1.31010590439317E-11
(PID.TID 0000.0001)  cg2d: iter=   116 ; resid.=  1.02129955999169E-11
(PID.TID 0000.0001)  cg2d: iter=   117 ; resid.=  8.11695757939905E-12
(PID.TID 0000.0001)  cg2d: iter=   118 ; resid.=  6.27444668632660E-12
(PID.TID 0000.0001)  cg2d: iter=   119 ; resid.=  4.82305029650526E-12
(PID.TID 0000.0001)  cg2d: iter=   120 ; resid.=  3.82443999859568E-12
(PID.TID 0000.0001)  cg2d: iter=   121 ; resid.=  2.82624076316537E-12
(PID.TID 0000.0001)  cg2d: iter=   122 ; resid.=  2.08406393198042E-12
(PID.TID 0000.0001)  cg2d: iter=   123 ; resid.=  1.61197501291924E-12
(PID.TID 0000.0001)  cg2d: iter=   124 ; resid.=  1.25201369984148E-12
(PID.TID 0000.0001)  cg2d: iter=   125 ; resid.=  9.27780871853716E-13
(PID.TID 0000.0001)  cg2d: iter=   126 ; resid.=  6.60837774638443E-13
(PID.TID 0000.0001)  cg2d: iter=   127 ; resid.=  4.29483331977241E-13
(PID.TID 0000.0001)  cg2d: iter=   128 ; resid.=  3.09657549918467E-13
(PID.TID 0000.0001)  cg2d: iter=   129 ; resid.=  1.97431102079334E-13
(PID.TID 0000.0001)  cg2d: iter=   130 ; resid.=  1.33983315540422E-13
(PID.TID 0000.0001)  cg2d: iter=   131 ; resid.=  9.06178923187352E-14
DEBUG_STATS_RL:    cg2d_x (SOLVE_FOR_PRESSURE)  min= -2.02480213620853E+01
DEBUG_STATS_RL:    cg2d_x (SOLVE_FOR_PRESSURE)  max=  9.60334725292965E+00
DEBUG_STATS_RL:    cg2d_x (SOLVE_FOR_PRESSURE) mean= -1.94283078319755E+00
DEBUG_STATS_RL:    cg2d_x (SOLVE_FOR_PRESSURE) S.D.=  7.48340820666159E+00
(PID.TID 0000.0001)      cg2d_init_res =   2.32599930199056E-01
(PID.TID 0000.0001)      cg2d_iters(min,last) =      -1     131
(PID.TID 0000.0001)      cg2d_last_res =   9.06178923187352E-14
(PID.TID 0000.0001) // =======================================================
(PID.TID 0000.0001) // Begin MONITOR dynamic field statistics
(PID.TID 0000.0001) // =======================================================
(PID.TID 0000.0001) %MON time_tsnumber                =                    87
(PID.TID 0000.0001) %MON time_secondsf                =   7.5168000000000E+06
(PID.TID 0000.0001) %MON dynstat_eta_max              =   9.7893448042092E-01
(PID.TID 0000.0001) %MON dynstat_eta_min              =  -2.0640184874706E+00
(PID.TID 0000.0001) %MON dynstat_eta_mean             =  -5.7092391824192E-03
(PID.TID 0000.0001) %MON dynstat_eta_sd               =   6.6214719782280E-01
(PID.TID 0000.0001) %MON dynstat_eta_del2             =   2.5897629667862E-03
(PID.TID 0000.0001) %MON dynstat_uvel_max             =   1.5187433540437E-01
(PID.TID 0000.0001) %MON dynstat_uvel_min             =  -1.3818699868201E-01
(PID.TID 0000.0001) %MON dynstat_uvel_mean            =   2.2801969418601E-03
(PID.TID 0000.0001) %MON dynstat_uvel_sd              =   1.6159468179240E-02
(PID.TID 0000.0001) %MON dynstat_uvel_del2            =   1.1834834862466E-04
(PID.TID 0000.0001) %MON dynstat_vvel_max             =   1.5025691710667E-01
(PID.TID 0000.0001) %MON dynstat_vvel_min             =  -9.6565201801375E-02
(PID.TID 0000.0001) %MON dynstat_vvel_mean            =   7.5942053205834E-05
(PID.TID 0000.0001) %MON dynstat_vvel_sd              =   8.9780624213737E-03
(PID.TID 0000.0001) %MON dynstat_vvel_del2            =   8.2883800992362E-05
(PID.TID 0000.0001) %MON dynstat_wvel_max             =   2.0418765794186E-04
(PID.TID 0000.0001) %MON dynstat_wvel_min             =  -6.9938926830199E-05
(PID.TID 0000.0001) %MON dynstat_wvel_mean            =   7.3168783997645E-23
(PID.TID 0000.0001) %MON dynstat_wvel_sd              =   1.1808436058289E-05
(PID.TID 0000.0001) %MON dynstat_wvel_del2            =   1.1483164422420E-07
(PID.TID 0000.0001) %MON dynstat_theta_max            =   3.1159372962223E+01
(PID.TID 0000.0001) %MON dynstat_theta_min            =  -1.9377766352190E+00
(PID.TID 0000.0001) %MON dynstat_theta_mean           =   3.6441353981588E+00
(PID.TID 0000.0001) %MON dynstat_theta_sd             =   4.4284398779754E+00
(PID.TID 0000.0001) %MON dynstat_theta_del2           =   4.8488546178021E-03
(PID.TID 0000.0001) %MON dynstat_salt_max             =   3.7484722831282E+01
(PID.TID 0000.0001) %MON dynstat_salt_min             =   2.9947919346433E+01
(PID.TID 0000.0001) %MON dynstat_salt_mean            =   3.4738009998938E+01
(PID.TID 0000.0001) %MON dynstat_salt_sd              =   2.9663905103869E-01
(PID.TID 0000.0001) %MON dynstat_salt_del2            =   9.9699130765587E-04
(PID.TID 0000.0001) %MON dynstat_sst_max              =   3.1159372962223E+01
(PID.TID 0000.0001) %MON dynstat_sst_min              =  -1.9377766352190E+00
(PID.TID 0000.0001) %MON dynstat_sst_mean             =   1.9075648435543E+01
(PID.TID 0000.0001) %MON dynstat_sst_sd               =   9.2343223683878E+00
(PID.TID 0000.0001) %MON dynstat_sst_del2             =   2.9222551814496E-02
(PID.TID 0000.0001) %MON dynstat_sss_max              =   3.7484722831282E+01
(PID.TID 0000.0001) %MON dynstat_sss_min              =   2.9947919346433E+01
(PID.TID 0000.0001) %MON dynstat_sss_mean             =   3.4858020049325E+01
(PID.TID 0000.0001) %MON dynstat_sss_sd               =   9.8979773763754E-01
(PID.TID 0000.0001) %MON dynstat_sss_del2             =   8.2692551530224E-03
(PID.TID 0000.0001) %MON forcing_qnet_max             =   2.2275010782878E+02
(PID.TID 0000.0001) %MON forcing_qnet_min             =  -1.5914763132731E+02
(PID.TID 0000.0001) %MON forcing_qnet_mean            =  -2.8976652714786E+00
(PID.TID 0000.0001) %MON forcing_qnet_sd              =   3.9684988242510E+01
(PID.TID 0000.0001) %MON forcing_qnet_del2            =   7.9160338493799E-01
(PID.TID 0000.0001) %MON forcing_qsw_max              =   0.0000000000000E+00
(PID.TID 0000.0001) %MON forcing_qsw_min              =   0.0000000000000E+00
(PID.TID 0000.0001) %MON forcing_qsw_mean             =   0.0000000000000E+00
(PID.TID 0000.0001) %MON forcing_qsw_sd               =   0.0000000000000E+00
(PID.TID 0000.0001) %MON forcing_qsw_del2             =   0.0000000000000E+00
(PID.TID 0000.0001) %MON forcing_empmr_max            =   6.8050940645511E-05
(PID.TID 0000.0001) %MON forcing_empmr_min            =  -8.3427724462126E-05
(PID.TID 0000.0001) %MON forcing_empmr_mean           =   3.0381204057547E-07
(PID.TID 0000.0001) %MON forcing_empmr_sd             =   2.5679722852412E-05
(PID.TID 0000.0001) %MON forcing_empmr_del2           =   3.6300151295043E-07
(PID.TID 0000.0001) %MON forcing_fu_max               =   3.4985787868500E-01
(PID.TID 0000.0001) %MON forcing_fu_min               =  -3.9882021248341E-01
(PID.TID 0000.0001) %MON forcing_fu_mean              =   1.9057616234127E-02
(PID.TID 0000.0001) %MON forcing_fu_sd                =   1.0030231704399E-01
(PID.TID 0000.0001) %MON forcing_fu_del2              =   7.8085114246442E-04
(PID.TID 0000.0001) %MON forcing_fv_max               =   1.8224433263143E-01
(PID.TID 0000.0001) %MON forcing_fv_min               =  -1.5584678848584E-01
(PID.TID 0000.0001) %MON forcing_fv_mean              =  -7.1283320439412E-03
(PID.TID 0000.0001) %MON forcing_fv_sd                =   3.9251431709163E-02
(PID.TID 0000.0001) %MON forcing_fv_del2              =   4.2751975732847E-04
(PID.TID 0000.0001) %MON trAdv_CFL_u_max              =   4.4511128953517E-02
(PID.TID 0000.0001) %MON trAdv_CFL_v_max              =   2.9085599188247E-02
(PID.TID 0000.0001) %MON trAdv_CFL_w_max              =   4.7758830560860E-02
(PID.TID 0000.0001) %MON advcfl_uvel_max              =   4.6002761063726E-02
(PID.TID 0000.0001) %MON advcfl_vvel_max              =   2.9192509162600E-02
(PID.TID 0000.0001) %MON advcfl_wvel_max              =   4.8333736016923E-02
(PID.TID 0000.0001) %MON advcfl_W_hf_max              =   5.1887687194638E-02
(PID.TID 0000.0001) %MON pe_b_mean                    =   5.6107714341414E-04
(PID.TID 0000.0001) %MON ke_max                       =   1.2350643336329E-02
(PID.TID 0000.0001) %MON ke_mean                      =   1.5718668756070E-04
(PID.TID 0000.0001) %MON ke_vol                       =   1.3226782436723E+18
(PID.TID 0000.0001) %MON vort_r_min                   =  -3.7404083423166E-07
(PID.TID 0000.0001) %MON vort_r_max                   =   4.7517323591763E-07
(PID.TID 0000.0001) %MON vort_a_mean                  =  -2.5274807239345E-05
(PID.TID 0000.0001) %MON vort_a_sd                    =   7.3604608416388E-05
(PID.TID 0000.0001) %MON vort_p_mean                  =  -3.1845655600263E-05
(PID.TID 0000.0001) %MON vort_p_sd                    =   1.3162496857325E-04
(PID.TID 0000.0001) %MON surfExpan_theta_mean         =  -6.0616748102113E-07
(PID.TID 0000.0001) %MON surfExpan_salt_mean          =   1.8497772520223E-07
(PID.TID 0000.0001) // =======================================================
(PID.TID 0000.0001) // End MONITOR dynamic field statistics
(PID.TID 0000.0001) // =======================================================
 EXTERNAL_FIELDS_LOAD,        87 : iP,iLd,i0,i1=    3    4    3    4 ; Wght=  0.6000000000  0.4000000000
 EXTERNAL_FIELDS_LOAD: (fu0,1),fu,fv= -2.7199E-02 -3.7252E-02 -3.1220E-02 -1.4433E-02
 EXTERNAL_FIELDS_LOAD: SST,SSS,Q,E-P= -9.6208E-02  3.4575E+01  1.7088E+02  8.5561E-06
DEBUG_STATS_RL:          Uvel (THERMODYNAMICS)  min= -1.38186998682012E-01
DEBUG_STATS_RL:          Uvel (THERMODYNAMICS)  max=  1.51874335404372E-01
DEBUG_STATS_RL:          Uvel (THERMODYNAMICS) mean=  6.00915570110742E-03
DEBUG_STATS_RL:          Uvel (THERMODYNAMICS) S.D.=  2.32710411070019E-02
DEBUG_STATS_RL:          Vvel (THERMODYNAMICS)  min= -9.65652018013752E-02
DEBUG_STATS_RL:          Vvel (THERMODYNAMICS)  max=  1.50256917106674E-01
DEBUG_STATS_RL:          Vvel (THERMODYNAMICS) mean=  1.09532881821111E-03
DEBUG_STATS_RL:          Vvel (THERMODYNAMICS) S.D.=  1.40240028152347E-02
DEBUG_STATS_RL:          Wvel (THERMODYNAMICS)  min= -6.99389268301991E-05
DEBUG_STATS_RL:          Wvel (THERMODYNAMICS)  max=  2.04187657941861E-04
DEBUG_STATS_RL:          Wvel (THERMODYNAMICS) mean=  5.63809464004323E-09
DEBUG_STATS_RL:          Wvel (THERMODYNAMICS) S.D.=  1.03742721549082E-05
DEBUG_STATS_RL:         Theta (THERMODYNAMICS)  min= -1.93663244253581E+00
DEBUG_STATS_RL:         Theta (THERMODYNAMICS)  max=  3.11773904484383E+01
DEBUG_STATS_RL:         Theta (THERMODYNAMICS) mean=  3.24060029103769E+00
DEBUG_STATS_RL:         Theta (THERMODYNAMICS) S.D.=  5.88870007947117E+00
DEBUG_STATS_RL:          Salt (THERMODYNAMICS)  min=  2.00000000000000E-02
DEBUG_STATS_RL:          Salt (THERMODYNAMICS)  max=  3.74852089695675E+01
DEBUG_STATS_RL:          Salt (THERMODYNAMICS) mean=  1.88647776046070E+01
DEBUG_STATS_RL:          Salt (THERMODYNAMICS) S.D.=  1.73003318462517E+01
DEBUG_STATS_RL:         GtNm1 (THERMODYNAMICS)  min= -2.35800784484840E-06
DEBUG_STATS_RL:         GtNm1 (THERMODYNAMICS)  max=  1.82475865915968E-06
DEBUG_STATS_RL:         GtNm1 (THERMODYNAMICS) mean= -9.66011946840106E-10
DEBUG_STATS_RL:         GtNm1 (THERMODYNAMICS) S.D.=  1.47148754095315E-07
DEBUG_STATS_RL:         GsNm1 (THERMODYNAMICS)  min= -3.45199265436130E-07
DEBUG_STATS_RL:         GsNm1 (THERMODYNAMICS)  max=  2.93128164262385E-07
DEBUG_STATS_RL:         GsNm1 (THERMODYNAMICS) mean= -1.98505124607252E-10
DEBUG_STATS_RL:         GsNm1 (THERMODYNAMICS) S.D.=  1.41999657187203E-08
DEBUG_STATS_RL:                EtaN (DYNAMICS)  min= -2.06401848747063E+00
DEBUG_STATS_RL:                EtaN (DYNAMICS)  max=  9.78934480420920E-01
DEBUG_STATS_RL:                EtaN (DYNAMICS) mean= -1.98045951396284E-01
DEBUG_STATS_RL:                EtaN (DYNAMICS) S.D.=  7.62834679578147E-01
DEBUG_STATS_RL:                Uvel (DYNAMICS)  min= -1.38186998682012E-01
DEBUG_STATS_RL:                Uvel (DYNAMICS)  max=  1.51874335404372E-01
DEBUG_STATS_RL:                Uvel (DYNAMICS) mean=  6.00915570110742E-03
DEBUG_STATS_RL:                Uvel (DYNAMICS) S.D.=  2.32710411070019E-02
DEBUG_STATS_RL:                Vvel (DYNAMICS)  min= -9.65652018013752E-02
DEBUG_STATS_RL:                Vvel (DYNAMICS)  max=  1.50256917106674E-01
DEBUG_STATS_RL:                Vvel (DYNAMICS) mean=  1.09532881821111E-03
DEBUG_STATS_RL:                Vvel (DYNAMICS) S.D.=  1.40240028152347E-02
DEBUG_STATS_RL:                Wvel (DYNAMICS)  min= -6.99389268301991E-05
DEBUG_STATS_RL:                Wvel (DYNAMICS)  max=  2.04187657941861E-04
DEBUG_STATS_RL:                Wvel (DYNAMICS) mean=  5.63809464004323E-09
DEBUG_STATS_RL:                Wvel (DYNAMICS) S.D.=  1.03742721549082E-05
DEBUG_STATS_RL:               Theta (DYNAMICS)  min= -1.93663244253581E+00
DEBUG_STATS_RL:               Theta (DYNAMICS)  max=  3.11773904484383E+01
DEBUG_STATS_RL:               Theta (DYNAMICS) mean=  3.24060029103769E+00
DEBUG_STATS_RL:               Theta (DYNAMICS) S.D.=  5.88870007947117E+00
DEBUG_STATS_RL:                Salt (DYNAMICS)  min=  2.00000000000000E-02
DEBUG_STATS_RL:                Salt (DYNAMICS)  max=  3.74852089695675E+01
DEBUG_STATS_RL:                Salt (DYNAMICS) mean=  1.88647776046070E+01
DEBUG_STATS_RL:                Salt (DYNAMICS) S.D.=  1.73003318462517E+01
DEBUG_STATS_RL:                  Gu (DYNAMICS)  min= -1.37289073562518E-01
DEBUG_STATS_RL:                  Gu (DYNAMICS)  max=  1.52543009218036E-01
DEBUG_STATS_RL:                  Gu (DYNAMICS) mean=  5.96159284922246E-03
DEBUG_STATS_RL:                  Gu (DYNAMICS) S.D.=  2.35668037435575E-02
DEBUG_STATS_RL:                  Gv (DYNAMICS)  min= -9.69277118627548E-02
DEBUG_STATS_RL:                  Gv (DYNAMICS)  max=  1.50356566673321E-01
DEBUG_STATS_RL:                  Gv (DYNAMICS) mean=  3.55495039487281E-03
DEBUG_STATS_RL:                  Gv (DYNAMICS) S.D.=  1.55230939524314E-02
DEBUG_STATS_RL:               GuNm1 (DYNAMICS)  min= -1.04137918949353E-05
DEBUG_STATS_RL:               GuNm1 (DYNAMICS)  max=  9.47059526539648E-06
DEBUG_STATS_RL:               GuNm1 (DYNAMICS) mean=  1.43638062510216E-08
DEBUG_STATS_RL:               GuNm1 (DYNAMICS) S.D.=  1.23171552420394E-06
DEBUG_STATS_RL:               GvNm1 (DYNAMICS)  min= -9.32959440095471E-06
DEBUG_STATS_RL:               GvNm1 (DYNAMICS)  max=  1.52876201928072E-05
DEBUG_STATS_RL:               GvNm1 (DYNAMICS) mean=  7.38282893742600E-07
DEBUG_STATS_RL:               GvNm1 (DYNAMICS) S.D.=  2.61272215499485E-06
DEBUG_STATS_RL:               GtNm1 (DYNAMICS)  min= -2.35800784484840E-06
DEBUG_STATS_RL:               GtNm1 (DYNAMICS)  max=  1.82475865915968E-06
DEBUG_STATS_RL:               GtNm1 (DYNAMICS) mean= -9.66011946840106E-10
DEBUG_STATS_RL:               GtNm1 (DYNAMICS) S.D.=  1.47148754095315E-07
DEBUG_STATS_RL:               GsNm1 (DYNAMICS)  min= -3.45199265436130E-07
DEBUG_STATS_RL:               GsNm1 (DYNAMICS)  max=  2.93128164262385E-07
DEBUG_STATS_RL:               GsNm1 (DYNAMICS) mean= -1.98505124607252E-10
DEBUG_STATS_RL:               GsNm1 (DYNAMICS) S.D.=  1.41999657187203E-08
DEBUG_STATS_RL:    cg2d_b (SOLVE_FOR_PRESSURE)  min= -3.08603262556949E+04
DEBUG_STATS_RL:    cg2d_b (SOLVE_FOR_PRESSURE)  max=  3.19135236316529E+04
DEBUG_STATS_RL:    cg2d_b (SOLVE_FOR_PRESSURE) mean=  5.49440198038436E+00
DEBUG_STATS_RL:    cg2d_b (SOLVE_FOR_PRESSURE) S.D.=  4.07611256279851E+03
 cg2d: Sum(rhs),rhsMax =   3.98562713769814E-01  2.09616567821569E+00
(PID.TID 0000.0001)  cg2d: iter=     1 ; resid.=  1.21001981979624E-01
(PID.TID 0000.0001)  cg2d: iter=     2 ; resid.=  1.17757213209808E-01
(PID.TID 0000.0001)  cg2d: iter=     3 ; resid.=  1.21898577613531E-01
(PID.TID 0000.0001)  cg2d: iter=     4 ; resid.=  1.09787946817015E-01
(PID.TID 0000.0001)  cg2d: iter=     5 ; resid.=  1.01310533733257E-01
(PID.TID 0000.0001)  cg2d: iter=     6 ; resid.=  9.00194900710907E-02
(PID.TID 0000.0001)  cg2d: iter=     7 ; resid.=  6.94459088163718E-02
(PID.TID 0000.0001)  cg2d: iter=     8 ; resid.=  4.92022663766591E-02
(PID.TID 0000.0001)  cg2d: iter=     9 ; resid.=  3.48641066596276E-02
(PID.TID 0000.0001)  cg2d: iter=    10 ; resid.=  2.77711410700950E-02
(PID.TID 0000.0001)  cg2d: iter=    11 ; resid.=  2.32997364509346E-02
(PID.TID 0000.0001)  cg2d: iter=    12 ; resid.=  2.01612798087647E-02
(PID.TID 0000.0001)  cg2d: iter=    13 ; resid.=  1.76347365482746E-02
(PID.TID 0000.0001)  cg2d: iter=    14 ; resid.=  1.49433645869326E-02
(PID.TID 0000.0001)  cg2d: iter=    15 ; resid.=  1.23374228996112E-02
(PID.TID 0000.0001)  cg2d: iter=    16 ; resid.=  1.11602036320974E-02
(PID.TID 0000.0001)  cg2d: iter=    17 ; resid.=  9.86798785444328E-03
(PID.TID 0000.0001)  cg2d: iter=    18 ; resid.=  7.92431966887497E-03
(PID.TID 0000.0001)  cg2d: iter=    19 ; resid.=  6.08178928827037E-03
(PID.TID 0000.0001)  cg2d: iter=    20 ; resid.=  5.14153539073238E-03
(PID.TID 0000.0001)  cg2d: iter=    21 ; resid.=  4.19132142078665E-03
(PID.TID 0000.0001)  cg2d: iter=    22 ; resid.=  3.90494270254046E-03
(PID.TID 0000.0001)  cg2d: iter=    23 ; resid.=  3.22380551770933E-03
(PID.TID 0000.0001)  cg2d: iter=    24 ; resid.=  2.77633082830082E-03
(PID.TID 0000.0001)  cg2d: iter=    25 ; resid.=  2.07710261768766E-03
(PID.TID 0000.0001)  cg2d: iter=    26 ; resid.=  1.53030041708631E-03
(PID.TID 0000.0001)  cg2d: iter=    27 ; resid.=  1.21745149934768E-03
(PID.TID 0000.0001)  cg2d: iter=    28 ; resid.=  9.82415229369324E-04
(PID.TID 0000.0001)  cg2d: iter=    29 ; resid.=  8.09999659041713E-04
(PID.TID 0000.0001)  cg2d: iter=    30 ; resid.=  6.88326892106507E-04
(PID.TID 0000.0001)  cg2d: iter=    31 ; resid.=  5.74423461169888E-04
(PID.TID 0000.0001)  cg2d: iter=    32 ; resid.=  4.31188883087434E-04
(PID.TID 0000.0001)  cg2d: iter=    33 ; resid.=  3.26514121673616E-04
(PID.TID 0000.0001)  cg2d: iter=    34 ; resid.=  2.97893949040547E-04
(PID.TID 0000.0001)  cg2d: iter=    35 ; resid.=  2.56516900153276E-04
(PID.TID 0000.0001)  cg2d: iter=    36 ; resid.=  2.06605625862211E-04
(PID.TID 0000.0001)  cg2d: iter=    37 ; resid.=  1.82764961411457E-04
(PID.TID 0000.0001)  cg2d: iter=    38 ; resid.=  1.50025815252688E-04
(PID.TID 0000.0001)  cg2d: iter=    39 ; resid.=  1.29362112341711E-04
(PID.TID 0000.0001)  cg2d: iter=    40 ; resid.=  1.06048828975683E-04
(PID.TID 0000.0001)  cg2d: iter=    41 ; resid.=  8.36291726837786E-05
(PID.TID 0000.0001)  cg2d: iter=    42 ; resid.=  6.72061379720845E-05
(PID.TID 0000.0001)  cg2d: iter=    43 ; resid.=  5.61502915268117E-05
(PID.TID 0000.0001)  cg2d: iter=    44 ; resid.=  4.48568846534287E-05
(PID.TID 0000.0001)  cg2d: iter=    45 ; resid.=  3.83150399983362E-05
(PID.TID 0000.0001)  cg2d: iter=    46 ; resid.=  2.99689703763630E-05
(PID.TID 0000.0001)  cg2d: iter=    47 ; resid.=  2.35873767028765E-05
(PID.TID 0000.0001)  cg2d: iter=    48 ; resid.=  2.08096905001709E-05
(PID.TID 0000.0001)  cg2d: iter=    49 ; resid.=  1.87770645177632E-05
(PID.TID 0000.0001)  cg2d: iter=    50 ; resid.=  1.55192908868934E-05
(PID.TID 0000.0001)  cg2d: iter=    51 ; resid.=  1.35280643691275E-05
(PID.TID 0000.0001)  cg2d: iter=    52 ; resid.=  1.19060944558575E-05
(PID.TID 0000.0001)  cg2d: iter=    53 ; resid.=  1.03380460294126E-05
(PID.TID 0000.0001)  cg2d: iter=    54 ; resid.=  7.76791306751927E-06
(PID.TID 0000.0001)  cg2d: iter=    55 ; resid.=  6.53731721270567E-06
(PID.TID 0000.0001)  cg2d: iter=    56 ; resid.=  5.93740255708921E-06
(PID.TID 0000.0001)  cg2d: iter=    57 ; resid.=  5.18122113797706E-06
(PID.TID 0000.0001)  cg2d: iter=    58 ; resid.=  4.15968446796841E-06
(PID.TID 0000.0001)  cg2d: iter=    59 ; resid.=  3.26078567467064E-06
(PID.TID 0000.0001)  cg2d: iter=    60 ; resid.=  2.84358348058899E-06
(PID.TID 0000.0001)  cg2d: iter=    61 ; resid.=  2.37689987119751E-06
(PID.TID 0000.0001)  cg2d: iter=    62 ; resid.=  1.99308363788536E-06
(PID.TID 0000.0001)  cg2d: iter=    63 ; resid.=  1.64252645263911E-06
(PID.TID 0000.0001)  cg2d: iter=    64 ; resid.=  1.32231207921901E-06
(PID.TID 0000.0001)  cg2d: iter=    65 ; resid.=  1.10803193700637E-06
(PID.TID 0000.0001)  cg2d: iter=    66 ; resid.=  9.09332162864810E-07
(PID.TID 0000.0001)  cg2d: iter=    67 ; resid.=  7.46749517881295E-07
(PID.TID 0000.0001)  cg2d: iter=    68 ; resid.=  6.74758446482687E-07
(PID.TID 0000.0001)  cg2d: iter=    69 ; resid.=  5.62200735981498E-07
(PID.TID 0000.0001)  cg2d: iter=    70 ; resid.=  4.59825634880278E-07
(PID.TID 0000.0001)  cg2d: iter=    71 ; resid.=  3.81279588351088E-07
(PID.TID 0000.0001)  cg2d: iter=    72 ; resid.=  3.50898665171830E-07
(PID.TID 0000.0001)  cg2d: iter=    73 ; resid.=  3.01063977294976E-07
(PID.TID 0000.0001)  cg2d: iter=    74 ; resid.=  2.71050773555848E-07
(PID.TID 0000.0001)  cg2d: iter=    75 ; resid.=  2.39896226252140E-07
(PID.TID 0000.0001)  cg2d: iter=    76 ; resid.=  1.88261110493646E-07
(PID.TID 0000.0001)  cg2d: iter=    77 ; resid.=  1.48000533940595E-07
(PID.TID 0000.0001)  cg2d: iter=    78 ; resid.=  1.22883823921366E-07
(PID.TID 0000.0001)  cg2d: iter=    79 ; resid.=  9.39847634551034E-08
(PID.TID 0000.0001)  cg2d: iter=    80 ; resid.=  7.06852283567727E-08
(PID.TID 0000.0001)  cg2d: iter=    81 ; resid.=  5.28600430025539E-08
(PID.TID 0000.0001)  cg2d: iter=    82 ; resid.=  3.76412044705617E-08
(PID.TID 0000.0001)  cg2d: iter=    83 ; resid.=  2.92540772901285E-08
(PID.TID 0000.0001)  cg2d: iter=    84 ; resid.=  2.24179580188109E-08
(PID.TID 0000.0001)  cg2d: iter=    85 ; resid.=  1.64580663515960E-08
(PID.TID 0000.0001)  cg2d: iter=    86 ; resid.=  1.26407727846368E-08
(PID.TID 0000.0001)  cg2d: iter=    87 ; resid.=  1.08291538146705E-08
(PID.TID 0000.0001)  cg2d: iter=    88 ; resid.=  9.13061749350252E-09
(PID.TID 0000.0001)  cg2d: iter=    89 ; resid.=  7.75268104494037E-09
(PID.TID 0000.0001)  cg2d: iter=    90 ; resid.=  6.42482812731705E-09
(PID.TID 0000.0001)  cg2d: iter=    91 ; resid.=  4.90721482080308E-09
(PID.TID 0000.0001)  cg2d: iter=    92 ; resid.=  3.84132502031145E-09
(PID.TID 0000.0001)  cg2d: iter=    93 ; resid.=  2.83449259434360E-09
(PID.TID 0000.0001)  cg2d: iter=    94 ; resid.=  2.19256370161196E-09
(PID.TID 0000.0001)  cg2d: iter=    95 ; resid.=  1.84457980046165E-09
(PID.TID 0000.0001)  cg2d: iter=    96 ; resid.=  1.40217499101430E-09
(PID.TID 0000.0001)  cg2d: iter=    97 ; resid.=  1.11488557692273E-09
(PID.TID 0000.0001)  cg2d: iter=    98 ; resid.=  9.53265805225543E-10
(PID.TID 0000.0001)  cg2d: iter=    99 ; resid.=  8.93956146728327E-10
(PID.TID 0000.0001)  cg2d: iter=   100 ; resid.=  8.10886351277819E-10
(PID.TID 0000.0001)  cg2d: iter=   101 ; resid.=  6.63314386640087E-10
(PID.TID 0000.0001)  cg2d: iter=   102 ; resid.=  5.03506166501662E-10
(PID.TID 0000.0001)  cg2d: iter=   103 ; resid.=  3.76860963985874E-10
(PID.TID 0000.0001)  cg2d: iter=   104 ; resid.=  3.03516788919638E-10
(PID.TID 0000.0001)  cg2d: iter=   105 ; resid.=  2.29539512867507E-10
(PID.TID 0000.0001)  cg2d: iter=   106 ; resid.=  1.66345458190617E-10
(PID.TID 0000.0001)  cg2d: iter=   107 ; resid.=  1.17780390413048E-10
(PID.TID 0000.0001)  cg2d: iter=   108 ; resid.=  8.35917481726420E-11
(PID.TID 0000.0001)  cg2d: iter=   109 ; resid.=  5.98339421025611E-11
(PID.TID 0000.0001)  cg2d: iter=   110 ; resid.=  4.74987853428066E-11
(PID.TID 0000.0001)  cg2d: iter=   111 ; resid.=  3.79513008016371E-11
(PID.TID 0000.0001)  cg2d: iter=   112 ; resid.=  2.85818155465764E-11
(PID.TID 0000.0001)  cg2d: iter=   113 ; resid.=  2.03958725603857E-11
(PID.TID 0000.0001)  cg2d: iter=   114 ; resid.=  1.65168980288496E-11
(PID.TID 0000.0001)  cg2d: iter=   115 ; resid.=  1.32279313953260E-11
(PID.TID 0000.0001)  cg2d: iter=   116 ; resid.=  1.05328162510682E-11
(PID.TID 0000.0001)  cg2d: iter=   117 ; resid.=  8.36344336638801E-12
(PID.TID 0000.0001)  cg2d: iter=   118 ; resid.=  6.32116019933246E-12
(PID.TID 0000.0001)  cg2d: iter=   119 ; resid.=  4.55541351208220E-12
(PID.TID 0000.0001)  cg2d: iter=   120 ; resid.=  3.49416728062045E-12
(PID.TID 0000.0001)  cg2d: iter=   121 ; resid.=  2.54508557142679E-12
(PID.TID 0000.0001)  cg2d: iter=   122 ; resid.=  1.80120679748322E-12
(PID.TID 0000.0001)  cg2d: iter=   123 ; resid.=  1.36999112092934E-12
(PID.TID 0000.0001)  cg2d: iter=   124 ; resid.=  1.04987700622070E-12
(PID.TID 0000.0001)  cg2d: iter=   125 ; resid.=  7.67092404852918E-13
(PID.TID 0000.0001)  cg2d: iter=   126 ; resid.=  5.49647667202959E-13
(PID.TID 0000.0001)  cg2d: iter=   127 ; resid.=  3.57992382841803E-13
(PID.TID 0000.0001)  cg2d: iter=   128 ; resid.=  2.64258717301697E-13
(PID.TID 0000.0001)  cg2d: iter=   129 ; resid.=  1.72770004792414E-13
(PID.TID 0000.0001)  cg2d: iter=   130 ; resid.=  1.20313114438086E-13
(PID.TID 0000.0001)  cg2d: iter=   131 ; resid.=  8.26649082217602E-14
DEBUG_STATS_RL:    cg2d_x (SOLVE_FOR_PRESSURE)  min= -2.00705456043854E+01
DEBUG_STATS_RL:    cg2d_x (SOLVE_FOR_PRESSURE)  max=  9.25698096666535E+00
DEBUG_STATS_RL:    cg2d_x (SOLVE_FOR_PRESSURE) mean= -1.91725058628889E+00
DEBUG_STATS_RL:    cg2d_x (SOLVE_FOR_PRESSURE) S.D.=  7.33034153862280E+00
(PID.TID 0000.0001)      cg2d_init_res =   2.29516475586611E-01
(PID.TID 0000.0001)      cg2d_iters(min,last) =      -1     131
(PID.TID 0000.0001)      cg2d_last_res =   8.26649082217602E-14
(PID.TID 0000.0001) // =======================================================
(PID.TID 0000.0001) // Begin MONITOR dynamic field statistics
(PID.TID 0000.0001) // =======================================================
(PID.TID 0000.0001) %MON time_tsnumber                =                    88
(PID.TID 0000.0001) %MON time_secondsf                =   7.6032000000000E+06
(PID.TID 0000.0001) %MON dynstat_eta_max              =   9.4362700985366E-01
(PID.TID 0000.0001) %MON dynstat_eta_min              =  -2.0459271767977E+00
(PID.TID 0000.0001) %MON dynstat_eta_mean             =  -5.7327271831772E-03
(PID.TID 0000.0001) %MON dynstat_eta_sd               =   6.4534488170173E-01
(PID.TID 0000.0001) %MON dynstat_eta_del2             =   2.5948728496300E-03
(PID.TID 0000.0001) %MON dynstat_uvel_max             =   1.4825329525107E-01
(PID.TID 0000.0001) %MON dynstat_uvel_min             =  -1.3921784688640E-01
(PID.TID 0000.0001) %MON dynstat_uvel_mean            =   2.2434560750333E-03
(PID.TID 0000.0001) %MON dynstat_uvel_sd              =   1.6079383053280E-02
(PID.TID 0000.0001) %MON dynstat_uvel_del2            =   1.1880331275986E-04
(PID.TID 0000.0001) %MON dynstat_vvel_max             =   1.5014735772510E-01
(PID.TID 0000.0001) %MON dynstat_vvel_min             =  -9.7642937162730E-02
(PID.TID 0000.0001) %MON dynstat_vvel_mean            =   8.5115174776713E-05
(PID.TID 0000.0001) %MON dynstat_vvel_sd              =   8.9378007360901E-03
(PID.TID 0000.0001) %MON dynstat_vvel_del2            =   8.2872711562770E-05
(PID.TID 0000.0001) %MON dynstat_wvel_max             =   1.9132644292927E-04
(PID.TID 0000.0001) %MON dynstat_wvel_min             =  -6.6704072160008E-05
(PID.TID 0000.0001) %MON dynstat_wvel_mean            =  -3.5552230469075E-24
(PID.TID 0000.0001) %MON dynstat_wvel_sd              =   1.1672920259316E-05
(PID.TID 0000.0001) %MON dynstat_wvel_del2            =   1.1322459100545E-07
(PID.TID 0000.0001) %MON dynstat_theta_max            =   3.1177390448438E+01
(PID.TID 0000.0001) %MON dynstat_theta_min            =  -1.9366324425358E+00
(PID.TID 0000.0001) %MON dynstat_theta_mean           =   3.6441621873050E+00
(PID.TID 0000.0001) %MON dynstat_theta_sd             =   4.4285755748571E+00
(PID.TID 0000.0001) %MON dynstat_theta_del2           =   4.8465201015477E-03
(PID.TID 0000.0001) %MON dynstat_salt_max             =   3.7485208969567E+01
(PID.TID 0000.0001) %MON dynstat_salt_min             =   2.9951873475735E+01
(PID.TID 0000.0001) %MON dynstat_salt_mean            =   3.4738006263529E+01
(PID.TID 0000.0001) %MON dynstat_salt_sd              =   2.9663799705390E-01
(PID.TID 0000.0001) %MON dynstat_salt_del2            =   9.9729391707820E-04
(PID.TID 0000.0001) %MON dynstat_sst_max              =   3.1177390448438E+01
(PID.TID 0000.0001) %MON dynstat_sst_min              =  -1.9366324425358E+00
(PID.TID 0000.0001) %MON dynstat_sst_mean             =   1.9073903551798E+01
(PID.TID 0000.0001) %MON dynstat_sst_sd               =   9.2418671353311E+00
(PID.TID 0000.0001) %MON dynstat_sst_del2             =   2.9251767830100E-02
(PID.TID 0000.0001) %MON dynstat_sss_max              =   3.7485208969567E+01
(PID.TID 0000.0001) %MON dynstat_sss_min              =   2.9951873475735E+01
(PID.TID 0000.0001) %MON dynstat_sss_mean             =   3.4857890540350E+01
(PID.TID 0000.0001) %MON dynstat_sss_sd               =   9.9020528868168E-01
(PID.TID 0000.0001) %MON dynstat_sss_del2             =   8.2782942035730E-03
(PID.TID 0000.0001) %MON forcing_qnet_max             =   2.1804487304688E+02
(PID.TID 0000.0001) %MON forcing_qnet_min             =  -1.5871963500977E+02
(PID.TID 0000.0001) %MON forcing_qnet_mean            =  -2.5006288425090E+00
(PID.TID 0000.0001) %MON forcing_qnet_sd              =   3.9492057446070E+01
(PID.TID 0000.0001) %MON forcing_qnet_del2            =   7.8895928517454E-01
(PID.TID 0000.0001) %MON forcing_qsw_max              =   0.0000000000000E+00
(PID.TID 0000.0001) %MON forcing_qsw_min              =   0.0000000000000E+00
(PID.TID 0000.0001) %MON forcing_qsw_mean             =   0.0000000000000E+00
(PID.TID 0000.0001) %MON forcing_qsw_sd               =   0.0000000000000E+00
(PID.TID 0000.0001) %MON forcing_qsw_del2             =   0.0000000000000E+00
(PID.TID 0000.0001) %MON forcing_empmr_max            =   6.7954769633616E-05
(PID.TID 0000.0001) %MON forcing_empmr_min            =  -8.3442570542047E-05
(PID.TID 0000.0001) %MON forcing_empmr_mean           =   2.8136667574790E-07
(PID.TID 0000.0001) %MON forcing_empmr_sd             =   2.5645681839636E-05
(PID.TID 0000.0001) %MON forcing_empmr_del2           =   3.6313018392051E-07
(PID.TID 0000.0001) %MON forcing_fu_max               =   3.4936582446098E-01
(PID.TID 0000.0001) %MON forcing_fu_min               =  -3.9975328445435E-01
(PID.TID 0000.0001) %MON forcing_fu_mean              =   1.8930424137194E-02
(PID.TID 0000.0001) %MON forcing_fu_sd                =   1.0027877528737E-01
(PID.TID 0000.0001) %MON forcing_fu_del2              =   7.7872447127255E-04
(PID.TID 0000.0001) %MON forcing_fv_max               =   1.8214833140373E-01
(PID.TID 0000.0001) %MON forcing_fv_min               =  -1.5243907570839E-01
(PID.TID 0000.0001) %MON forcing_fv_mean              =  -7.0918553715682E-03
(PID.TID 0000.0001) %MON forcing_fv_sd                =   3.9087205962164E-02
(PID.TID 0000.0001) %MON forcing_fv_del2              =   4.2370613844542E-04
(PID.TID 0000.0001) %MON trAdv_CFL_u_max              =   4.6012104553515E-02
(PID.TID 0000.0001) %MON trAdv_CFL_v_max              =   2.9145066828877E-02
(PID.TID 0000.0001) %MON trAdv_CFL_w_max              =   4.5235419605582E-02
(PID.TID 0000.0001) %MON advcfl_uvel_max              =   4.7203330056445E-02
(PID.TID 0000.0001) %MON advcfl_vvel_max              =   2.9171223531882E-02
(PID.TID 0000.0001) %MON advcfl_wvel_max              =   4.5289327860517E-02
(PID.TID 0000.0001) %MON advcfl_W_hf_max              =   4.8619425497320E-02
(PID.TID 0000.0001) %MON pe_b_mean                    =   5.3296563787042E-04
(PID.TID 0000.0001) %MON ke_max                       =   1.2123074266233E-02
(PID.TID 0000.0001) %MON ke_mean                      =   1.5561503423295E-04
(PID.TID 0000.0001) %MON ke_vol                       =   1.3226782436723E+18
(PID.TID 0000.0001) %MON vort_r_min                   =  -3.7677644854670E-07
(PID.TID 0000.0001) %MON vort_r_max                   =   4.6863775466040E-07
(PID.TID 0000.0001) %MON vort_a_mean                  =  -2.5274807273986E-05
(PID.TID 0000.0001) %MON vort_a_sd                    =   7.3604604252557E-05
(PID.TID 0000.0001) %MON vort_p_mean                  =  -3.1845655643909E-05
(PID.TID 0000.0001) %MON vort_p_sd                    =   1.3162487668355E-04
(PID.TID 0000.0001) %MON surfExpan_theta_mean         =  -5.9582497353712E-07
(PID.TID 0000.0001) %MON surfExpan_salt_mean          =   1.8375197558527E-07
(PID.TID 0000.0001) // =======================================================
(PID.TID 0000.0001) // End MONITOR dynamic field statistics
(PID.TID 0000.0001) // =======================================================
 EXTERNAL_FIELDS_LOAD,        88 : iP,iLd,i0,i1=    3    4    3    4 ; Wght=  0.5666666667  0.4333333333
 EXTERNAL_FIELDS_LOAD: (fu0,1),fu,fv= -2.7199E-02 -3.7252E-02 -3.1555E-02 -1.5588E-02
 EXTERNAL_FIELDS_LOAD: SST,SSS,Q,E-P= -8.8900E-02  3.4575E+01  1.6717E+02  8.5124E-06
DEBUG_STATS_RL:          Uvel (THERMODYNAMICS)  min= -1.39217846886396E-01
DEBUG_STATS_RL:          Uvel (THERMODYNAMICS)  max=  1.48253295251070E-01
DEBUG_STATS_RL:          Uvel (THERMODYNAMICS) mean=  5.93179587198082E-03
DEBUG_STATS_RL:          Uvel (THERMODYNAMICS) S.D.=  2.32216418116074E-02
DEBUG_STATS_RL:          Vvel (THERMODYNAMICS)  min= -9.76429371627297E-02
DEBUG_STATS_RL:          Vvel (THERMODYNAMICS)  max=  1.50147357725099E-01
DEBUG_STATS_RL:          Vvel (THERMODYNAMICS) mean=  1.07427740387138E-03
DEBUG_STATS_RL:          Vvel (THERMODYNAMICS) S.D.=  1.39620710863664E-02
DEBUG_STATS_RL:          Wvel (THERMODYNAMICS)  min= -6.67040721600078E-05
DEBUG_STATS_RL:          Wvel (THERMODYNAMICS)  max=  1.91326442929267E-04
DEBUG_STATS_RL:          Wvel (THERMODYNAMICS) mean=  2.38013946362274E-10
DEBUG_STATS_RL:          Wvel (THERMODYNAMICS) S.D.=  1.02327003335032E-05
DEBUG_STATS_RL:         Theta (THERMODYNAMICS)  min= -1.93547015030672E+00
DEBUG_STATS_RL:         Theta (THERMODYNAMICS)  max=  3.11945787059564E+01
DEBUG_STATS_RL:         Theta (THERMODYNAMICS) mean=  3.24049617294978E+00
DEBUG_STATS_RL:         Theta (THERMODYNAMICS) S.D.=  5.88886754262270E+00
DEBUG_STATS_RL:          Salt (THERMODYNAMICS)  min=  2.00000000000000E-02
DEBUG_STATS_RL:          Salt (THERMODYNAMICS)  max=  3.74856384776169E+01
DEBUG_STATS_RL:          Salt (THERMODYNAMICS) mean=  1.88647697002761E+01
DEBUG_STATS_RL:          Salt (THERMODYNAMICS) S.D.=  1.73003252968417E+01
DEBUG_STATS_RL:         GtNm1 (THERMODYNAMICS)  min= -2.34123993073156E-06
DEBUG_STATS_RL:         GtNm1 (THERMODYNAMICS)  max=  1.89741748088637E-06
DEBUG_STATS_RL:         GtNm1 (THERMODYNAMICS) mean= -1.09349373609622E-09
DEBUG_STATS_RL:         GtNm1 (THERMODYNAMICS) S.D.=  1.45438564692842E-07
DEBUG_STATS_RL:         GsNm1 (THERMODYNAMICS)  min= -3.44670416866358E-07
DEBUG_STATS_RL:         GsNm1 (THERMODYNAMICS)  max=  3.11377251341852E-07
DEBUG_STATS_RL:         GsNm1 (THERMODYNAMICS) mean= -2.16945390372181E-10
DEBUG_STATS_RL:         GsNm1 (THERMODYNAMICS) S.D.=  1.40748398428544E-08
DEBUG_STATS_RL:                EtaN (DYNAMICS)  min= -2.04592717679773E+00
DEBUG_STATS_RL:                EtaN (DYNAMICS)  max=  9.43627009853659E-01
DEBUG_STATS_RL:                EtaN (DYNAMICS) mean= -1.95438388000908E-01
DEBUG_STATS_RL:                EtaN (DYNAMICS) S.D.=  7.47231553376434E-01
DEBUG_STATS_RL:                Uvel (DYNAMICS)  min= -1.39217846886396E-01
DEBUG_STATS_RL:                Uvel (DYNAMICS)  max=  1.48253295251070E-01
DEBUG_STATS_RL:                Uvel (DYNAMICS) mean=  5.93179587198082E-03
DEBUG_STATS_RL:                Uvel (DYNAMICS) S.D.=  2.32216418116074E-02
DEBUG_STATS_RL:                Vvel (DYNAMICS)  min= -9.76429371627297E-02
DEBUG_STATS_RL:                Vvel (DYNAMICS)  max=  1.50147357725099E-01
DEBUG_STATS_RL:                Vvel (DYNAMICS) mean=  1.07427740387138E-03
DEBUG_STATS_RL:                Vvel (DYNAMICS) S.D.=  1.39620710863664E-02
DEBUG_STATS_RL:                Wvel (DYNAMICS)  min= -6.67040721600078E-05
DEBUG_STATS_RL:                Wvel (DYNAMICS)  max=  1.91326442929267E-04
DEBUG_STATS_RL:                Wvel (DYNAMICS) mean=  2.38013946362274E-10
DEBUG_STATS_RL:                Wvel (DYNAMICS) S.D.=  1.02327003335032E-05
DEBUG_STATS_RL:               Theta (DYNAMICS)  min= -1.93547015030672E+00
DEBUG_STATS_RL:               Theta (DYNAMICS)  max=  3.11945787059564E+01
DEBUG_STATS_RL:               Theta (DYNAMICS) mean=  3.24049617294978E+00
DEBUG_STATS_RL:               Theta (DYNAMICS) S.D.=  5.88886754262270E+00
DEBUG_STATS_RL:                Salt (DYNAMICS)  min=  2.00000000000000E-02
DEBUG_STATS_RL:                Salt (DYNAMICS)  max=  3.74856384776169E+01
DEBUG_STATS_RL:                Salt (DYNAMICS) mean=  1.88647697002761E+01
DEBUG_STATS_RL:                Salt (DYNAMICS) S.D.=  1.73003252968417E+01
DEBUG_STATS_RL:                  Gu (DYNAMICS)  min= -1.38305451369393E-01
DEBUG_STATS_RL:                  Gu (DYNAMICS)  max=  1.47937684889221E-01
DEBUG_STATS_RL:                  Gu (DYNAMICS) mean=  5.87791499556680E-03
DEBUG_STATS_RL:                  Gu (DYNAMICS) S.D.=  2.35248993111400E-02
DEBUG_STATS_RL:                  Gv (DYNAMICS)  min= -9.53085058364773E-02
DEBUG_STATS_RL:                  Gv (DYNAMICS)  max=  1.50204707840372E-01
DEBUG_STATS_RL:                  Gv (DYNAMICS) mean=  3.53119837186881E-03
DEBUG_STATS_RL:                  Gv (DYNAMICS) S.D.=  1.54648212248674E-02
DEBUG_STATS_RL:               GuNm1 (DYNAMICS)  min= -1.03144503312149E-05
DEBUG_STATS_RL:               GuNm1 (DYNAMICS)  max=  9.63335635793765E-06
DEBUG_STATS_RL:               GuNm1 (DYNAMICS) mean=  1.49938202536653E-08
DEBUG_STATS_RL:               GuNm1 (DYNAMICS) S.D.=  1.23205567643693E-06
DEBUG_STATS_RL:               GvNm1 (DYNAMICS)  min= -9.30969346914297E-06
DEBUG_STATS_RL:               GvNm1 (DYNAMICS)  max=  1.52451162356574E-05
DEBUG_STATS_RL:               GvNm1 (DYNAMICS) mean=  7.38754277526851E-07
DEBUG_STATS_RL:               GvNm1 (DYNAMICS) S.D.=  2.61197322388333E-06
DEBUG_STATS_RL:               GtNm1 (DYNAMICS)  min= -2.34123993073156E-06
DEBUG_STATS_RL:               GtNm1 (DYNAMICS)  max=  1.89741748088637E-06
DEBUG_STATS_RL:               GtNm1 (DYNAMICS) mean= -1.09349373609622E-09
DEBUG_STATS_RL:               GtNm1 (DYNAMICS) S.D.=  1.45438564692842E-07
DEBUG_STATS_RL:               GsNm1 (DYNAMICS)  min= -3.44670416866358E-07
DEBUG_STATS_RL:               GsNm1 (DYNAMICS)  max=  3.11377251341852E-07
DEBUG_STATS_RL:               GsNm1 (DYNAMICS) mean= -2.16945390372181E-10
DEBUG_STATS_RL:               GsNm1 (DYNAMICS) S.D.=  1.40748398428544E-08
DEBUG_STATS_RL:    cg2d_b (SOLVE_FOR_PRESSURE)  min= -3.09758472142950E+04
DEBUG_STATS_RL:    cg2d_b (SOLVE_FOR_PRESSURE)  max=  3.21473755151959E+04
DEBUG_STATS_RL:    cg2d_b (SOLVE_FOR_PRESSURE) mean=  5.51511771531873E+00
DEBUG_STATS_RL:    cg2d_b (SOLVE_FOR_PRESSURE) S.D.=  4.07687770021177E+03
 cg2d: Sum(rhs),rhsMax =   3.97155204938203E-01  2.11152569604783E+00
(PID.TID 0000.0001)  cg2d: iter=     1 ; resid.=  1.17313625022526E-01
(PID.TID 0000.0001)  cg2d: iter=     2 ; resid.=  1.13740053991506E-01
(PID.TID 0000.0001)  cg2d: iter=     3 ; resid.=  1.17287628537372E-01
(PID.TID 0000.0001)  cg2d: iter=     4 ; resid.=  1.05166129214924E-01
(PID.TID 0000.0001)  cg2d: iter=     5 ; resid.=  9.79516361858853E-02
(PID.TID 0000.0001)  cg2d: iter=     6 ; resid.=  8.78283992852989E-02
(PID.TID 0000.0001)  cg2d: iter=     7 ; resid.=  6.65521656002179E-02
(PID.TID 0000.0001)  cg2d: iter=     8 ; resid.=  4.72140536134351E-02
(PID.TID 0000.0001)  cg2d: iter=     9 ; resid.=  3.38470675509612E-02
(PID.TID 0000.0001)  cg2d: iter=    10 ; resid.=  2.67894067434299E-02
(PID.TID 0000.0001)  cg2d: iter=    11 ; resid.=  2.27301382155253E-02
(PID.TID 0000.0001)  cg2d: iter=    12 ; resid.=  1.95434269490916E-02
(PID.TID 0000.0001)  cg2d: iter=    13 ; resid.=  1.70862606803014E-02
(PID.TID 0000.0001)  cg2d: iter=    14 ; resid.=  1.44982297695972E-02
(PID.TID 0000.0001)  cg2d: iter=    15 ; resid.=  1.19211171051402E-02
(PID.TID 0000.0001)  cg2d: iter=    16 ; resid.=  1.09057284211477E-02
(PID.TID 0000.0001)  cg2d: iter=    17 ; resid.=  9.67228941762822E-03
(PID.TID 0000.0001)  cg2d: iter=    18 ; resid.=  7.73951716130653E-03
(PID.TID 0000.0001)  cg2d: iter=    19 ; resid.=  6.03048164048597E-03
(PID.TID 0000.0001)  cg2d: iter=    20 ; resid.=  4.96648846208673E-03
(PID.TID 0000.0001)  cg2d: iter=    21 ; resid.=  4.02493235888358E-03
(PID.TID 0000.0001)  cg2d: iter=    22 ; resid.=  3.74295632129551E-03
(PID.TID 0000.0001)  cg2d: iter=    23 ; resid.=  3.06622107703642E-03
(PID.TID 0000.0001)  cg2d: iter=    24 ; resid.=  2.69400814842282E-03
(PID.TID 0000.0001)  cg2d: iter=    25 ; resid.=  2.03206918185596E-03
(PID.TID 0000.0001)  cg2d: iter=    26 ; resid.=  1.50461097046809E-03
(PID.TID 0000.0001)  cg2d: iter=    27 ; resid.=  1.19992485538969E-03
(PID.TID 0000.0001)  cg2d: iter=    28 ; resid.=  9.64852226546377E-04
(PID.TID 0000.0001)  cg2d: iter=    29 ; resid.=  7.87300261003432E-04
(PID.TID 0000.0001)  cg2d: iter=    30 ; resid.=  6.71914803004973E-04
(PID.TID 0000.0001)  cg2d: iter=    31 ; resid.=  5.67078321669948E-04
(PID.TID 0000.0001)  cg2d: iter=    32 ; resid.=  4.22810534447017E-04
(PID.TID 0000.0001)  cg2d: iter=    33 ; resid.=  3.23242634654846E-04
(PID.TID 0000.0001)  cg2d: iter=    34 ; resid.=  2.99827940568974E-04
(PID.TID 0000.0001)  cg2d: iter=    35 ; resid.=  2.54333675945380E-04
(PID.TID 0000.0001)  cg2d: iter=    36 ; resid.=  2.04833324611032E-04
(PID.TID 0000.0001)  cg2d: iter=    37 ; resid.=  1.82613091560381E-04
(PID.TID 0000.0001)  cg2d: iter=    38 ; resid.=  1.50176893271199E-04
(PID.TID 0000.0001)  cg2d: iter=    39 ; resid.=  1.29419996909149E-04
(PID.TID 0000.0001)  cg2d: iter=    40 ; resid.=  1.07537349292853E-04
(PID.TID 0000.0001)  cg2d: iter=    41 ; resid.=  8.70428235868845E-05
(PID.TID 0000.0001)  cg2d: iter=    42 ; resid.=  7.13058317897034E-05
(PID.TID 0000.0001)  cg2d: iter=    43 ; resid.=  5.97732105702402E-05
(PID.TID 0000.0001)  cg2d: iter=    44 ; resid.=  4.75980005912617E-05
(PID.TID 0000.0001)  cg2d: iter=    45 ; resid.=  4.05095416665280E-05
(PID.TID 0000.0001)  cg2d: iter=    46 ; resid.=  3.17191615212871E-05
(PID.TID 0000.0001)  cg2d: iter=    47 ; resid.=  2.54788735558744E-05
(PID.TID 0000.0001)  cg2d: iter=    48 ; resid.=  2.33152709913905E-05
(PID.TID 0000.0001)  cg2d: iter=    49 ; resid.=  2.14032132819586E-05
(PID.TID 0000.0001)  cg2d: iter=    50 ; resid.=  1.77262885214327E-05
(PID.TID 0000.0001)  cg2d: iter=    51 ; resid.=  1.56360482621417E-05
(PID.TID 0000.0001)  cg2d: iter=    52 ; resid.=  1.35406067823871E-05
(PID.TID 0000.0001)  cg2d: iter=    53 ; resid.=  1.13539734395716E-05
(PID.TID 0000.0001)  cg2d: iter=    54 ; resid.=  8.33256059509350E-06
(PID.TID 0000.0001)  cg2d: iter=    55 ; resid.=  6.94310024651728E-06
(PID.TID 0000.0001)  cg2d: iter=    56 ; resid.=  6.49724921079087E-06
(PID.TID 0000.0001)  cg2d: iter=    57 ; resid.=  5.72502759020225E-06
(PID.TID 0000.0001)  cg2d: iter=    58 ; resid.=  4.60003254616698E-06
(PID.TID 0000.0001)  cg2d: iter=    59 ; resid.=  3.66738939609385E-06
(PID.TID 0000.0001)  cg2d: iter=    60 ; resid.=  3.12813150813433E-06
(PID.TID 0000.0001)  cg2d: iter=    61 ; resid.=  2.53884174850781E-06
(PID.TID 0000.0001)  cg2d: iter=    62 ; resid.=  2.10610031748433E-06
(PID.TID 0000.0001)  cg2d: iter=    63 ; resid.=  1.74281537343372E-06
(PID.TID 0000.0001)  cg2d: iter=    64 ; resid.=  1.40041287062042E-06
(PID.TID 0000.0001)  cg2d: iter=    65 ; resid.=  1.15872061828418E-06
(PID.TID 0000.0001)  cg2d: iter=    66 ; resid.=  9.60134222557762E-07
(PID.TID 0000.0001)  cg2d: iter=    67 ; resid.=  7.95580048171275E-07
(PID.TID 0000.0001)  cg2d: iter=    68 ; resid.=  7.05074672904872E-07
(PID.TID 0000.0001)  cg2d: iter=    69 ; resid.=  5.82330591745088E-07
(PID.TID 0000.0001)  cg2d: iter=    70 ; resid.=  4.72176646304420E-07
(PID.TID 0000.0001)  cg2d: iter=    71 ; resid.=  3.91917336834112E-07
(PID.TID 0000.0001)  cg2d: iter=    72 ; resid.=  3.56462232952680E-07
(PID.TID 0000.0001)  cg2d: iter=    73 ; resid.=  3.05744796609748E-07
(PID.TID 0000.0001)  cg2d: iter=    74 ; resid.=  2.75127717805936E-07
(PID.TID 0000.0001)  cg2d: iter=    75 ; resid.=  2.38964561658583E-07
(PID.TID 0000.0001)  cg2d: iter=    76 ; resid.=  1.84344418716408E-07
(PID.TID 0000.0001)  cg2d: iter=    77 ; resid.=  1.44974188859226E-07
(PID.TID 0000.0001)  cg2d: iter=    78 ; resid.=  1.18780862033840E-07
(PID.TID 0000.0001)  cg2d: iter=    79 ; resid.=  9.08874746497083E-08
(PID.TID 0000.0001)  cg2d: iter=    80 ; resid.=  6.93320259195231E-08
(PID.TID 0000.0001)  cg2d: iter=    81 ; resid.=  5.24876310717651E-08
(PID.TID 0000.0001)  cg2d: iter=    82 ; resid.=  3.69945422193155E-08
(PID.TID 0000.0001)  cg2d: iter=    83 ; resid.=  2.85003180128658E-08
(PID.TID 0000.0001)  cg2d: iter=    84 ; resid.=  2.16822234581628E-08
(PID.TID 0000.0001)  cg2d: iter=    85 ; resid.=  1.60219145428383E-08
(PID.TID 0000.0001)  cg2d: iter=    86 ; resid.=  1.24069097626450E-08
(PID.TID 0000.0001)  cg2d: iter=    87 ; resid.=  1.06252230682668E-08
(PID.TID 0000.0001)  cg2d: iter=    88 ; resid.=  8.95757341569332E-09
(PID.TID 0000.0001)  cg2d: iter=    89 ; resid.=  7.62792799190566E-09
(PID.TID 0000.0001)  cg2d: iter=    90 ; resid.=  6.22964102639261E-09
(PID.TID 0000.0001)  cg2d: iter=    91 ; resid.=  4.68594169846564E-09
(PID.TID 0000.0001)  cg2d: iter=    92 ; resid.=  3.56117159288647E-09
(PID.TID 0000.0001)  cg2d: iter=    93 ; resid.=  2.59562984097944E-09
(PID.TID 0000.0001)  cg2d: iter=    94 ; resid.=  2.04468390074364E-09
(PID.TID 0000.0001)  cg2d: iter=    95 ; resid.=  1.74705464534104E-09
(PID.TID 0000.0001)  cg2d: iter=    96 ; resid.=  1.34142060392419E-09
(PID.TID 0000.0001)  cg2d: iter=    97 ; resid.=  1.06417883387982E-09
(PID.TID 0000.0001)  cg2d: iter=    98 ; resid.=  9.04430270353500E-10
(PID.TID 0000.0001)  cg2d: iter=    99 ; resid.=  8.45311208957126E-10
(PID.TID 0000.0001)  cg2d: iter=   100 ; resid.=  7.71596639699665E-10
(PID.TID 0000.0001)  cg2d: iter=   101 ; resid.=  6.28609356625399E-10
(PID.TID 0000.0001)  cg2d: iter=   102 ; resid.=  4.77162179005023E-10
(PID.TID 0000.0001)  cg2d: iter=   103 ; resid.=  3.60992490927688E-10
(PID.TID 0000.0001)  cg2d: iter=   104 ; resid.=  2.85930518179521E-10
(PID.TID 0000.0001)  cg2d: iter=   105 ; resid.=  2.17698712273983E-10
(PID.TID 0000.0001)  cg2d: iter=   106 ; resid.=  1.60277264815905E-10
(PID.TID 0000.0001)  cg2d: iter=   107 ; resid.=  1.17072180975031E-10
(PID.TID 0000.0001)  cg2d: iter=   108 ; resid.=  8.28349884401923E-11
(PID.TID 0000.0001)  cg2d: iter=   109 ; resid.=  5.93841921440892E-11
(PID.TID 0000.0001)  cg2d: iter=   110 ; resid.=  4.74068101089605E-11
(PID.TID 0000.0001)  cg2d: iter=   111 ; resid.=  3.75804746536935E-11
(PID.TID 0000.0001)  cg2d: iter=   112 ; resid.=  2.83986947805193E-11
(PID.TID 0000.0001)  cg2d: iter=   113 ; resid.=  2.06640292927107E-11
(PID.TID 0000.0001)  cg2d: iter=   114 ; resid.=  1.69177351114340E-11
(PID.TID 0000.0001)  cg2d: iter=   115 ; resid.=  1.38171203507818E-11
(PID.TID 0000.0001)  cg2d: iter=   116 ; resid.=  1.10360463898640E-11
(PID.TID 0000.0001)  cg2d: iter=   117 ; resid.=  8.66195592775611E-12
(PID.TID 0000.0001)  cg2d: iter=   118 ; resid.=  6.38373423831283E-12
(PID.TID 0000.0001)  cg2d: iter=   119 ; resid.=  4.34108040902345E-12
(PID.TID 0000.0001)  cg2d: iter=   120 ; resid.=  3.26794414038609E-12
(PID.TID 0000.0001)  cg2d: iter=   121 ; resid.=  2.38714237845509E-12
(PID.TID 0000.0001)  cg2d: iter=   122 ; resid.=  1.65518590743519E-12
(PID.TID 0000.0001)  cg2d: iter=   123 ; resid.=  1.24291867803949E-12
(PID.TID 0000.0001)  cg2d: iter=   124 ; resid.=  9.34895825775631E-13
(PID.TID 0000.0001)  cg2d: iter=   125 ; resid.=  6.67538425851832E-13
(PID.TID 0000.0001)  cg2d: iter=   126 ; resid.=  4.74318230852563E-13
(PID.TID 0000.0001)  cg2d: iter=   127 ; resid.=  3.09680784216902E-13
(PID.TID 0000.0001)  cg2d: iter=   128 ; resid.=  2.33994988896386E-13
(PID.TID 0000.0001)  cg2d: iter=   129 ; resid.=  1.61179730491913E-13
(PID.TID 0000.0001)  cg2d: iter=   130 ; resid.=  1.19372243386538E-13
(PID.TID 0000.0001)  cg2d: iter=   131 ; resid.=  8.76014415500731E-14
DEBUG_STATS_RL:    cg2d_x (SOLVE_FOR_PRESSURE)  min= -1.98551382975616E+01
DEBUG_STATS_RL:    cg2d_x (SOLVE_FOR_PRESSURE)  max=  8.92069126665728E+00
DEBUG_STATS_RL:    cg2d_x (SOLVE_FOR_PRESSURE) mean= -1.89212634873663E+00
DEBUG_STATS_RL:    cg2d_x (SOLVE_FOR_PRESSURE) S.D.=  7.19702794520468E+00
(PID.TID 0000.0001)      cg2d_init_res =   2.26267374492208E-01
(PID.TID 0000.0001)      cg2d_iters(min,last) =      -1     131
(PID.TID 0000.0001)      cg2d_last_res =   8.76014415500731E-14
(PID.TID 0000.0001) // =======================================================
(PID.TID 0000.0001) // Begin MONITOR dynamic field statistics
(PID.TID 0000.0001) // =======================================================
(PID.TID 0000.0001) %MON time_tsnumber                =                    89
(PID.TID 0000.0001) %MON time_secondsf                =   7.6896000000000E+06
(PID.TID 0000.0001) %MON dynstat_eta_max              =   9.0934671423636E-01
(PID.TID 0000.0001) %MON dynstat_eta_min              =  -2.0239692454191E+00
(PID.TID 0000.0001) %MON dynstat_eta_mean             =  -5.7543414839147E-03
(PID.TID 0000.0001) %MON dynstat_eta_sd               =   6.3079978463814E-01
(PID.TID 0000.0001) %MON dynstat_eta_del2             =   2.5989023114242E-03
(PID.TID 0000.0001) %MON dynstat_uvel_max             =   1.4611217743586E-01
(PID.TID 0000.0001) %MON dynstat_uvel_min             =  -1.4008498693299E-01
(PID.TID 0000.0001) %MON dynstat_uvel_mean            =   2.2097225142993E-03
(PID.TID 0000.0001) %MON dynstat_uvel_sd              =   1.5998732067977E-02
(PID.TID 0000.0001) %MON dynstat_uvel_del2            =   1.1920695152652E-04
(PID.TID 0000.0001) %MON dynstat_vvel_max             =   1.4962513284399E-01
(PID.TID 0000.0001) %MON dynstat_vvel_min             =  -9.8485695627559E-02
(PID.TID 0000.0001) %MON dynstat_vvel_mean            =   9.1632573584342E-05
(PID.TID 0000.0001) %MON dynstat_vvel_sd              =   8.8960667081059E-03
(PID.TID 0000.0001) %MON dynstat_vvel_del2            =   8.2817050086756E-05
(PID.TID 0000.0001) %MON dynstat_wvel_max             =   1.7865909316833E-04
(PID.TID 0000.0001) %MON dynstat_wvel_min             =  -6.5021633593348E-05
(PID.TID 0000.0001) %MON dynstat_wvel_mean            =   4.0781848886462E-23
(PID.TID 0000.0001) %MON dynstat_wvel_sd              =   1.1531203461624E-05
(PID.TID 0000.0001) %MON dynstat_wvel_del2            =   1.1171617564832E-07
(PID.TID 0000.0001) %MON dynstat_theta_max            =   3.1194578705956E+01
(PID.TID 0000.0001) %MON dynstat_theta_min            =  -1.9354701503067E+00
(PID.TID 0000.0001) %MON dynstat_theta_mean           =   3.6441862663155E+00
(PID.TID 0000.0001) %MON dynstat_theta_sd             =   4.4286996536823E+00
(PID.TID 0000.0001) %MON dynstat_theta_del2           =   4.8442080889751E-03
(PID.TID 0000.0001) %MON dynstat_salt_max             =   3.7485638477617E+01
(PID.TID 0000.0001) %MON dynstat_salt_min             =   2.9955921803966E+01
(PID.TID 0000.0001) %MON dynstat_salt_mean            =   3.4738002603726E+01
(PID.TID 0000.0001) %MON dynstat_salt_sd              =   2.9663715219169E-01
(PID.TID 0000.0001) %MON dynstat_salt_del2            =   9.9761241619166E-04
(PID.TID 0000.0001) %MON dynstat_sst_max              =   3.1194578705956E+01
(PID.TID 0000.0001) %MON dynstat_sst_min              =  -1.9354701503067E+00
(PID.TID 0000.0001) %MON dynstat_sst_mean             =   1.9071946542668E+01
(PID.TID 0000.0001) %MON dynstat_sst_sd               =   9.2492977448577E+00
(PID.TID 0000.0001) %MON dynstat_sst_del2             =   2.9280320223766E-02
(PID.TID 0000.0001) %MON dynstat_sss_max              =   3.7485638477617E+01
(PID.TID 0000.0001) %MON dynstat_sss_min              =   2.9955921803966E+01
(PID.TID 0000.0001) %MON dynstat_sss_mean             =   3.4857752822261E+01
(PID.TID 0000.0001) %MON dynstat_sss_sd               =   9.9061700873054E-01
(PID.TID 0000.0001) %MON dynstat_sss_del2             =   8.2875665419489E-03
(PID.TID 0000.0001) %MON forcing_qnet_max             =   2.1333963826497E+02
(PID.TID 0000.0001) %MON forcing_qnet_min             =  -1.5829163869222E+02
(PID.TID 0000.0001) %MON forcing_qnet_mean            =  -2.1035924135394E+00
(PID.TID 0000.0001) %MON forcing_qnet_sd              =   3.9378744149303E+01
(PID.TID 0000.0001) %MON forcing_qnet_del2            =   7.8682598248639E-01
(PID.TID 0000.0001) %MON forcing_qsw_max              =   0.0000000000000E+00
(PID.TID 0000.0001) %MON forcing_qsw_min              =   0.0000000000000E+00
(PID.TID 0000.0001) %MON forcing_qsw_mean             =   0.0000000000000E+00
(PID.TID 0000.0001) %MON forcing_qsw_sd               =   0.0000000000000E+00
(PID.TID 0000.0001) %MON forcing_qsw_del2             =   0.0000000000000E+00
(PID.TID 0000.0001) %MON forcing_empmr_max            =   6.7858598621721E-05
(PID.TID 0000.0001) %MON forcing_empmr_min            =  -8.3457416621968E-05
(PID.TID 0000.0001) %MON forcing_empmr_mean           =   2.5892131092034E-07
(PID.TID 0000.0001) %MON forcing_empmr_sd             =   2.5615270764388E-05
(PID.TID 0000.0001) %MON forcing_empmr_del2           =   3.6333336440731E-07
(PID.TID 0000.0001) %MON forcing_fu_max               =   3.4887377023697E-01
(PID.TID 0000.0001) %MON forcing_fu_min               =  -4.0068635642529E-01
(PID.TID 0000.0001) %MON forcing_fu_mean              =   1.8803232040261E-02
(PID.TID 0000.0001) %MON forcing_fu_sd                =   1.0027933019138E-01
(PID.TID 0000.0001) %MON forcing_fu_del2              =   7.7731111628185E-04
(PID.TID 0000.0001) %MON forcing_fv_max               =   1.8205233017604E-01
(PID.TID 0000.0001) %MON forcing_fv_min               =  -1.4903136293093E-01
(PID.TID 0000.0001) %MON forcing_fv_mean              =  -7.0553786991952E-03
(PID.TID 0000.0001) %MON forcing_fv_sd                =   3.8949486198953E-02
(PID.TID 0000.0001) %MON forcing_fv_del2              =   4.2056480226922E-04
(PID.TID 0000.0001) %MON trAdv_CFL_u_max              =   4.7212917390384E-02
(PID.TID 0000.0001) %MON trAdv_CFL_v_max              =   2.9123815790594E-02
(PID.TID 0000.0001) %MON trAdv_CFL_w_max              =   4.2386165818176E-02
(PID.TID 0000.0001) %MON advcfl_uvel_max              =   4.8069750844512E-02
(PID.TID 0000.0001) %MON advcfl_vvel_max              =   2.9069763612962E-02
(PID.TID 0000.0001) %MON advcfl_wvel_max              =   4.2040629243255E-02
(PID.TID 0000.0001) %MON advcfl_W_hf_max              =   4.5131851981729E-02
(PID.TID 0000.0001) %MON pe_b_mean                    =   5.0921408962694E-04
(PID.TID 0000.0001) %MON ke_max                       =   1.1941908409635E-02
(PID.TID 0000.0001) %MON ke_mean                      =   1.5403779089749E-04
(PID.TID 0000.0001) %MON ke_vol                       =   1.3226782436723E+18
(PID.TID 0000.0001) %MON vort_r_min                   =  -3.7830453063978E-07
(PID.TID 0000.0001) %MON vort_r_max                   =   4.5413661793369E-07
(PID.TID 0000.0001) %MON vort_a_mean                  =  -2.5274807298160E-05
(PID.TID 0000.0001) %MON vort_a_sd                    =   7.3604601432162E-05
(PID.TID 0000.0001) %MON vort_p_mean                  =  -3.1845655674368E-05
(PID.TID 0000.0001) %MON vort_p_sd                    =   1.3162479335775E-04
(PID.TID 0000.0001) %MON surfExpan_theta_mean         =  -5.6829948789186E-07
(PID.TID 0000.0001) %MON surfExpan_salt_mean          =   1.7804557693588E-07
(PID.TID 0000.0001) // =======================================================
(PID.TID 0000.0001) // End MONITOR dynamic field statistics
(PID.TID 0000.0001) // =======================================================
 EXTERNAL_FIELDS_LOAD,        89 : iP,iLd,i0,i1=    3    4    3    4 ; Wght=  0.5333333333  0.4666666667
 EXTERNAL_FIELDS_LOAD: (fu0,1),fu,fv= -2.7199E-02 -3.7252E-02 -3.1890E-02 -1.6742E-02
 EXTERNAL_FIELDS_LOAD: SST,SSS,Q,E-P= -8.1592E-02  3.4574E+01  1.6346E+02  8.4686E-06
DEBUG_STATS_RL:          Uvel (THERMODYNAMICS)  min= -1.40084986932989E-01
DEBUG_STATS_RL:          Uvel (THERMODYNAMICS)  max=  1.46112177435862E-01
DEBUG_STATS_RL:          Uvel (THERMODYNAMICS) mean=  5.85783999701407E-03
DEBUG_STATS_RL:          Uvel (THERMODYNAMICS) S.D.=  2.31811048028350E-02
DEBUG_STATS_RL:          Vvel (THERMODYNAMICS)  min= -9.84856956275590E-02
DEBUG_STATS_RL:          Vvel (THERMODYNAMICS)  max=  1.49625132843989E-01
DEBUG_STATS_RL:          Vvel (THERMODYNAMICS) mean=  1.04941801375384E-03
DEBUG_STATS_RL:          Vvel (THERMODYNAMICS) S.D.=  1.38989772082097E-02
DEBUG_STATS_RL:          Wvel (THERMODYNAMICS)  min= -6.50216335933480E-05
DEBUG_STATS_RL:          Wvel (THERMODYNAMICS)  max=  1.78659093168333E-04
DEBUG_STATS_RL:          Wvel (THERMODYNAMICS) mean= -5.30327546185651E-09
DEBUG_STATS_RL:          Wvel (THERMODYNAMICS) S.D.=  1.00868812324061E-05
DEBUG_STATS_RL:         Theta (THERMODYNAMICS)  min= -1.93418422975022E+00
DEBUG_STATS_RL:         Theta (THERMODYNAMICS)  max=  3.12109017112010E+01
DEBUG_STATS_RL:         Theta (THERMODYNAMICS) mean=  3.24038435931629E+00
DEBUG_STATS_RL:         Theta (THERMODYNAMICS) S.D.=  5.88900464106967E+00
DEBUG_STATS_RL:          Salt (THERMODYNAMICS)  min=  2.00000000000000E-02
DEBUG_STATS_RL:          Salt (THERMODYNAMICS)  max=  3.74860154102820E+01
DEBUG_STATS_RL:          Salt (THERMODYNAMICS) mean=  1.88647612544231E+01
DEBUG_STATS_RL:          Salt (THERMODYNAMICS) S.D.=  1.73003182562410E+01
DEBUG_STATS_RL:         GtNm1 (THERMODYNAMICS)  min= -2.34091132914780E-06
DEBUG_STATS_RL:         GtNm1 (THERMODYNAMICS)  max=  1.99347341879980E-06
DEBUG_STATS_RL:         GtNm1 (THERMODYNAMICS) mean= -1.21890465994562E-09
DEBUG_STATS_RL:         GtNm1 (THERMODYNAMICS) S.D.=  1.44641454381506E-07
DEBUG_STATS_RL:         GsNm1 (THERMODYNAMICS)  min= -3.45617563885898E-07
DEBUG_STATS_RL:         GsNm1 (THERMODYNAMICS)  max=  3.25732951137141E-07
DEBUG_STATS_RL:         GsNm1 (THERMODYNAMICS) mean= -2.30616627736340E-10
DEBUG_STATS_RL:         GsNm1 (THERMODYNAMICS) S.D.=  1.41747984035662E-08
DEBUG_STATS_RL:                EtaN (DYNAMICS)  min= -2.02396924541909E+00
DEBUG_STATS_RL:                EtaN (DYNAMICS)  max=  9.09346714236363E-01
DEBUG_STATS_RL:                EtaN (DYNAMICS) mean= -1.92877303642879E-01
DEBUG_STATS_RL:                EtaN (DYNAMICS) S.D.=  7.33641992375610E-01
DEBUG_STATS_RL:                Uvel (DYNAMICS)  min= -1.40084986932989E-01
DEBUG_STATS_RL:                Uvel (DYNAMICS)  max=  1.46112177435862E-01
DEBUG_STATS_RL:                Uvel (DYNAMICS) mean=  5.85783999701407E-03
DEBUG_STATS_RL:                Uvel (DYNAMICS) S.D.=  2.31811048028350E-02
DEBUG_STATS_RL:                Vvel (DYNAMICS)  min= -9.84856956275590E-02
DEBUG_STATS_RL:                Vvel (DYNAMICS)  max=  1.49625132843989E-01
DEBUG_STATS_RL:                Vvel (DYNAMICS) mean=  1.04941801375384E-03
DEBUG_STATS_RL:                Vvel (DYNAMICS) S.D.=  1.38989772082097E-02
DEBUG_STATS_RL:                Wvel (DYNAMICS)  min= -6.50216335933480E-05
DEBUG_STATS_RL:                Wvel (DYNAMICS)  max=  1.78659093168333E-04
DEBUG_STATS_RL:                Wvel (DYNAMICS) mean= -5.30327546185651E-09
DEBUG_STATS_RL:                Wvel (DYNAMICS) S.D.=  1.00868812324061E-05
DEBUG_STATS_RL:               Theta (DYNAMICS)  min= -1.93418422975022E+00
DEBUG_STATS_RL:               Theta (DYNAMICS)  max=  3.12109017112010E+01
DEBUG_STATS_RL:               Theta (DYNAMICS) mean=  3.24038435931629E+00
DEBUG_STATS_RL:               Theta (DYNAMICS) S.D.=  5.88900464106967E+00
DEBUG_STATS_RL:                Salt (DYNAMICS)  min=  2.00000000000000E-02
DEBUG_STATS_RL:                Salt (DYNAMICS)  max=  3.74860154102820E+01
DEBUG_STATS_RL:                Salt (DYNAMICS) mean=  1.88647612544231E+01
DEBUG_STATS_RL:                Salt (DYNAMICS) S.D.=  1.73003182562410E+01
DEBUG_STATS_RL:                  Gu (DYNAMICS)  min= -1.39160641604373E-01
DEBUG_STATS_RL:                  Gu (DYNAMICS)  max=  1.43085205334144E-01
DEBUG_STATS_RL:                  Gu (DYNAMICS) mean=  5.79924759539234E-03
DEBUG_STATS_RL:                  Gu (DYNAMICS) S.D.=  2.34936592033483E-02
DEBUG_STATS_RL:                  Gv (DYNAMICS)  min= -9.61050117984738E-02
DEBUG_STATS_RL:                  Gv (DYNAMICS)  max=  1.49641576687395E-01
DEBUG_STATS_RL:                  Gv (DYNAMICS) mean=  3.50991956101295E-03
DEBUG_STATS_RL:                  Gv (DYNAMICS) S.D.=  1.54050766930077E-02
DEBUG_STATS_RL:               GuNm1 (DYNAMICS)  min= -1.02128476930658E-05
DEBUG_STATS_RL:               GuNm1 (DYNAMICS)  max=  9.78222837434831E-06
DEBUG_STATS_RL:               GuNm1 (DYNAMICS) mean=  1.56022080269416E-08
DEBUG_STATS_RL:               GuNm1 (DYNAMICS) S.D.=  1.23235055688763E-06
DEBUG_STATS_RL:               GvNm1 (DYNAMICS)  min= -9.29568059279281E-06
DEBUG_STATS_RL:               GvNm1 (DYNAMICS)  max=  1.52018807331678E-05
DEBUG_STATS_RL:               GvNm1 (DYNAMICS) mean=  7.39316797034217E-07
DEBUG_STATS_RL:               GvNm1 (DYNAMICS) S.D.=  2.61133393618627E-06
DEBUG_STATS_RL:               GtNm1 (DYNAMICS)  min= -2.34091132914780E-06
DEBUG_STATS_RL:               GtNm1 (DYNAMICS)  max=  1.99347341879980E-06
DEBUG_STATS_RL:               GtNm1 (DYNAMICS) mean= -1.21890465994562E-09
DEBUG_STATS_RL:               GtNm1 (DYNAMICS) S.D.=  1.44641454381506E-07
DEBUG_STATS_RL:               GsNm1 (DYNAMICS)  min= -3.45617563885898E-07
DEBUG_STATS_RL:               GsNm1 (DYNAMICS)  max=  3.25732951137141E-07
DEBUG_STATS_RL:               GsNm1 (DYNAMICS) mean= -2.30616627736340E-10
DEBUG_STATS_RL:               GsNm1 (DYNAMICS) S.D.=  1.41747984035662E-08
DEBUG_STATS_RL:    cg2d_b (SOLVE_FOR_PRESSURE)  min= -3.09617964613256E+04
DEBUG_STATS_RL:    cg2d_b (SOLVE_FOR_PRESSURE)  max=  3.23442739318582E+04
DEBUG_STATS_RL:    cg2d_b (SOLVE_FOR_PRESSURE) mean=  5.53403764508534E+00
DEBUG_STATS_RL:    cg2d_b (SOLVE_FOR_PRESSURE) S.D.=  4.07749245287766E+03
 cg2d: Sum(rhs),rhsMax =   3.96091659851803E-01  2.12445851123510E+00
(PID.TID 0000.0001)  cg2d: iter=     1 ; resid.=  1.12845603416892E-01
(PID.TID 0000.0001)  cg2d: iter=     2 ; resid.=  1.07778915447316E-01
(PID.TID 0000.0001)  cg2d: iter=     3 ; resid.=  1.10637916942102E-01
(PID.TID 0000.0001)  cg2d: iter=     4 ; resid.=  9.89659281204928E-02
(PID.TID 0000.0001)  cg2d: iter=     5 ; resid.=  9.23208401018842E-02
(PID.TID 0000.0001)  cg2d: iter=     6 ; resid.=  8.37586854608456E-02
(PID.TID 0000.0001)  cg2d: iter=     7 ; resid.=  6.29527195898687E-02
(PID.TID 0000.0001)  cg2d: iter=     8 ; resid.=  4.50947167664726E-02
(PID.TID 0000.0001)  cg2d: iter=     9 ; resid.=  3.28731439730047E-02
(PID.TID 0000.0001)  cg2d: iter=    10 ; resid.=  2.59483187455297E-02
(PID.TID 0000.0001)  cg2d: iter=    11 ; resid.=  2.22181029192076E-02
(PID.TID 0000.0001)  cg2d: iter=    12 ; resid.=  1.88636907703170E-02
(PID.TID 0000.0001)  cg2d: iter=    13 ; resid.=  1.63126680797988E-02
(PID.TID 0000.0001)  cg2d: iter=    14 ; resid.=  1.37917593198405E-02
(PID.TID 0000.0001)  cg2d: iter=    15 ; resid.=  1.13237180041211E-02
(PID.TID 0000.0001)  cg2d: iter=    16 ; resid.=  1.04600661901883E-02
(PID.TID 0000.0001)  cg2d: iter=    17 ; resid.=  9.36909780758131E-03
(PID.TID 0000.0001)  cg2d: iter=    18 ; resid.=  7.52542935746481E-03
(PID.TID 0000.0001)  cg2d: iter=    19 ; resid.=  5.97715683208158E-03
(PID.TID 0000.0001)  cg2d: iter=    20 ; resid.=  4.79694896325517E-03
(PID.TID 0000.0001)  cg2d: iter=    21 ; resid.=  3.87262576265545E-03
(PID.TID 0000.0001)  cg2d: iter=    22 ; resid.=  3.57503065487656E-03
(PID.TID 0000.0001)  cg2d: iter=    23 ; resid.=  2.88990841554300E-03
(PID.TID 0000.0001)  cg2d: iter=    24 ; resid.=  2.56644954766275E-03
(PID.TID 0000.0001)  cg2d: iter=    25 ; resid.=  1.95781593824509E-03
(PID.TID 0000.0001)  cg2d: iter=    26 ; resid.=  1.46883732182978E-03
(PID.TID 0000.0001)  cg2d: iter=    27 ; resid.=  1.18438506888893E-03
(PID.TID 0000.0001)  cg2d: iter=    28 ; resid.=  9.59897284918876E-04
(PID.TID 0000.0001)  cg2d: iter=    29 ; resid.=  7.77719269890783E-04
(PID.TID 0000.0001)  cg2d: iter=    30 ; resid.=  6.62639529313285E-04
(PID.TID 0000.0001)  cg2d: iter=    31 ; resid.=  5.60834897068500E-04
(PID.TID 0000.0001)  cg2d: iter=    32 ; resid.=  4.12661876218835E-04
(PID.TID 0000.0001)  cg2d: iter=    33 ; resid.=  3.18468893667379E-04
(PID.TID 0000.0001)  cg2d: iter=    34 ; resid.=  2.99346993830540E-04
(PID.TID 0000.0001)  cg2d: iter=    35 ; resid.=  2.50375422508798E-04
(PID.TID 0000.0001)  cg2d: iter=    36 ; resid.=  2.03916441593228E-04
(PID.TID 0000.0001)  cg2d: iter=    37 ; resid.=  1.83743466226208E-04
(PID.TID 0000.0001)  cg2d: iter=    38 ; resid.=  1.51590396120002E-04
(PID.TID 0000.0001)  cg2d: iter=    39 ; resid.=  1.30744940335000E-04
(PID.TID 0000.0001)  cg2d: iter=    40 ; resid.=  1.09774525940530E-04
(PID.TID 0000.0001)  cg2d: iter=    41 ; resid.=  9.06882896314749E-05
(PID.TID 0000.0001)  cg2d: iter=    42 ; resid.=  7.55857562170244E-05
(PID.TID 0000.0001)  cg2d: iter=    43 ; resid.=  6.37265353415695E-05
(PID.TID 0000.0001)  cg2d: iter=    44 ; resid.=  5.07025968461109E-05
(PID.TID 0000.0001)  cg2d: iter=    45 ; resid.=  4.28735630052341E-05
(PID.TID 0000.0001)  cg2d: iter=    46 ; resid.=  3.35185287437246E-05
(PID.TID 0000.0001)  cg2d: iter=    47 ; resid.=  2.73748833928656E-05
(PID.TID 0000.0001)  cg2d: iter=    48 ; resid.=  2.55755940596844E-05
(PID.TID 0000.0001)  cg2d: iter=    49 ; resid.=  2.33822038687212E-05
(PID.TID 0000.0001)  cg2d: iter=    50 ; resid.=  1.92589594615533E-05
(PID.TID 0000.0001)  cg2d: iter=    51 ; resid.=  1.70512817536744E-05
(PID.TID 0000.0001)  cg2d: iter=    52 ; resid.=  1.44977108702106E-05
(PID.TID 0000.0001)  cg2d: iter=    53 ; resid.=  1.19356510009191E-05
(PID.TID 0000.0001)  cg2d: iter=    54 ; resid.=  8.69218444421836E-06
(PID.TID 0000.0001)  cg2d: iter=    55 ; resid.=  7.20665118604839E-06
(PID.TID 0000.0001)  cg2d: iter=    56 ; resid.=  6.84330764272150E-06
(PID.TID 0000.0001)  cg2d: iter=    57 ; resid.=  5.97318071305118E-06
(PID.TID 0000.0001)  cg2d: iter=    58 ; resid.=  4.73639084227131E-06
(PID.TID 0000.0001)  cg2d: iter=    59 ; resid.=  3.80337105415286E-06
(PID.TID 0000.0001)  cg2d: iter=    60 ; resid.=  3.20222893069867E-06
(PID.TID 0000.0001)  cg2d: iter=    61 ; resid.=  2.57146897742397E-06
(PID.TID 0000.0001)  cg2d: iter=    62 ; resid.=  2.15302526616864E-06
(PID.TID 0000.0001)  cg2d: iter=    63 ; resid.=  1.80611359094874E-06
(PID.TID 0000.0001)  cg2d: iter=    64 ; resid.=  1.44624783002437E-06
(PID.TID 0000.0001)  cg2d: iter=    65 ; resid.=  1.16881651817473E-06
(PID.TID 0000.0001)  cg2d: iter=    66 ; resid.=  9.56795369864537E-07
(PID.TID 0000.0001)  cg2d: iter=    67 ; resid.=  7.91190407196964E-07
(PID.TID 0000.0001)  cg2d: iter=    68 ; resid.=  6.85013279943093E-07
(PID.TID 0000.0001)  cg2d: iter=    69 ; resid.=  5.65141579995414E-07
(PID.TID 0000.0001)  cg2d: iter=    70 ; resid.=  4.62009973976667E-07
(PID.TID 0000.0001)  cg2d: iter=    71 ; resid.=  3.90087182748107E-07
(PID.TID 0000.0001)  cg2d: iter=    72 ; resid.=  3.54154462142016E-07
(PID.TID 0000.0001)  cg2d: iter=    73 ; resid.=  3.03615908509155E-07
(PID.TID 0000.0001)  cg2d: iter=    74 ; resid.=  2.66717866791628E-07
(PID.TID 0000.0001)  cg2d: iter=    75 ; resid.=  2.23900107253133E-07
(PID.TID 0000.0001)  cg2d: iter=    76 ; resid.=  1.70904406692815E-07
(PID.TID 0000.0001)  cg2d: iter=    77 ; resid.=  1.38065515164996E-07
(PID.TID 0000.0001)  cg2d: iter=    78 ; resid.=  1.12100202727071E-07
(PID.TID 0000.0001)  cg2d: iter=    79 ; resid.=  8.82522505562264E-08
(PID.TID 0000.0001)  cg2d: iter=    80 ; resid.=  6.94079295720601E-08
(PID.TID 0000.0001)  cg2d: iter=    81 ; resid.=  5.31537848539697E-08
(PID.TID 0000.0001)  cg2d: iter=    82 ; resid.=  3.75361126655221E-08
(PID.TID 0000.0001)  cg2d: iter=    83 ; resid.=  2.86161934328653E-08
(PID.TID 0000.0001)  cg2d: iter=    84 ; resid.=  2.13666943292251E-08
(PID.TID 0000.0001)  cg2d: iter=    85 ; resid.=  1.58133446933643E-08
(PID.TID 0000.0001)  cg2d: iter=    86 ; resid.=  1.22665773118572E-08
(PID.TID 0000.0001)  cg2d: iter=    87 ; resid.=  1.03817011623329E-08
(PID.TID 0000.0001)  cg2d: iter=    88 ; resid.=  8.65670508885696E-09
(PID.TID 0000.0001)  cg2d: iter=    89 ; resid.=  7.38337991806184E-09
(PID.TID 0000.0001)  cg2d: iter=    90 ; resid.=  5.98521646615196E-09
(PID.TID 0000.0001)  cg2d: iter=    91 ; resid.=  4.48462045300219E-09
(PID.TID 0000.0001)  cg2d: iter=    92 ; resid.=  3.35452425152109E-09
(PID.TID 0000.0001)  cg2d: iter=    93 ; resid.=  2.43798482365010E-09
(PID.TID 0000.0001)  cg2d: iter=    94 ; resid.=  1.96020088425687E-09
(PID.TID 0000.0001)  cg2d: iter=    95 ; resid.=  1.70225925986207E-09
(PID.TID 0000.0001)  cg2d: iter=    96 ; resid.=  1.30174373619937E-09
(PID.TID 0000.0001)  cg2d: iter=    97 ; resid.=  1.01490793292692E-09
(PID.TID 0000.0001)  cg2d: iter=    98 ; resid.=  8.44333110690864E-10
(PID.TID 0000.0001)  cg2d: iter=    99 ; resid.=  7.75138636362400E-10
(PID.TID 0000.0001)  cg2d: iter=   100 ; resid.=  7.11459847539831E-10
(PID.TID 0000.0001)  cg2d: iter=   101 ; resid.=  5.83805435556190E-10
(PID.TID 0000.0001)  cg2d: iter=   102 ; resid.=  4.52393609033975E-10
(PID.TID 0000.0001)  cg2d: iter=   103 ; resid.=  3.53753960921792E-10
(PID.TID 0000.0001)  cg2d: iter=   104 ; resid.=  2.80185249058991E-10
(PID.TID 0000.0001)  cg2d: iter=   105 ; resid.=  2.18129413739670E-10
(PID.TID 0000.0001)  cg2d: iter=   106 ; resid.=  1.64158854932900E-10
(PID.TID 0000.0001)  cg2d: iter=   107 ; resid.=  1.23604493721759E-10
(PID.TID 0000.0001)  cg2d: iter=   108 ; resid.=  8.85607780166066E-11
(PID.TID 0000.0001)  cg2d: iter=   109 ; resid.=  6.41410609974504E-11
(PID.TID 0000.0001)  cg2d: iter=   110 ; resid.=  5.12930434505274E-11
(PID.TID 0000.0001)  cg2d: iter=   111 ; resid.=  4.00155360493861E-11
(PID.TID 0000.0001)  cg2d: iter=   112 ; resid.=  2.98480290102464E-11
(PID.TID 0000.0001)  cg2d: iter=   113 ; resid.=  2.18702957243232E-11
(PID.TID 0000.0001)  cg2d: iter=   114 ; resid.=  1.78708905997124E-11
(PID.TID 0000.0001)  cg2d: iter=   115 ; resid.=  1.45489056190240E-11
(PID.TID 0000.0001)  cg2d: iter=   116 ; resid.=  1.14424025771633E-11
(PID.TID 0000.0001)  cg2d: iter=   117 ; resid.=  8.83449761441752E-12
(PID.TID 0000.0001)  cg2d: iter=   118 ; resid.=  6.43051593336274E-12
(PID.TID 0000.0001)  cg2d: iter=   119 ; resid.=  4.28329433567707E-12
(PID.TID 0000.0001)  cg2d: iter=   120 ; resid.=  3.33487910882693E-12
(PID.TID 0000.0001)  cg2d: iter=   121 ; resid.=  2.57163687624922E-12
(PID.TID 0000.0001)  cg2d: iter=   122 ; resid.=  1.84719151305917E-12
(PID.TID 0000.0001)  cg2d: iter=   123 ; resid.=  1.42181027578268E-12
(PID.TID 0000.0001)  cg2d: iter=   124 ; resid.=  1.05963654664187E-12
(PID.TID 0000.0001)  cg2d: iter=   125 ; resid.=  7.34832635677730E-13
(PID.TID 0000.0001)  cg2d: iter=   126 ; resid.=  5.15060802001149E-13
(PID.TID 0000.0001)  cg2d: iter=   127 ; resid.=  3.38784215663485E-13
(PID.TID 0000.0001)  cg2d: iter=   128 ; resid.=  2.60999573209324E-13
(PID.TID 0000.0001)  cg2d: iter=   129 ; resid.=  1.87934566875986E-13
(PID.TID 0000.0001)  cg2d: iter=   130 ; resid.=  1.44647970636585E-13
(PID.TID 0000.0001)  cg2d: iter=   131 ; resid.=  1.06641152608897E-13
(PID.TID 0000.0001)  cg2d: iter=   132 ; resid.=  8.15200791570373E-14
DEBUG_STATS_RL:    cg2d_x (SOLVE_FOR_PRESSURE)  min= -1.96071644376244E+01
DEBUG_STATS_RL:    cg2d_x (SOLVE_FOR_PRESSURE)  max=  8.60279126679576E+00
DEBUG_STATS_RL:    cg2d_x (SOLVE_FOR_PRESSURE) mean= -1.86808356243867E+00
DEBUG_STATS_RL:    cg2d_x (SOLVE_FOR_PRESSURE) S.D.=  7.08607617277695E+00
(PID.TID 0000.0001)      cg2d_init_res =   2.22804943474532E-01
(PID.TID 0000.0001)      cg2d_iters(min,last) =      -1     132
(PID.TID 0000.0001)      cg2d_last_res =   8.15200791570373E-14
(PID.TID 0000.0001) // =======================================================
(PID.TID 0000.0001) // Begin MONITOR dynamic field statistics
(PID.TID 0000.0001) // =======================================================
(PID.TID 0000.0001) %MON time_tsnumber                =                    90
(PID.TID 0000.0001) %MON time_secondsf                =   7.7760000000000E+06
(PID.TID 0000.0001) %MON dynstat_eta_max              =   8.7694100578962E-01
(PID.TID 0000.0001) %MON dynstat_eta_min              =  -1.9986915838558E+00
(PID.TID 0000.0001) %MON dynstat_eta_mean             =  -5.7740820846323E-03
(PID.TID 0000.0001) %MON dynstat_eta_sd               =   6.1877905825342E-01
(PID.TID 0000.0001) %MON dynstat_eta_del2             =   2.6018316748217E-03
(PID.TID 0000.0001) %MON dynstat_uvel_max             =   1.4353335703712E-01
(PID.TID 0000.0001) %MON dynstat_uvel_min             =  -1.4078221640365E-01
(PID.TID 0000.0001) %MON dynstat_uvel_mean            =   2.1809714109998E-03
(PID.TID 0000.0001) %MON dynstat_uvel_sd              =   1.5919193378243E-02
(PID.TID 0000.0001) %MON dynstat_uvel_del2            =   1.1954502292982E-04
(PID.TID 0000.0001) %MON dynstat_vvel_max             =   1.4869631083478E-01
(PID.TID 0000.0001) %MON dynstat_vvel_min             =  -9.9091349479597E-02
(PID.TID 0000.0001) %MON dynstat_vvel_mean            =   9.5625754469788E-05
(PID.TID 0000.0001) %MON dynstat_vvel_sd              =   8.8528266869538E-03
(PID.TID 0000.0001) %MON dynstat_vvel_del2            =   8.2710905653346E-05
(PID.TID 0000.0001) %MON dynstat_wvel_max             =   1.6584951029668E-04
(PID.TID 0000.0001) %MON dynstat_wvel_min             =  -6.4095009278194E-05
(PID.TID 0000.0001) %MON dynstat_wvel_mean            =   4.0644227349162E-23
(PID.TID 0000.0001) %MON dynstat_wvel_sd              =   1.1385008050006E-05
(PID.TID 0000.0001) %MON dynstat_wvel_del2            =   1.1031950731553E-07
(PID.TID 0000.0001) %MON dynstat_theta_max            =   3.1210901711201E+01
(PID.TID 0000.0001) %MON dynstat_theta_min            =  -1.9341842297502E+00
(PID.TID 0000.0001) %MON dynstat_theta_mean           =   3.6442072835176E+00
(PID.TID 0000.0001) %MON dynstat_theta_sd             =   4.4288110029259E+00
(PID.TID 0000.0001) %MON dynstat_theta_del2           =   4.8417958389230E-03
(PID.TID 0000.0001) %MON dynstat_salt_max             =   3.7486015410282E+01
(PID.TID 0000.0001) %MON dynstat_salt_min             =   2.9960034183059E+01
(PID.TID 0000.0001) %MON dynstat_salt_mean            =   3.4737999116603E+01
(PID.TID 0000.0001) %MON dynstat_salt_sd              =   2.9663673092291E-01
(PID.TID 0000.0001) %MON dynstat_salt_del2            =   9.9792568543164E-04
(PID.TID 0000.0001) %MON dynstat_sst_max              =   3.1210901711201E+01
(PID.TID 0000.0001) %MON dynstat_sst_min              =  -1.9341842297502E+00
(PID.TID 0000.0001) %MON dynstat_sst_mean             =   1.9069754835357E+01
(PID.TID 0000.0001) %MON dynstat_sst_sd               =   9.2566416445251E+00
(PID.TID 0000.0001) %MON dynstat_sst_del2             =   2.9305814301646E-02
(PID.TID 0000.0001) %MON dynstat_sss_max              =   3.7486015410282E+01
(PID.TID 0000.0001) %MON dynstat_sss_min              =   2.9960034183059E+01
(PID.TID 0000.0001) %MON dynstat_sss_mean             =   3.4857601429907E+01
(PID.TID 0000.0001) %MON dynstat_sss_sd               =   9.9103173544828E-01
(PID.TID 0000.0001) %MON dynstat_sss_del2             =   8.2967028297631E-03
(PID.TID 0000.0001) %MON forcing_qnet_max             =   2.0863440348307E+02
(PID.TID 0000.0001) %MON forcing_qnet_min             =  -1.5786364237467E+02
(PID.TID 0000.0001) %MON forcing_qnet_mean            =  -1.7065559845698E+00
(PID.TID 0000.0001) %MON forcing_qnet_sd              =   3.9345736238707E+01
(PID.TID 0000.0001) %MON forcing_qnet_del2            =   7.8520764018377E-01
(PID.TID 0000.0001) %MON forcing_qsw_max              =   0.0000000000000E+00
(PID.TID 0000.0001) %MON forcing_qsw_min              =   0.0000000000000E+00
(PID.TID 0000.0001) %MON forcing_qsw_mean             =   0.0000000000000E+00
(PID.TID 0000.0001) %MON forcing_qsw_sd               =   0.0000000000000E+00
(PID.TID 0000.0001) %MON forcing_qsw_del2             =   0.0000000000000E+00
(PID.TID 0000.0001) %MON forcing_empmr_max            =   6.7762427609826E-05
(PID.TID 0000.0001) %MON forcing_empmr_min            =  -8.3472262701889E-05
(PID.TID 0000.0001) %MON forcing_empmr_mean           =   2.3647594609277E-07
(PID.TID 0000.0001) %MON forcing_empmr_sd             =   2.5588502568847E-05
(PID.TID 0000.0001) %MON forcing_empmr_del2           =   3.6361092950638E-07
(PID.TID 0000.0001) %MON forcing_fu_max               =   3.4838171601295E-01
(PID.TID 0000.0001) %MON forcing_fu_min               =  -4.0161942839622E-01
(PID.TID 0000.0001) %MON forcing_fu_mean              =   1.8676039943328E-02
(PID.TID 0000.0001) %MON forcing_fu_sd                =   1.0030398135610E-01
(PID.TID 0000.0001) %MON forcing_fu_del2              =   7.7661497197637E-04
(PID.TID 0000.0001) %MON forcing_fv_max               =   1.8195632894834E-01
(PID.TID 0000.0001) %MON forcing_fv_min               =  -1.4562365015348E-01
(PID.TID 0000.0001) %MON forcing_fv_mean              =  -7.0189020268222E-03
(PID.TID 0000.0001) %MON forcing_fv_sd                =   3.8838554387626E-02
(PID.TID 0000.0001) %MON forcing_fv_del2              =   4.1811090198709E-04
(PID.TID 0000.0001) %MON trAdv_CFL_u_max              =   4.8079514154710E-02
(PID.TID 0000.0001) %MON trAdv_CFL_v_max              =   2.9022520759705E-02
(PID.TID 0000.0001) %MON trAdv_CFL_w_max              =   3.9345717112277E-02
(PID.TID 0000.0001) %MON advcfl_uvel_max              =   4.8582256840366E-02
(PID.TID 0000.0001) %MON advcfl_vvel_max              =   2.8889308393087E-02
(PID.TID 0000.0001) %MON advcfl_wvel_max              =   3.8724288355678E-02
(PID.TID 0000.0001) %MON advcfl_W_hf_max              =   4.1571662499478E-02
(PID.TID 0000.0001) %MON pe_b_mean                    =   4.8999339868895E-04
(PID.TID 0000.0001) %MON ke_max                       =   1.1696908373086E-02
(PID.TID 0000.0001) %MON ke_mean                      =   1.5248285315735E-04
(PID.TID 0000.0001) %MON ke_vol                       =   1.3226782436723E+18
(PID.TID 0000.0001) %MON vort_r_min                   =  -3.7864404004104E-07
(PID.TID 0000.0001) %MON vort_r_max                   =   4.7002817487003E-07
(PID.TID 0000.0001) %MON vort_a_mean                  =  -2.5274807312330E-05
(PID.TID 0000.0001) %MON vort_a_sd                    =   7.3604600115203E-05
(PID.TID 0000.0001) %MON vort_p_mean                  =  -3.1845655692221E-05
(PID.TID 0000.0001) %MON vort_p_sd                    =   1.3162472169083E-04
(PID.TID 0000.0001) %MON surfExpan_theta_mean         =  -5.2526870050735E-07
(PID.TID 0000.0001) %MON surfExpan_salt_mean          =   1.6826983415032E-07
(PID.TID 0000.0001) // =======================================================
(PID.TID 0000.0001) // End MONITOR dynamic field statistics
(PID.TID 0000.0001) // =======================================================
(PID.TID 0000.0001) // =======================================================
(PID.TID 0000.0001) // Field Current uVel   at iteration         90
(PID.TID 0000.0001) // CMIN =         -1.407822164036489E-01
(PID.TID 0000.0001) // CMAX =          1.435333570371209E-01
(PID.TID 0000.0001) // CINT =          1.053020642373221E-02
(PID.TID 0000.0001) // SYMBOLS (CMIN->CMAX): -abcdefghijklmnopqrstuvwxyz+
(PID.TID 0000.0001) //                  0.0: .
(PID.TID 0000.0001) // RANGE I (Lo:Hi:Step):(     1:    90:     1)
(PID.TID 0000.0001) // RANGE J (Lo:Hi:Step):(    40:     1:    -1)
(PID.TID 0000.0001) // RANGE K (Lo:Hi:Step):(   1:   1:   1)
(PID.TID 0000.0001) // =======================================================
(PID.TID 0000.0001) K =   1
(PID.TID 0000.0001)                I=10      I=20      I=30      I=40      I=50      I=60      I=70      I=80      I=90
(PID.TID 0000.0001) |--J--|123456789|123456789|123456789|123456789|123456789|123456789|123456789|123456789|123456789|
(PID.TID 0000.0001)     40 mnmmm..mmmmmmnnnnnn...................................................................mmmm
(PID.TID 0000.0001)     39 nnnnnoooooooon....m......................................................mmm.........lkklm
(PID.TID 0000.0001)     38 nooonnmmmmmnn............................................................mnnm.......lllmmn
(PID.TID 0000.0001)     37 opo...................................................................m....lm....kllm..noo
(PID.TID 0000.0001)     36 po..........................................llm.....................nmmmmmlkkl..jklmnnoppp
(PID.TID 0000.0001)     35 on..................................mmm...mllmmm....lllm............mm.....nnmmkkmnnnnnppo
(PID.TID 0000.0001)     34 ....................................mmm..mmnnnnn..mllmnnn...................oqpppoooooon..
(PID.TID 0000.0001)     33 .....................................nonnnoppppponnooppooon..................ssrrqqponmml.
(PID.TID 0000.0001)     32 .....................................mnonoopqqqqpppqqqqqqpo.................tuusrrqpnmlmm.
(PID.TID 0000.0001)     31 .....................................nppqqqqqqqqqqqrrrqqqpo...............osttvutrqponmn..
(PID.TID 0000.0001)     30 ....................................rttuutttsrrrrrrqqqppoon.............orssstttsrqpooon..
(PID.TID 0000.0001)     29 ..................................osuuuuuttssrrqqqpoonnmmmnm............sssqppppppponoon..
(PID.TID 0000.0001)     28 ................................qrssrrrqqppoopponnnnnmmmmmmmm..........rsqonmmnnnoonnnmn..
(PID.TID 0000.0001)     27 ...............n...............rtrponooooonnnnnmmmnnnmmlllkkkl....mmn..qpooonnnnmmmmml....
(PID.TID 0000.0001)     26 ...............mo............kkmmlkjjkklllllkkkjjkkkkjiiiihhikmm..mmmmnnllmmmlkkkkjihi....
(PID.TID 0000.0001)     25 ...............pon....nn....kiikkihhhhhhghhhgggghhhihgghhhijklnnn....lkkghkkkjjkkkkjjj....
(PID.TID 0000.0001)     24 .............orsrpm..opo....oo..nmkijjiijkkkkkklmlllllmnnoopppoononm..mnllnopppppqqqpp....
(PID.TID 0000.0001)     23 .............qqoonm..mmn....on...ljijjjjklllmmnoonmmnoqrrrrrpommmnnnn.....ooppnnopqrrp....
(PID.TID 0000.0001)     22 o............jgdeedeighk....m..jhhhgffffgfefhhhijjijkloqqqqonnllkkkkjk.......mhffgjmpoqpoo
(PID.TID 0000.0001)     21 opp.........iggedc-bdgilm......kinmkihhghhgfgghhhhiiiilnonmllnnoonmkkl.........gbbfkmmorqp
(PID.TID 0000.0001)     20 non........mkmnnmkghjmnpo.........onnnnlnoonmmmllkjjjikkkjihjkmnnmkkjl..........hdfijjknmm
(PID.TID 0000.0001)     19 jmm........kjjmnnmjjkmmmnnm....in......poprrrqqpomkkjjkkjhhhgghihgghhj............ihhhijii
(PID.TID 0000.0001)     18 jkm........lhehihjijjijkkkjiiihhl....lmnmmnpponnmljjiiijiiiiihiihgghhjk...........lkjjjjii
(PID.TID 0000.0001)     17 lll..........igggigijhjkkkjjjjk......mmllklmmlkkklljiiijjijjjjkkjjjklll..........nmlkjjjjk
(PID.TID 0000.0001)     16 iij.......n..nkjjjijjkjklllmll........mmmmmlmmlllmnmlllkjjjkjjjjjjkklkkl.........onljiihii
(PID.TID 0000.0001)     15 fefj.....nn..onnmlnnmnnnnmmmm..........llnnmnonooopoonmmllllkjkkjjjiihhil.......nonmkjiihh
(PID.TID 0000.0001)     14 hggh.....kkjklmnnmoonnmmmnllm..........llmmnopopopppponnnnmmlllkjkkjjihik......jkmmllkjjii
(PID.TID 0000.0001)     13 kkji.....nmkkkkllmnnmmlmnnmll..........nmnnoopoppppoooooppoooonmlmmmmmllm.....kmmnmmmmmmll
(PID.TID 0000.0001)     12 ponlmqmmmqqoonnooooooooppponnmmmml.....oponmopoppppooopppqqrrrpoooppponm......prrrrqqqqqqq
(PID.TID 0000.0001)     11 tsrqpooqtwwwwwvuttttsssttsrrqqqqpnm...oppol..oopooooooooopqqrqqpppqqqpom.....ortuvvvvuuttu
(PID.TID 0000.0001)     10 utssrstvwxz+++zyxyzywuuvuutsssrrqpnm..ooonl..nonnmmnnnnnnnnoppppppppponn...qpprtuvwwxxwvvv
(PID.TID 0000.0001)      9 uttttuuvvwwvuvvvuuwwvuuuuuttssssrrqpoonnnn..pnnnnnnnnnoooonooooooooonnmk..mkmpqsttuvwwwwwv
(PID.TID 0000.0001)      8 tuvvuttttttsssssrqqsuuuutuuutttttuuuttssrpnpppppqqrrrrqrrrrqqqqqqpppponm..nlnpqqrstttuvvuu
(PID.TID 0000.0001)      7 stttssrssssssrrrssrqsssrssssttttuvvwwwvwwwwussssttuvwwwvvuuttssttsssssrsrrsrrssrrrssssssss
(PID.TID 0000.0001)      6 ppppppqqrrrrqqqqrrrpoooppppqrrstttttttuvwyyxvuuuvvwwxyyxwvutttuuuuuuvvvwyyyzzyvtsrqqqqqqqq
(PID.TID 0000.0001)      5 nmmmmnnnooonnnnnnoonnmmmmmmnooppppqqqqrstuvvvvuvvvvvutttsssttttttttuuuvvvuttutrqppoooooonn
(PID.TID 0000.0001)      4 kkkkkllllllmmmmmmnnnnmmllllmmmmmmmmmnnnnooppqrrrrrqqponnopqqqqqqqqqqqqqqpo...mnnmmmmmmmlll
(PID.TID 0000.0001)      3 llmmmmmmmm.............................mmmmlmnnnnmmmlllmmmnnoooooonnnnnnn...mlllllllmmmmml
(PID.TID 0000.0001)      2 ...........................................mmmmmmmlllllllmmmmmmm...mmm......mmmmmmmmmmm...
(PID.TID 0000.0001)      1 ..........................................................................................
(PID.TID 0000.0001) // =======================================================
(PID.TID 0000.0001) // END OF FIELD                                          =
(PID.TID 0000.0001) // =======================================================
(PID.TID 0000.0001) 
(PID.TID 0000.0001) // =======================================================
(PID.TID 0000.0001) // Field Current vVel   at iteration         90
(PID.TID 0000.0001) // CMIN =         -9.909134947959652E-02
(PID.TID 0000.0001) // CMAX =          1.486963108347797E-01
(PID.TID 0000.0001) // CINT =          9.177320752384305E-03
(PID.TID 0000.0001) // SYMBOLS (CMIN->CMAX): -abcdefghijklmnopqrstuvwxyz+
(PID.TID 0000.0001) //                  0.0: .
(PID.TID 0000.0001) // RANGE I (Lo:Hi:Step):(     1:    90:     1)
(PID.TID 0000.0001) // RANGE J (Lo:Hi:Step):(    40:     1:    -1)
(PID.TID 0000.0001) // RANGE K (Lo:Hi:Step):(   1:   1:   1)
(PID.TID 0000.0001) // =======================================================
(PID.TID 0000.0001) K =   1
(PID.TID 0000.0001)                I=10      I=20      I=30      I=40      I=50      I=60      I=70      I=80      I=90
(PID.TID 0000.0001) |--J--|123456789|123456789|123456789|123456789|123456789|123456789|123456789|123456789|123456789|
(PID.TID 0000.0001)     40 jknnl.ljjkkkll...kj..................................................................jjjjj
(PID.TID 0000.0001)     39 kklmmkkjjjjjk...........................................................kjjk........hjjkkk
(PID.TID 0000.0001)     38 kmn.......................................................................jjk......lj.mlkk
(PID.TID 0000.0001)     37 mo...................................................................kk...jjk...glpnl.mmkk
(PID.TID 0000.0001)     36 kl.........................................lmml....................ljj....hijj.dgmonmlkkkj
(PID.TID 0000.0001)     35 ...................................kkkk..klmmmmm...ghlnm...................hjiiikmmmllmm..
(PID.TID 0000.0001)     34 ....................................kjh.jkkkkkkk.hhhikllk...................igiijlllljkk..
(PID.TID 0000.0001)     33 ....................................mhghjjjiiihhhggghhiiiji.................rijjiijjigfjk.
(PID.TID 0000.0001)     32 ....................................mjhhiihgggfeffefggghhhi................vriihhgggfffj..
(PID.TID 0000.0001)     31 ....................................mkiihhhgggfffgghhiiihhh..............mnlihhghhhhhhik..
(PID.TID 0000.0001)     30 ...................................molkjkkjiijjjjjjjkkkkjhg............mpnnkiiihijjiijkl..
(PID.TID 0000.0001)     29 .................................nnnmkkklmljjklllkkkllkkjihh...........oomkjiiijjjjjjkml..
(PID.TID 0000.0001)     28 ...............................pnmlkjjjjkkjiijjkllllllkjjjihi.........mmkiihhghjkkkkkk....
(PID.TID 0000.0001)     27 ..............jk..............qpmlkjjkklmlkjkkklnnnnnmmllkjihi...klnn.nkiihiijklmmmmlj....
(PID.TID 0000.0001)     26 ..............jll...........hjnolklllnoponmmnnoooonmnnmllkjjiijk....nmlikkjkklmmnmlkji....
(PID.TID 0000.0001)     25 ..............lmmk...lmk...ggk.mhiknnpqponmmmmnmnnmlllkkkjjjkkkkj....llkjghghhjkkkiiii....
(PID.TID 0000.0001)     24 ............nqstqnn.nool...lkm..hfjlmoooopooopoopoomlmmmmnnnnnmljjkk.....ljklmoppoonmk....
(PID.TID 0000.0001)     23 ............twxxtqq.opqm...mm...hinqstuvvvwwwwwwwvvtstuvwwvutrqonnnml.......stvwxxwuqk....
(PID.TID 0000.0001)     22 k...........rwxurnnjknqp......kghlrvxz+zwutuuutttttsssstttssrponlmmmkh........rsvyxvtqnlkk
(PID.TID 0000.0001)     21 jjl........mnppmjihghikkf......b.knruvwtqomllllllmmmmmmnnnnnlkjjjkkkjh.........mqvtqpmllkj
(PID.TID 0000.0001)     20 hjl.......mmnmjfeeefggffd......-......nlkllkjjjiihhiihhhhffeeecdeffggg...........sojhgffff
(PID.TID 0000.0001)     19 fhj.......mnqpljjihijkjhhkl...ghk.....nmmnoonoonljijkkjjhfffedcccddegi...........nmhfeddef
(PID.TID 0000.0001)     18 ijj.......m.rtonlkjklmmkkllkjih.....kkllllnppppppnllmnnnmlllkjjigffgijk..........mpmlkjiii
(PID.TID 0000.0001)     17 nml.......m.nqljhiijjhjjihhhhi.......jihhikmmkkkllkkkkklkkkkllllkjjkmml.........kkmmnnmmmn
(PID.TID 0000.0001)     16 lml......im.jihghgfhffghhgggh.........hedfijiiiiiiiiijjjjjkkkkkkjjjkmnmk........kjjjklkkkl
(PID.TID 0000.0001)     15 jjkj....jjm.iijjigikighjjiifh.........jffhiiklkjijjjjkjjjklkklmlkjkkllmlk......jjllklmlllk
(PID.TID 0000.0001)     14 klmj....ghlkikllkikmkjjlllkii.........igijjjklmlkjkkkkkkjkkjkmlkkkkkkkllj.....ehjlmllllmnl
(PID.TID 0000.0001)     13 llmk....bgjhhijjjiijiijkmlkkk.........ghijjkjkkkjjiiiiiiihhhijjjllkkkkmm.....gehiijijjklml
(PID.TID 0000.0001)     12 mmmlkfcedhkjhillllllkjkmnmmlkjiijm....hiiig.jkkjjihhiiiiihiiihhjmmllllml.....hhhijjiijklmm
(PID.TID 0000.0001)     11 ppoomkjjjlnomlnoppopoopppppomllkklm..jijjii.lllklkjjjjklmlllkjjmpponnmmk....lkmmlllllmnopq
(PID.TID 0000.0001)     10 qqqrqonmorssqppqssppqrssrrrqponnmmop.lklkj..rolklmmmmmmmnooonmmorrqponlk..qtnorqpooonnprrr
(PID.TID 0000.0001)      9 pppqrpmmorsrrqontwplnprrrqqqponmmlnqpmkllm.pqnllllllmnmnnoponmnoqqpoonjk.jprqrtrpooonnprrq
(PID.TID 0000.0001)      8 ooooonmmnnoppnmlowuonnoooooonnnmllmooliijlqsonmlmlkkllmmmmmmlllmoonmmlim.imprttsononmmnoqq
(PID.TID 0000.0001)      7 oonmllmmmmnonmlllosrpnmnnnmmmmmmmmnonkihiknponnmnnmmmlkllkklllllmmmllkkknpoqssrqoonmmmnnop
(PID.TID 0000.0001)      6 nmlkllmmmmllllkklmnonmmmlkkllmmlllmnmlkkklmmmnooooppomkkjjjlllllmmmlllmnpppqpoonmmmmlmmnmm
(PID.TID 0000.0001)      5 kjjjkkkkkjjjjiiijkkkkkjiijjjjjjjjjjkkkkkkllkklnooooonmkkjjkllllllmmmllmmmm..nlmlllllllllkk
(PID.TID 0000.0001)      4 hgghhhghhi............................jijkkjkklmmmmlkkjjkkkkkkkjkkllkkjkk...mlkkkkkkkjjiih
(PID.TID 0000.0001)      3 ..........................................jjjjjkkjjjjiijjjjiiiij..kjjj.....kklkjjjjjjii...
(PID.TID 0000.0001)      2 ..........................................................................................
(PID.TID 0000.0001)      1 ..........................................................................................
(PID.TID 0000.0001) // =======================================================
(PID.TID 0000.0001) // END OF FIELD                                          =
(PID.TID 0000.0001) // =======================================================
(PID.TID 0000.0001) 
(PID.TID 0000.0001) // =======================================================
(PID.TID 0000.0001) // Field Current theta  at iteration         90
(PID.TID 0000.0001) // CMIN =         -1.934184229750222E+00
(PID.TID 0000.0001) // CMAX =          3.121090171120100E+01
(PID.TID 0000.0001) // CINT =          1.227595775590786E+00
(PID.TID 0000.0001) // SYMBOLS (CMIN->CMAX): -abcdefghijklmnopqrstuvwxyz+
(PID.TID 0000.0001) //                  0.0: .
(PID.TID 0000.0001) // RANGE I (Lo:Hi:Step):(     1:    90:     1)
(PID.TID 0000.0001) // RANGE J (Lo:Hi:Step):(    40:     1:    -1)
(PID.TID 0000.0001) // RANGE K (Lo:Hi:Step):(   1:   1:   1)
(PID.TID 0000.0001) // =======================================================
(PID.TID 0000.0001) K =   1
(PID.TID 0000.0001)                I=10      I=20      I=30      I=40      I=50      I=60      I=70      I=80      I=90
(PID.TID 0000.0001) |--J--|123456789|123456789|123456789|123456789|123456789|123456789|123456789|123456789|123456789|
(PID.TID 0000.0001)     40 -bbccb--------abcddbbbbbbbbbbbbbbbbbbbbbbbbbbbbbbbbbbbbbbbbbbbbbbbbbbbbbbbbbbbbbbbbbbaa---
(PID.TID 0000.0001)     39 bbccccbbaa----bbbddbbbbbbbbbbbbbbbbbbbbbbbbbbbbbbbbbbbbbbbbbbbbbbbbbbbbb----bbbbbbbbaaaaaa
(PID.TID 0000.0001)     38 deeeeecbcbaa-bbbbbbbbbbbbbbbbbbbbbbbbbbbbbbbbbbbbbbbbbbbbbbbbbbbbbbbbbbb-----bbbbbba--abcc
(PID.TID 0000.0001)     37 efgbbbbbbbbbbbbbbbbbbbbbbbbbbbbbbbbbbbbbbbbbbbbbbbbbbbbbbbbbbbbbbbbbbbbbbba-abbbbbeeebcdde
(PID.TID 0000.0001)     36 ggbbbbbbbbbbbbbbbbbbbbbbbbbbbbbbbbbbbbbbbbbba--bbbbbbbbbbbbbbbbbbbbcccbbaaabacbceffghhhggg
(PID.TID 0000.0001)     35 ffbbbbbbbbbbbbbbbbbbbbbbbbbbbbbbbbb----bbabcccb-bbbddeefbbbbbbbbbbbbbbbbbbbcddddeffhhiiihg
(PID.TID 0000.0001)     34 bbbbbbbbbbbbbbbbbbbbbbbbbbbbbbbbbbb----bacccccccbccedefffbbbbbbbbbbbbbbbbbbbabdeefghiijibb
(PID.TID 0000.0001)     33 bbbbbbbbbbbbbbbbbbbbbbbbbbbbbbbbbbbb--abbcccccdddeeeefffgghbbbbbbbbbbbbbbbbbaabfhijjjjjjjb
(PID.TID 0000.0001)     32 bbbbbbbbbbbbbbbbbbbbbbbbbbbbbbbbbbbb-abbccddddeefffgggghhhibbbbbbbbbbbbbbbbedb-ikklllkkkjb
(PID.TID 0000.0001)     31 bbbbbbbbbbbbbbbbbbbbbbbbbbbbbbbbbbbbdeefgggghihhhhhiijjjjjjbbbbbbbbbbbbbbhilkgjlmmmmmllmbb
(PID.TID 0000.0001)     30 bbbbbbbbbbbbbbbbbbbbbbbbbbbbbbbbbbbkkjjjjkkkkkkkkkkkllmmmllbbbbbbbbbbbbmmmoooooooooonnnnbb
(PID.TID 0000.0001)     29 bbbbbbbbbbbbbbbbbbbbbbbbbbbbbbbbbnnnnnmmmnnmnnnnnnnnnooonnmmbbbbbbbbbbbopqqppppppppooooobb
(PID.TID 0000.0001)     28 bbbbbbbbbbbbbbbbbbbbbbbbbbbbbbbmopppppoooppppppppppppqqpponnnbbbbbbbbbqrrrqqrqqqqqppppppbb
(PID.TID 0000.0001)     27 bbbbbbbbbbbbbbuubbbbbbbbbbbbbbqqrrrrrrrrrssrrsrrsssrrrrqqqpoopbbbrrrsbstttsttssssrrrqqbbbb
(PID.TID 0000.0001)     26 bbbbbbbbbbbbbbuttbbbbbbbbbbbsstttttuuuuuuuuuttttttttsssrrrqppqsubstuvuuuuuuuuttttsrrqqbbbb
(PID.TID 0000.0001)     25 bbbbbbbbbbbbbbuuvvbbbwwwbbbuuvvvvvvwwwwvvvvvuuuuuuuutttsssrrsstvwbbbvvvvvvvuuuuttsrrqqbbbb
(PID.TID 0000.0001)     24 bbbbbbbbbbbbwvvwxxybwwxxbbbwwwbwwwwwwwwwwwvvvvvvvvuuvvvvvvvvvvvwwvvwbwvvvvuuuuuuttttttbbbb
(PID.TID 0000.0001)     23 bbbbbbbbbbbbwwxxxyzbwxxxbbbxwwbbwxxxxxxxxxwwwwwwwwwwwwwwwwwwwwwwwwwxwbbbbwvvvvvvvvvwwwbbbb
(PID.TID 0000.0001)     22 wbbbbbbbbbbbwwwxxyyxxxyzbbbxxbzyxxxyyyyyyyxxxxxxxxxxxxxwwwwwwwwwwwwvvvbbbbbbxwwwwxxxxyyyxw
(PID.TID 0000.0001)     21 vvvbbbbbbbbxxxxxxxyxyyzz+bbbbbzyzzzzzzzzzzzyyyyyyyyyyyxxxxxxxxxxxxwvvvbbbbbbbbxxxyyyyyzyxw
(PID.TID 0000.0001)     20 wvvbbbbbbbyyyyyyyyyyyzzz+bbbbbbzbzzzzz+zz++zzzzzzzzzyyyxxxxxxxxxwxxwwvbbbbbbbbbyyyxxxxxxww
(PID.TID 0000.0001)     19 vvwbbbbbbbzzzyyyyyyyyyzyzzybbbzzzbbbbbz+zz++zzzzzzzzyyyxxxxxwwwvvwvvvvbbbbbbbbbbbxxwwwwvvv
(PID.TID 0000.0001)     18 uuubbbbbbbzzxxxyyyyyyyyyzyzzzz+zzbbb++zzzzzzzzzzzzzzyyyyxxxxwwwvvvvuuutbbbbbbbbbbyxxwwvvwv
(PID.TID 0000.0001)     17 uutbbbbbbbzbyxxxxxxxxxxxyyyyyzzbbbbbyyyyzzzzzzzzyyyyyxxxxxxxwwwvuvvuttvbbbbbbbbbxxyxxvuvvv
(PID.TID 0000.0001)     16 ttsbbbbbbyzbxxxxwwwwwwwwwwxxyzbbbbbbbxxxyyyyyyyyyyyyyyxxxxxxxwwvvvvuutstbbbbbbbbxyyxxwvvvu
(PID.TID 0000.0001)     15 tsrrbbbbwxxbwwwwwvvvvvvvuuvvwbbbbbbbbbvwwxxxxxxxxxxxxxxxxxyxxwvvvvuutsssrbbbbbbxxxxxxwwvuu
(PID.TID 0000.0001)     14 tsqqbbbbwxwvvwwvvwvvutuutttttbbbbbbbbbvvvvwwwwwwwwwxxxwwxxxxwwvvvvuutsssrbbbbbvwxxwxxwwwvu
(PID.TID 0000.0001)     13 utsqbbbbvwvvvvuuuvvuuuutsssssbbbbbbbbbuuuvvvvvvvvvuuvvvvvwwwwwvvuuuutssspbbbbuvwwwvwwwwvvu
(PID.TID 0000.0001)     12 sssrssqsuuuttutssssssttrrrrrqqqrrqbbbbsttttttttsssssttttttuuuttttsstssrrbbbbbtvvvutuuuttst
(PID.TID 0000.0001)     11 qpppqqrrrsrqqrrqqppopqqpppppppqqqqqbbssssssbrrrqqrrrrrrrrrssqqqrqqqrrrqpbbbboqssssrrsrrqqq
(PID.TID 0000.0001)     10 mmlllmnoppoooponmmmnmmnmlmlllmnooooobqrqqqqbppqqqqqppppppppooopoonnoopoobbnppppoooonoppoon
(PID.TID 0000.0001)      9 jjjiiijkkjjkkkkjjiijjjjiiiijiijkkmnmmmooopbnnnnoooooooooonmmmmmmmllllmmmbmmnnmlllllkkllkjj
(PID.TID 0000.0001)      8 fgggggghhggghiiihgghhhhggghhhhiijjjjjjklllmlllllllllmllllkkkjjjkkjjjjklkbkkkkjjjiiihhhhggf
(PID.TID 0000.0001)      7 eeeeeefffgfffggggfffffeeeefgggggghhgghiijjjjjjjkkjjjiiiiiiiiiihhiiiiiiijiiiiihhggfffffeeee
(PID.TID 0000.0001)      6 cdddeeeeeeeeeeeeeeeeeeeeeeeeddeeefeefggghhhhhhhhihhgffggfggfffffgggggghhhhhhggffeeeeeddddd
(PID.TID 0000.0001)      5 ddddddddddeeeeeeeeddddddddddddeeeeeeeeeeffffffeeefeeddeeeeeeedeeeeeefffeeeedeeddddddcccccc
(PID.TID 0000.0001)      4 cdddcccccccccccbbccccccbbbbbcccccbbbbcccccdddcccccccccccccccccdddcccdddddcbbbbabcccccccccc
(PID.TID 0000.0001)      3 cccbbbbaaabbbbbbbbbbbbbbbbbbbbbbbbbbbbbbaaaabbbbbbbbbbbbbbaabbbbbbaabbbbbbbbaaaaabbcccbbbb
(PID.TID 0000.0001)      2 bbbbbbbbbbbbbbbbbbbbbbbbbbbbbbbbbbbbbbbbbbaaabbbbbbbbaaaaaaaaaaabbaaaabbbbbaaaaaaabbbbbbbb
(PID.TID 0000.0001)      1 bbbbbbbbbbbbbbbbbbbbbbbbbbbbbbbbbbbbbbbbbbbbbbbbbbbbbbbbbbbbbbbbbbbbbbbbbbbbbbbbbbbbbbbbbb
(PID.TID 0000.0001) // =======================================================
(PID.TID 0000.0001) // END OF FIELD                                          =
(PID.TID 0000.0001) // =======================================================
(PID.TID 0000.0001) 
(PID.TID 0000.0001) // =======================================================
(PID.TID 0000.0001) // Field Current etaN   at iteration         90
(PID.TID 0000.0001) // CMIN =         -1.998691583855779E+00
(PID.TID 0000.0001) // CMAX =          8.769410057896165E-01
(PID.TID 0000.0001) // CINT =          1.065049107276072E-01
(PID.TID 0000.0001) // SYMBOLS (CMIN->CMAX): -abcdefghijklmnopqrstuvwxyz+
(PID.TID 0000.0001) //                  0.0: .
(PID.TID 0000.0001) // RANGE I (Lo:Hi:Step):(    -1:    92:     1)
(PID.TID 0000.0001) // RANGE J (Lo:Hi:Step):(    42:    -1:    -1)
(PID.TID 0000.0001) // RANGE K (Lo:Hi:Step):(   1:   1:   1)
(PID.TID 0000.0001) // =======================================================
(PID.TID 0000.0001) K =   1
(PID.TID 0000.0001)                I=8       I=18      I=28      I=38      I=48      I=58      I=68      I=78      I=88
(PID.TID 0000.0001) |--J--|101234567|901234567|901234567|901234567|901234567|901234567|901234567|901234567|901234567|9012
(PID.TID 0000.0001)     42 ............................................ccbccccccddddddddddeee..feee.....bcccbcccccbb.....
(PID.TID 0000.0001)     41 ..............................................................................................
(PID.TID 0000.0001)     40 mllllmm.kjjjiiiiiiiii..................................................................lmmmlll
(PID.TID 0000.0001)     39 lllllllllkkkjjjj...ii.....................................................eeee........mmmlllll
(PID.TID 0000.0001)     38 llllmmmllllllll...........................................................fffff......nllllllll
(PID.TID 0000.0001)     37 mmmmn..................................................................ih...hgg...klkml.lmmmmm
(PID.TID 0000.0001)     36 mnno.........................................oooo....................kkjjihggghg.liijllnmmmnno
(PID.TID 0000.0001)     35 oooo.................................rrrq..nnoooop...trrss...........lkk....hggghhhijklmnnoooo
(PID.TID 0000.0001)     34 .....................................rqqq.ooooooop.qqqqqrsu..................iiihhijklmnoq....
(PID.TID 0000.0001)     33 p.....................................rrppooooopppqqqqqqrsttu.................lkjkklmnoooop...
(PID.TID 0000.0001)     32 q.....................................srqppppppqqqqrrrrsssttt................kpnmmnoopppppq...
(PID.TID 0000.0001)     31 ......................................qqqqqqqrrrrrrsssstttutu..............opqqpoopppppppp....
(PID.TID 0000.0001)     30 .....................................qrssssssssstttttttuuuuuu............lopqrsrrrrrqqqqqq....
(PID.TID 0000.0001)     29 ...................................sttvvvvuvvvuuuuuuuuuvvvvvut...........orstttssssrrqqqqq....
(PID.TID 0000.0001)     28 .................................uvvwxxxxxwxxwwwwwwvvvvvvvvvuut.........sstttttssssrrrqqqq....
(PID.TID 0000.0001)     27 ................tt..............xxyyyyyyyyyyyxxxxwwwwwwwvvvvuutt...uuuu.tuuuuttssrrrrqqq......
(PID.TID 0000.0001)     26 ................ttt...........zzzzzyyzzzzzzzyyyxxxxxxwwwwvvvuuuutu.uuuvvuuuuuuttssrrrrqq......
(PID.TID 0000.0001)     25 ................tttt...uuv...zyyyzzyyyyzzzzzzyyyxxxxxwwwwwvvvuuuuvv...uvvuuuuuttsssrrrqq......
(PID.TID 0000.0001)     24 ..............ttttuuu.vvvv...zzy.+zyyyyyyyyyyyyxxxxwwwwwwwwvvvvvvvvvuu.uuuuuuuttssssrrrr......
(PID.TID 0000.0001)     23 ..............tuuuuvv.vvvv...zzy..zyyyyyyyyyyyyxxxxxxwwwwvvvvvvvvvvvuvv....ututsssssssss......
(PID.TID 0000.0001)     22 sss...........uuuuuuvvvvvv...zz.zyyxxxxxxxxxxxxxxxxxxxxxwwwwwwwvvvvvuvvu......tsstttssstttsss.
(PID.TID 0000.0001)     21 sssss........vvuuuttuuuuuvv.....zyyyyyyxxxxxxxxxxxxxxxxwwwwwwwwvvvvvuuuu........ttttttsttsssss
(PID.TID 0000.0001)     20 rrrrs.......wvvuuttttttuuuv......y.zyyyyxwxxxxxxwwxxxxwwwwvvvvvvuuuuuuuu.........uttttssssrrrr
(PID.TID 0000.0001)     19 rrrrr.......wvvuttttuuuuuuuuu...xxx.....yxxyyxxxxxxxxxwwwwvvvvuuuuuuuuut...........ttssssrrrrr
(PID.TID 0000.0001)     18 rqqrr.......wwvuutuuuuvvvvvvvvvwxxy...yzyyyyyyyyyyyxxxxwwwwwvvvuuuuuuuttt..........uttssrrrqqr
(PID.TID 0000.0001)     17 rrqqq.......x.yvvvvvvvvvvvvvvvvvw.....yxxxxxxyyyyyyxxxxxwwwwwwvvvvuuuuutu.........vutttsrrrrqq
(PID.TID 0000.0001)     16 srrqq......xx.xwwvwwwvvvvvvuuuvv.......xwwxxxxyyxyyyyxxxxxxxxxwwwvvvvuuttt........uuuuttsssrrq
(PID.TID 0000.0001)     15 ssrrqp....vww.vwwwwwwvvvvvutttu.........vwwxxxxxxxxxyyyyxyyyyxxxwwvvvvuttss......tuuuuuuutssrr
(PID.TID 0000.0001)     14 ttsrqp....wwvuvwvvwwwvuuuuttsss.........vwwwwwxwwwwxxxxxxyyyyyyxxwwwvvuutss.....uuvvvvvvuuttsr
(PID.TID 0000.0001)     13 uttsrp....vxwvvvvvvvvuuuuuttsrr.........uvvvvvvvvvvvvvwwxxxxxyyxxxwwwvuutts....suuuvvvvvvvutts
(PID.TID 0000.0001)     12 utssrqpmprvwwvvvvuuuuuuuuutsssrrrsss....tuuutttuuuuuuuvvvvvwwwwwwwwvvvutts.....stuuuuuvvvuutss
(PID.TID 0000.0001)     11 tsrrqqpqrtuvvuuuuuuuuttttttssrrrsssss..stttts.ttttttuuuvvvvvvvvvwwwvuuutsr....prsssttttttttsrr
(PID.TID 0000.0001)     10 rqpppooppqrrqppqrrrrrrrrrrrrqqqqrrssss.qssttu.ssstttuuuvvvvuuuuvvwvuttssss..uqqrqpppqqrrrrrqpp
(PID.TID 0000.0001)      9 mmmmmmmlmnnnmllklmmklmnoonnooooopqrsssrrrsss.usrrsttuuuuvvvvutuuuuttsssrrr.ttrpponmmmmmnnnmmmm
(PID.TID 0000.0001)      8 ihhiiihhhijjjiiiijligiijjjjkkkllmnnopqppqrsturqqqrrssttttttttsssstsrrrrrsv.usqonljiiiiiijiihhi
(PID.TID 0000.0001)      7 feedddeeffggggffghhjgfeeffggghhiiijkkkjklnpqqpoooooooppppqppppppppppppqqrstrrqoljigffffffffeed
(PID.TID 0000.0001)      6 ccbbbbcddddeeeeeeffffeddeeeeefffffffgffghiklllllllllkkjjjkkklllmmmmmmmmnnnnmlkjhgeeeddddddccbb
(PID.TID 0000.0001)      5 bbbbbcccddcccddddeeeeedddccdddddddddddddeeffgghihhhggfeeeefghiiiiiiiiiiiiihfedbbcccccccccbbbbb
(PID.TID 0000.0001)      4 bbbccccccddddeeeeeedddddddedddddcccccccccccddddeeddcccccddeeefffffffffffffff..-abbbbbbbbbbbbbc
(PID.TID 0000.0001)      3 cdddeeedeedd............................bccccccccccccccccdddddddeeeeeeeeeff..bbbbbbbbbcccccddd
(PID.TID 0000.0001)      2 ............................................ccbccccccddddddddddeee..feee.....bcccbcccccbb.....
(PID.TID 0000.0001)      1 ..............................................................................................
(PID.TID 0000.0001)      0 mllllmm.kjjjiiiiiiiii..................................................................lmmmlll
(PID.TID 0000.0001)     -1 lllllllllkkkjjjj...ii.....................................................eeee........mmmlllll
(PID.TID 0000.0001) // =======================================================
(PID.TID 0000.0001) // END OF FIELD                                          =
(PID.TID 0000.0001) // =======================================================
(PID.TID 0000.0001) 
(PID.TID 0000.0001)  MDS_WRITE_FIELD: it,rec,kS,kL,kH=      90     1  15   1  15 file=U.0000000090
(PID.TID 0000.0001)  MDS_WRITE_FIELD: it,rec,kS,kL,kH=      90     1  15   1  15 file=V.0000000090
(PID.TID 0000.0001)  MDS_WRITE_FIELD: it,rec,kS,kL,kH=      90     1  15   1  15 file=T.0000000090
(PID.TID 0000.0001)  MDS_WRITE_FIELD: it,rec,kS,kL,kH=      90     1  15   1  15 file=S.0000000090
(PID.TID 0000.0001)  MDS_WRITE_FIELD: it,rec,kS,kL,kH=      90     1   1   1   1 file=Eta.0000000090
(PID.TID 0000.0001)  MDS_WRITE_FIELD: it,rec,kS,kL,kH=      90     1  15   1  15 file=W.0000000090
(PID.TID 0000.0001)  MDS_WRITE_FIELD: it,rec,kS,kL,kH=      90     1  15   1  15 file=PH.0000000090
(PID.TID 0000.0001)  MDS_WRITE_FIELD: it,rec,kS,kL,kH=      90     1   1   1   1 file=PHL.0000000090
(PID.TID 0000.0001)  MDS_WRITE_FIELD: it,rec,kS,kL,kH=      90     1   1   1   1 file=ETAtave.0000000090
(PID.TID 0000.0001)  MDS_WRITE_FIELD: it,rec,kS,kL,kH=      90     1  15   1  15 file=Ttave.0000000090
(PID.TID 0000.0001)  MDS_WRITE_FIELD: it,rec,kS,kL,kH=      90     1  15   1  15 file=Stave.0000000090
(PID.TID 0000.0001)  MDS_WRITE_FIELD: it,rec,kS,kL,kH=      90     1  15   1  15 file=uVeltave.0000000090
(PID.TID 0000.0001)  MDS_WRITE_FIELD: it,rec,kS,kL,kH=      90     1  15   1  15 file=vVeltave.0000000090
(PID.TID 0000.0001)  MDS_WRITE_FIELD: it,rec,kS,kL,kH=      90     1  15   1  15 file=wVeltave.0000000090
(PID.TID 0000.0001)  MDS_WRITE_FIELD: it,rec,kS,kL,kH=      90     1   1   1   1 file=Eta2tave.0000000090
(PID.TID 0000.0001)  MDS_WRITE_FIELD: it,rec,kS,kL,kH=      90     1  15   1  15 file=UTtave.0000000090
(PID.TID 0000.0001)  MDS_WRITE_FIELD: it,rec,kS,kL,kH=      90     1  15   1  15 file=VTtave.0000000090
(PID.TID 0000.0001)  MDS_WRITE_FIELD: it,rec,kS,kL,kH=      90     1  15   1  15 file=WTtave.0000000090
(PID.TID 0000.0001)  MDS_WRITE_FIELD: it,rec,kS,kL,kH=      90     1  15   1  15 file=UStave.0000000090
(PID.TID 0000.0001)  MDS_WRITE_FIELD: it,rec,kS,kL,kH=      90     1  15   1  15 file=VStave.0000000090
(PID.TID 0000.0001)  MDS_WRITE_FIELD: it,rec,kS,kL,kH=      90     1  15   1  15 file=WStave.0000000090
(PID.TID 0000.0001)  MDS_WRITE_FIELD: it,rec,kS,kL,kH=      90     1  15   1  15 file=TTtave.0000000090
(PID.TID 0000.0001)  MDS_WRITE_FIELD: it,rec,kS,kL,kH=      90     1  15   1  15 file=UUtave.0000000090
(PID.TID 0000.0001)  MDS_WRITE_FIELD: it,rec,kS,kL,kH=      90     1  15   1  15 file=VVtave.0000000090
(PID.TID 0000.0001)  MDS_WRITE_FIELD: it,rec,kS,kL,kH=      90     1  15   1  15 file=UVtave.0000000090
(PID.TID 0000.0001)  MDS_WRITE_FIELD: it,rec,kS,kL,kH=      90     1  15   1  15 file=Tdiftave.0000000090
(PID.TID 0000.0001)  MDS_WRITE_FIELD: it,rec,kS,kL,kH=      90     1  15   1  15 file=PhHytave.0000000090
(PID.TID 0000.0001)  MDS_WRITE_FIELD: it,rec,kS,kL,kH=      90     1   1   1   1 file=PHLtave.0000000090
(PID.TID 0000.0001)  MDS_WRITE_FIELD: it,rec,kS,kL,kH=      90     1   1   1   1 file=uFluxtave.0000000090
(PID.TID 0000.0001)  MDS_WRITE_FIELD: it,rec,kS,kL,kH=      90     1   1   1   1 file=vFluxtave.0000000090
(PID.TID 0000.0001)  MDS_WRITE_FIELD: it,rec,kS,kL,kH=      90     1   1   1   1 file=tFluxtave.0000000090
(PID.TID 0000.0001)  MDS_WRITE_FIELD: it,rec,kS,kL,kH=      90     1   1   1   1 file=sFluxtave.0000000090
(PID.TID 0000.0001)  MDS_WRITE_FIELD: it,rec,kS,kL,kH=      90     1   1   1   1 file=PHL2tave.0000000090
(PID.TID 0000.0001)  MDS_WRITE_FIELD: it,rec,kS,kL,kH=      90     1  15   1  15 file=Convtave.0000000090
(PID.TID 0000.0001) // Time-average data written, t-step        90
(PID.TID 0000.0001) 
(PID.TID 0000.0001)  MDS_WRITE_FIELD: it,rec,kS,kL,kH=      90     1  15   1  15 file=GM_Kwx-T.0000000090
(PID.TID 0000.0001)  MDS_WRITE_FIELD: it,rec,kS,kL,kH=      90     1  15   1  15 file=GM_Kwy-T.0000000090
(PID.TID 0000.0001)  MDS_WRITE_FIELD: it,rec,kS,kL,kH=      90     1  15   1  15 file=GM_Kwz-T.0000000090
(PID.TID 0000.0001)  MDS_WRITE_FIELD: it,rec,kS,kL,kH=      90     1  15   1  15 file=pickup_cd.0000000090
(PID.TID 0000.0001)  MDS_WRITE_FIELD: it,rec,kS,kL,kH=      90     2  15   1  15 file=pickup_cd.0000000090
(PID.TID 0000.0001)  MDS_WRITE_FIELD: it,rec,kS,kL,kH=      90     3  15   1  15 file=pickup_cd.0000000090
(PID.TID 0000.0001)  MDS_WRITE_FIELD: it,rec,kS,kL,kH=      90     4  15   1  15 file=pickup_cd.0000000090
(PID.TID 0000.0001)  MDS_WRITE_FIELD: it,rec,kS,kL,kH=      90    61   1   1   1 file=pickup_cd.0000000090
(PID.TID 0000.0001)  MDS_WRITE_FIELD: it,rec,kS,kL,kH=      90    -1  15   1  15 file=pickup.0000000090
(PID.TID 0000.0001)  MDS_WRITE_FIELD: it,rec,kS,kL,kH=      90    -2  15   1  15 file=pickup.0000000090
(PID.TID 0000.0001)  MDS_WRITE_FIELD: it,rec,kS,kL,kH=      90    -3  15   1  15 file=pickup.0000000090
(PID.TID 0000.0001)  MDS_WRITE_FIELD: it,rec,kS,kL,kH=      90    -4  15   1  15 file=pickup.0000000090
(PID.TID 0000.0001)  MDS_WRITE_FIELD: it,rec,kS,kL,kH=      90    -5  15   1  15 file=pickup.0000000090
(PID.TID 0000.0001)  MDS_WRITE_FIELD: it,rec,kS,kL,kH=      90    -6  15   1  15 file=pickup.0000000090
(PID.TID 0000.0001)  MDS_WRITE_FIELD: it,rec,kS,kL,kH=      90    -7  15   1  15 file=pickup.0000000090
(PID.TID 0000.0001)  MDS_WRITE_FIELD: it,rec,kS,kL,kH=      90    -8  15   1  15 file=pickup.0000000090
(PID.TID 0000.0001)  MDS_WRITE_FIELD: it,rec,kS,kL,kH=      90  -121   1   1   1 file=pickup.0000000090
(PID.TID 0000.0001)  MDS_WRITE_FIELD: it,rec,kS,kL,kH=      90  -122   1   1   1 file=pickup.0000000090
(PID.TID 0000.0001)  MDS_WRITE_FIELD: it,rec,kS,kL,kH=      90  -123   1   1   1 file=pickup.0000000090
(PID.TID 0000.0001) %CHECKPOINT        90 0000000090
 EXTERNAL_FIELDS_LOAD,        90 : iP,iLd,i0,i1=    3    4    3    4 ; Wght=  0.5000000000  0.5000000000
 EXTERNAL_FIELDS_LOAD: (fu0,1),fu,fv= -2.7199E-02 -3.7252E-02 -3.2225E-02 -1.7897E-02
 EXTERNAL_FIELDS_LOAD: SST,SSS,Q,E-P= -7.4284E-02  3.4574E+01  1.5975E+02  8.4249E-06
DEBUG_STATS_RL:          Uvel (THERMODYNAMICS)  min= -1.40782216403649E-01
DEBUG_STATS_RL:          Uvel (THERMODYNAMICS)  max=  1.43533357037121E-01
DEBUG_STATS_RL:          Uvel (THERMODYNAMICS) mean=  5.79065041009315E-03
DEBUG_STATS_RL:          Uvel (THERMODYNAMICS) S.D.=  2.31494086765687E-02
DEBUG_STATS_RL:          Vvel (THERMODYNAMICS)  min= -9.90913494795965E-02
DEBUG_STATS_RL:          Vvel (THERMODYNAMICS)  max=  1.48696310834780E-01
DEBUG_STATS_RL:          Vvel (THERMODYNAMICS) mean=  1.02227477498028E-03
DEBUG_STATS_RL:          Vvel (THERMODYNAMICS) S.D.=  1.38339476043025E-02
DEBUG_STATS_RL:          Wvel (THERMODYNAMICS)  min= -6.40950092781943E-05
DEBUG_STATS_RL:          Wvel (THERMODYNAMICS)  max=  1.65849510296681E-04
DEBUG_STATS_RL:          Wvel (THERMODYNAMICS) mean= -1.07379362040225E-08
DEBUG_STATS_RL:          Wvel (THERMODYNAMICS) S.D.=  9.93923616727251E-06
DEBUG_STATS_RL:         Theta (THERMODYNAMICS)  min= -1.93278887773361E+00
DEBUG_STATS_RL:         Theta (THERMODYNAMICS)  max=  3.12263384633206E+01
DEBUG_STATS_RL:         Theta (THERMODYNAMICS) mean=  3.24026395009387E+00
DEBUG_STATS_RL:         Theta (THERMODYNAMICS) S.D.=  5.88911099196792E+00
DEBUG_STATS_RL:          Salt (THERMODYNAMICS)  min=  2.00000000000000E-02
DEBUG_STATS_RL:          Salt (THERMODYNAMICS)  max=  3.74863444773706E+01
DEBUG_STATS_RL:          Salt (THERMODYNAMICS) mean=  1.88647523391432E+01
DEBUG_STATS_RL:          Salt (THERMODYNAMICS) S.D.=  1.73003107835684E+01
DEBUG_STATS_RL:         GtNm1 (THERMODYNAMICS)  min= -2.32465179760907E-06
DEBUG_STATS_RL:         GtNm1 (THERMODYNAMICS)  max=  2.23851117772459E-06
DEBUG_STATS_RL:         GtNm1 (THERMODYNAMICS) mean= -1.34125402298355E-09
DEBUG_STATS_RL:         GtNm1 (THERMODYNAMICS) S.D.=  1.43873417972336E-07
DEBUG_STATS_RL:         GsNm1 (THERMODYNAMICS)  min= -3.54050992288268E-07
DEBUG_STATS_RL:         GsNm1 (THERMODYNAMICS)  max=  3.35854957661948E-07
DEBUG_STATS_RL:         GsNm1 (THERMODYNAMICS) mean= -2.38082910559689E-10
DEBUG_STATS_RL:         GsNm1 (THERMODYNAMICS) S.D.=  1.41901922707831E-08
DEBUG_STATS_RL:                EtaN (DYNAMICS)  min= -1.99869158385578E+00
DEBUG_STATS_RL:                EtaN (DYNAMICS)  max=  8.76941005789617E-01
DEBUG_STATS_RL:                EtaN (DYNAMICS) mean= -1.90426458964189E-01
DEBUG_STATS_RL:                EtaN (DYNAMICS) S.D.=  7.22331923830477E-01
DEBUG_STATS_RL:                Uvel (DYNAMICS)  min= -1.40782216403649E-01
DEBUG_STATS_RL:                Uvel (DYNAMICS)  max=  1.43533357037121E-01
DEBUG_STATS_RL:                Uvel (DYNAMICS) mean=  5.79065041009315E-03
DEBUG_STATS_RL:                Uvel (DYNAMICS) S.D.=  2.31494086765687E-02
DEBUG_STATS_RL:                Vvel (DYNAMICS)  min= -9.90913494795965E-02
DEBUG_STATS_RL:                Vvel (DYNAMICS)  max=  1.48696310834780E-01
DEBUG_STATS_RL:                Vvel (DYNAMICS) mean=  1.02227477498028E-03
DEBUG_STATS_RL:                Vvel (DYNAMICS) S.D.=  1.38339476043025E-02
DEBUG_STATS_RL:                Wvel (DYNAMICS)  min= -6.40950092781943E-05
DEBUG_STATS_RL:                Wvel (DYNAMICS)  max=  1.65849510296681E-04
DEBUG_STATS_RL:                Wvel (DYNAMICS) mean= -1.07379362040225E-08
DEBUG_STATS_RL:                Wvel (DYNAMICS) S.D.=  9.93923616727251E-06
DEBUG_STATS_RL:               Theta (DYNAMICS)  min= -1.93278887773361E+00
DEBUG_STATS_RL:               Theta (DYNAMICS)  max=  3.12263384633206E+01
DEBUG_STATS_RL:               Theta (DYNAMICS) mean=  3.24026395009387E+00
DEBUG_STATS_RL:               Theta (DYNAMICS) S.D.=  5.88911099196792E+00
DEBUG_STATS_RL:                Salt (DYNAMICS)  min=  2.00000000000000E-02
DEBUG_STATS_RL:                Salt (DYNAMICS)  max=  3.74863444773706E+01
DEBUG_STATS_RL:                Salt (DYNAMICS) mean=  1.88647523391432E+01
DEBUG_STATS_RL:                Salt (DYNAMICS) S.D.=  1.73003107835684E+01
DEBUG_STATS_RL:                  Gu (DYNAMICS)  min= -1.39848413407402E-01
DEBUG_STATS_RL:                  Gu (DYNAMICS)  max=  1.38159564901154E-01
DEBUG_STATS_RL:                  Gu (DYNAMICS) mean=  5.72912863507059E-03
DEBUG_STATS_RL:                  Gu (DYNAMICS) S.D.=  2.34720911982459E-02
DEBUG_STATS_RL:                  Gv (DYNAMICS)  min= -9.66685001688876E-02
DEBUG_STATS_RL:                  Gv (DYNAMICS)  max=  1.48673455281688E-01
DEBUG_STATS_RL:                  Gv (DYNAMICS) mean=  3.49229735996570E-03
DEBUG_STATS_RL:                  Gv (DYNAMICS) S.D.=  1.53431863619796E-02
DEBUG_STATS_RL:               GuNm1 (DYNAMICS)  min= -1.01109082444009E-05
DEBUG_STATS_RL:               GuNm1 (DYNAMICS)  max=  9.91513477009266E-06
DEBUG_STATS_RL:               GuNm1 (DYNAMICS) mean=  1.61806318502417E-08
DEBUG_STATS_RL:               GuNm1 (DYNAMICS) S.D.=  1.23261195452505E-06
DEBUG_STATS_RL:               GvNm1 (DYNAMICS)  min= -9.28734943979696E-06
DEBUG_STATS_RL:               GvNm1 (DYNAMICS)  max=  1.51587100819849E-05
DEBUG_STATS_RL:               GvNm1 (DYNAMICS) mean=  7.39961612741153E-07
DEBUG_STATS_RL:               GvNm1 (DYNAMICS) S.D.=  2.61080030179868E-06
DEBUG_STATS_RL:               GtNm1 (DYNAMICS)  min= -2.32465179760907E-06
DEBUG_STATS_RL:               GtNm1 (DYNAMICS)  max=  2.23851117772459E-06
DEBUG_STATS_RL:               GtNm1 (DYNAMICS) mean= -1.34125402298355E-09
DEBUG_STATS_RL:               GtNm1 (DYNAMICS) S.D.=  1.43873417972336E-07
DEBUG_STATS_RL:               GsNm1 (DYNAMICS)  min= -3.54050992288268E-07
DEBUG_STATS_RL:               GsNm1 (DYNAMICS)  max=  3.35854957661948E-07
DEBUG_STATS_RL:               GsNm1 (DYNAMICS) mean= -2.38082910559689E-10
DEBUG_STATS_RL:               GsNm1 (DYNAMICS) S.D.=  1.41901922707831E-08
DEBUG_STATS_RL:    cg2d_b (SOLVE_FOR_PRESSURE)  min= -3.08285645782359E+04
DEBUG_STATS_RL:    cg2d_b (SOLVE_FOR_PRESSURE)  max=  3.25089701280762E+04
DEBUG_STATS_RL:    cg2d_b (SOLVE_FOR_PRESSURE) mean=  5.55116176968331E+00
DEBUG_STATS_RL:    cg2d_b (SOLVE_FOR_PRESSURE) S.D.=  4.07798417688010E+03
 cg2d: Sum(rhs),rhsMax =   3.95304417401958E-01  2.13527619836453E+00
(PID.TID 0000.0001)  cg2d: iter=     1 ; resid.=  1.07842486292453E-01
(PID.TID 0000.0001)  cg2d: iter=     2 ; resid.=  1.00326926451331E-01
(PID.TID 0000.0001)  cg2d: iter=     3 ; resid.=  1.02304277476915E-01
(PID.TID 0000.0001)  cg2d: iter=     4 ; resid.=  9.14334470801608E-02
(PID.TID 0000.0001)  cg2d: iter=     5 ; resid.=  8.47532110831889E-02
(PID.TID 0000.0001)  cg2d: iter=     6 ; resid.=  7.79405609137190E-02
(PID.TID 0000.0001)  cg2d: iter=     7 ; resid.=  5.87349783848946E-02
(PID.TID 0000.0001)  cg2d: iter=     8 ; resid.=  4.28514990257972E-02
(PID.TID 0000.0001)  cg2d: iter=     9 ; resid.=  3.18958271544984E-02
(PID.TID 0000.0001)  cg2d: iter=    10 ; resid.=  2.52347182935444E-02
(PID.TID 0000.0001)  cg2d: iter=    11 ; resid.=  2.17279798638698E-02
(PID.TID 0000.0001)  cg2d: iter=    12 ; resid.=  1.81049890570005E-02
(PID.TID 0000.0001)  cg2d: iter=    13 ; resid.=  1.53600912609285E-02
(PID.TID 0000.0001)  cg2d: iter=    14 ; resid.=  1.28992187812991E-02
(PID.TID 0000.0001)  cg2d: iter=    15 ; resid.=  1.06091368400073E-02
(PID.TID 0000.0001)  cg2d: iter=    16 ; resid.=  9.86312038643496E-03
(PID.TID 0000.0001)  cg2d: iter=    17 ; resid.=  8.94900218427991E-03
(PID.TID 0000.0001)  cg2d: iter=    18 ; resid.=  7.25562791486761E-03
(PID.TID 0000.0001)  cg2d: iter=    19 ; resid.=  5.88523931141319E-03
(PID.TID 0000.0001)  cg2d: iter=    20 ; resid.=  4.61481490658076E-03
(PID.TID 0000.0001)  cg2d: iter=    21 ; resid.=  3.73405754778548E-03
(PID.TID 0000.0001)  cg2d: iter=    22 ; resid.=  3.40814671831767E-03
(PID.TID 0000.0001)  cg2d: iter=    23 ; resid.=  2.71371340496094E-03
(PID.TID 0000.0001)  cg2d: iter=    24 ; resid.=  2.41218529846135E-03
(PID.TID 0000.0001)  cg2d: iter=    25 ; resid.=  1.85874370807306E-03
(PID.TID 0000.0001)  cg2d: iter=    26 ; resid.=  1.41878655409278E-03
(PID.TID 0000.0001)  cg2d: iter=    27 ; resid.=  1.15997895890007E-03
(PID.TID 0000.0001)  cg2d: iter=    28 ; resid.=  9.52911913757167E-04
(PID.TID 0000.0001)  cg2d: iter=    29 ; resid.=  7.69382631974721E-04
(PID.TID 0000.0001)  cg2d: iter=    30 ; resid.=  6.52870359347335E-04
(PID.TID 0000.0001)  cg2d: iter=    31 ; resid.=  5.53696778395294E-04
(PID.TID 0000.0001)  cg2d: iter=    32 ; resid.=  4.03010534562152E-04
(PID.TID 0000.0001)  cg2d: iter=    33 ; resid.=  3.14105895225580E-04
(PID.TID 0000.0001)  cg2d: iter=    34 ; resid.=  2.97210763511792E-04
(PID.TID 0000.0001)  cg2d: iter=    35 ; resid.=  2.44812886453560E-04
(PID.TID 0000.0001)  cg2d: iter=    36 ; resid.=  2.02458757850939E-04
(PID.TID 0000.0001)  cg2d: iter=    37 ; resid.=  1.83902228271847E-04
(PID.TID 0000.0001)  cg2d: iter=    38 ; resid.=  1.52661914601485E-04
(PID.TID 0000.0001)  cg2d: iter=    39 ; resid.=  1.32440133509769E-04
(PID.TID 0000.0001)  cg2d: iter=    40 ; resid.=  1.12276353583182E-04
(PID.TID 0000.0001)  cg2d: iter=    41 ; resid.=  9.41103986637927E-05
(PID.TID 0000.0001)  cg2d: iter=    42 ; resid.=  7.95704651127715E-05
(PID.TID 0000.0001)  cg2d: iter=    43 ; resid.=  6.73839866054043E-05
(PID.TID 0000.0001)  cg2d: iter=    44 ; resid.=  5.34393899419594E-05
(PID.TID 0000.0001)  cg2d: iter=    45 ; resid.=  4.47505668534899E-05
(PID.TID 0000.0001)  cg2d: iter=    46 ; resid.=  3.48662960945691E-05
(PID.TID 0000.0001)  cg2d: iter=    47 ; resid.=  2.88298683711146E-05
(PID.TID 0000.0001)  cg2d: iter=    48 ; resid.=  2.70857643343233E-05
(PID.TID 0000.0001)  cg2d: iter=    49 ; resid.=  2.43362207746435E-05
(PID.TID 0000.0001)  cg2d: iter=    50 ; resid.=  1.99061945056100E-05
(PID.TID 0000.0001)  cg2d: iter=    51 ; resid.=  1.75921498903041E-05
(PID.TID 0000.0001)  cg2d: iter=    52 ; resid.=  1.47455254413779E-05
(PID.TID 0000.0001)  cg2d: iter=    53 ; resid.=  1.21548338756528E-05
(PID.TID 0000.0001)  cg2d: iter=    54 ; resid.=  8.92638458739344E-06
(PID.TID 0000.0001)  cg2d: iter=    55 ; resid.=  7.38805446395187E-06
(PID.TID 0000.0001)  cg2d: iter=    56 ; resid.=  6.99651909599051E-06
(PID.TID 0000.0001)  cg2d: iter=    57 ; resid.=  5.96023363640065E-06
(PID.TID 0000.0001)  cg2d: iter=    58 ; resid.=  4.63067948206274E-06
(PID.TID 0000.0001)  cg2d: iter=    59 ; resid.=  3.72284023970006E-06
(PID.TID 0000.0001)  cg2d: iter=    60 ; resid.=  3.13424426470606E-06
(PID.TID 0000.0001)  cg2d: iter=    61 ; resid.=  2.53777141885124E-06
(PID.TID 0000.0001)  cg2d: iter=    62 ; resid.=  2.16911071410066E-06
(PID.TID 0000.0001)  cg2d: iter=    63 ; resid.=  1.85284596180323E-06
(PID.TID 0000.0001)  cg2d: iter=    64 ; resid.=  1.48052090438083E-06
(PID.TID 0000.0001)  cg2d: iter=    65 ; resid.=  1.16486498597233E-06
(PID.TID 0000.0001)  cg2d: iter=    66 ; resid.=  9.31053295635368E-07
(PID.TID 0000.0001)  cg2d: iter=    67 ; resid.=  7.65295849815478E-07
(PID.TID 0000.0001)  cg2d: iter=    68 ; resid.=  6.43063107981002E-07
(PID.TID 0000.0001)  cg2d: iter=    69 ; resid.=  5.28443017988050E-07
(PID.TID 0000.0001)  cg2d: iter=    70 ; resid.=  4.37110790479843E-07
(PID.TID 0000.0001)  cg2d: iter=    71 ; resid.=  3.77857162309516E-07
(PID.TID 0000.0001)  cg2d: iter=    72 ; resid.=  3.45823549992397E-07
(PID.TID 0000.0001)  cg2d: iter=    73 ; resid.=  3.00020588388117E-07
(PID.TID 0000.0001)  cg2d: iter=    74 ; resid.=  2.55557633272838E-07
(PID.TID 0000.0001)  cg2d: iter=    75 ; resid.=  2.05917587576618E-07
(PID.TID 0000.0001)  cg2d: iter=    76 ; resid.=  1.56240205741972E-07
(PID.TID 0000.0001)  cg2d: iter=    77 ; resid.=  1.29120680981919E-07
(PID.TID 0000.0001)  cg2d: iter=    78 ; resid.=  1.07222656809727E-07
(PID.TID 0000.0001)  cg2d: iter=    79 ; resid.=  8.74335177189673E-08
(PID.TID 0000.0001)  cg2d: iter=    80 ; resid.=  6.99015505131200E-08
(PID.TID 0000.0001)  cg2d: iter=    81 ; resid.=  5.34717838804874E-08
(PID.TID 0000.0001)  cg2d: iter=    82 ; resid.=  3.76602601760936E-08
(PID.TID 0000.0001)  cg2d: iter=    83 ; resid.=  2.82397556694249E-08
(PID.TID 0000.0001)  cg2d: iter=    84 ; resid.=  2.06899279503304E-08
(PID.TID 0000.0001)  cg2d: iter=    85 ; resid.=  1.55102197697375E-08
(PID.TID 0000.0001)  cg2d: iter=    86 ; resid.=  1.21831185453542E-08
(PID.TID 0000.0001)  cg2d: iter=    87 ; resid.=  1.01665083355438E-08
(PID.TID 0000.0001)  cg2d: iter=    88 ; resid.=  8.30539089093567E-09
(PID.TID 0000.0001)  cg2d: iter=    89 ; resid.=  7.06882198850300E-09
(PID.TID 0000.0001)  cg2d: iter=    90 ; resid.=  5.67890787234113E-09
(PID.TID 0000.0001)  cg2d: iter=    91 ; resid.=  4.22219949992287E-09
(PID.TID 0000.0001)  cg2d: iter=    92 ; resid.=  3.12375293629540E-09
(PID.TID 0000.0001)  cg2d: iter=    93 ; resid.=  2.28283844693618E-09
(PID.TID 0000.0001)  cg2d: iter=    94 ; resid.=  1.85691583088420E-09
(PID.TID 0000.0001)  cg2d: iter=    95 ; resid.=  1.63597164066472E-09
(PID.TID 0000.0001)  cg2d: iter=    96 ; resid.=  1.24614432493960E-09
(PID.TID 0000.0001)  cg2d: iter=    97 ; resid.=  9.53707573086740E-10
(PID.TID 0000.0001)  cg2d: iter=    98 ; resid.=  7.75233590943583E-10
(PID.TID 0000.0001)  cg2d: iter=    99 ; resid.=  6.92537711318431E-10
(PID.TID 0000.0001)  cg2d: iter=   100 ; resid.=  6.36185203029530E-10
(PID.TID 0000.0001)  cg2d: iter=   101 ; resid.=  5.28147772534281E-10
(PID.TID 0000.0001)  cg2d: iter=   102 ; resid.=  4.18738930575779E-10
(PID.TID 0000.0001)  cg2d: iter=   103 ; resid.=  3.38239843010585E-10
(PID.TID 0000.0001)  cg2d: iter=   104 ; resid.=  2.69442989000474E-10
(PID.TID 0000.0001)  cg2d: iter=   105 ; resid.=  2.14328477512983E-10
(PID.TID 0000.0001)  cg2d: iter=   106 ; resid.=  1.63777617054635E-10
(PID.TID 0000.0001)  cg2d: iter=   107 ; resid.=  1.26354489314850E-10
(PID.TID 0000.0001)  cg2d: iter=   108 ; resid.=  9.21723098711219E-11
(PID.TID 0000.0001)  cg2d: iter=   109 ; resid.=  6.76610766444040E-11
(PID.TID 0000.0001)  cg2d: iter=   110 ; resid.=  5.42829548272346E-11
(PID.TID 0000.0001)  cg2d: iter=   111 ; resid.=  4.21926057684881E-11
(PID.TID 0000.0001)  cg2d: iter=   112 ; resid.=  3.11698945806966E-11
(PID.TID 0000.0001)  cg2d: iter=   113 ; resid.=  2.28193514579752E-11
(PID.TID 0000.0001)  cg2d: iter=   114 ; resid.=  1.85407748701572E-11
(PID.TID 0000.0001)  cg2d: iter=   115 ; resid.=  1.49625523898826E-11
(PID.TID 0000.0001)  cg2d: iter=   116 ; resid.=  1.15485637110307E-11
(PID.TID 0000.0001)  cg2d: iter=   117 ; resid.=  8.84014711162277E-12
(PID.TID 0000.0001)  cg2d: iter=   118 ; resid.=  6.45203639313363E-12
(PID.TID 0000.0001)  cg2d: iter=   119 ; resid.=  4.30719239332832E-12
(PID.TID 0000.0001)  cg2d: iter=   120 ; resid.=  3.48250294606172E-12
(PID.TID 0000.0001)  cg2d: iter=   121 ; resid.=  2.78015561883878E-12
(PID.TID 0000.0001)  cg2d: iter=   122 ; resid.=  2.03853046165671E-12
(PID.TID 0000.0001)  cg2d: iter=   123 ; resid.=  1.56550307144240E-12
(PID.TID 0000.0001)  cg2d: iter=   124 ; resid.=  1.13817587981651E-12
(PID.TID 0000.0001)  cg2d: iter=   125 ; resid.=  7.72983216280235E-13
(PID.TID 0000.0001)  cg2d: iter=   126 ; resid.=  5.40109031301229E-13
(PID.TID 0000.0001)  cg2d: iter=   127 ; resid.=  3.57484560080579E-13
(PID.TID 0000.0001)  cg2d: iter=   128 ; resid.=  2.76238989895061E-13
(PID.TID 0000.0001)  cg2d: iter=   129 ; resid.=  2.03254941633007E-13
(PID.TID 0000.0001)  cg2d: iter=   130 ; resid.=  1.57440512025191E-13
(PID.TID 0000.0001)  cg2d: iter=   131 ; resid.=  1.13398782349601E-13
(PID.TID 0000.0001)  cg2d: iter=   132 ; resid.=  8.48140696804137E-14
DEBUG_STATS_RL:    cg2d_x (SOLVE_FOR_PRESSURE)  min= -1.93330128866375E+01
DEBUG_STATS_RL:    cg2d_x (SOLVE_FOR_PRESSURE)  max=  8.31071966117504E+00
DEBUG_STATS_RL:    cg2d_x (SOLVE_FOR_PRESSURE) mean= -1.84568456063046E+00
DEBUG_STATS_RL:    cg2d_x (SOLVE_FOR_PRESSURE) S.D.=  6.99834857057848E+00
(PID.TID 0000.0001)      cg2d_init_res =   2.19117334118555E-01
(PID.TID 0000.0001)      cg2d_iters(min,last) =      -1     132
(PID.TID 0000.0001)      cg2d_last_res =   8.48140696804137E-14
(PID.TID 0000.0001) // =======================================================
(PID.TID 0000.0001) // Begin MONITOR dynamic field statistics
(PID.TID 0000.0001) // =======================================================
(PID.TID 0000.0001) %MON time_tsnumber                =                    91
(PID.TID 0000.0001) %MON time_secondsf                =   7.8624000000000E+06
(PID.TID 0000.0001) %MON dynstat_eta_max              =   8.4716816117993E-01
(PID.TID 0000.0001) %MON dynstat_eta_min              =  -1.9707454522567E+00
(PID.TID 0000.0001) %MON dynstat_eta_mean             =  -5.7919489853293E-03
(PID.TID 0000.0001) %MON dynstat_eta_sd               =   6.0934334965321E-01
(PID.TID 0000.0001) %MON dynstat_eta_del2             =   2.6036495568409E-03
(PID.TID 0000.0001) %MON dynstat_uvel_max             =   1.4059751874470E-01
(PID.TID 0000.0001) %MON dynstat_uvel_min             =  -1.4130559570891E-01
(PID.TID 0000.0001) %MON dynstat_uvel_mean            =   2.1591056330191E-03
(PID.TID 0000.0001) %MON dynstat_uvel_sd              =   1.5842195388749E-02
(PID.TID 0000.0001) %MON dynstat_uvel_del2            =   1.1980627036676E-04
(PID.TID 0000.0001) %MON dynstat_vvel_max             =   1.4736974824828E-01
(PID.TID 0000.0001) %MON dynstat_vvel_min             =  -9.9461658337378E-02
(PID.TID 0000.0001) %MON dynstat_vvel_mean            =   9.7268945188933E-05
(PID.TID 0000.0001) %MON dynstat_vvel_sd              =   8.8077755927549E-03
(PID.TID 0000.0001) %MON dynstat_vvel_del2            =   8.2548561669455E-05
(PID.TID 0000.0001) %MON dynstat_wvel_max             =   1.5313252667975E-04
(PID.TID 0000.0001) %MON dynstat_wvel_min             =  -6.8315598563416E-05
(PID.TID 0000.0001) %MON dynstat_wvel_mean            =  -1.5214060948476E-22
(PID.TID 0000.0001) %MON dynstat_wvel_sd              =   1.1236359467788E-05
(PID.TID 0000.0001) %MON dynstat_wvel_del2            =   1.0902886648064E-07
(PID.TID 0000.0001) %MON dynstat_theta_max            =   3.1226338463321E+01
(PID.TID 0000.0001) %MON dynstat_theta_min            =  -1.9327888777336E+00
(PID.TID 0000.0001) %MON dynstat_theta_mean           =   3.6442249190754E+00
(PID.TID 0000.0001) %MON dynstat_theta_sd             =   4.4289086931835E+00
(PID.TID 0000.0001) %MON dynstat_theta_del2           =   4.8393309038666E-03
(PID.TID 0000.0001) %MON dynstat_salt_max             =   3.7486344477371E+01
(PID.TID 0000.0001) %MON dynstat_salt_min             =   2.9964181801876E+01
(PID.TID 0000.0001) %MON dynstat_salt_mean            =   3.4737995888325E+01
(PID.TID 0000.0001) %MON dynstat_salt_sd              =   2.9663691804363E-01
(PID.TID 0000.0001) %MON dynstat_salt_del2            =   9.9825081863191E-04
(PID.TID 0000.0001) %MON dynstat_sst_max              =   3.1226338463321E+01
(PID.TID 0000.0001) %MON dynstat_sst_min              =  -1.9327888777336E+00
(PID.TID 0000.0001) %MON dynstat_sst_mean             =   1.9067342386753E+01
(PID.TID 0000.0001) %MON dynstat_sst_sd               =   9.2638927871574E+00
(PID.TID 0000.0001) %MON dynstat_sst_del2             =   2.9329054031768E-02
(PID.TID 0000.0001) %MON dynstat_sss_max              =   3.7486344477371E+01
(PID.TID 0000.0001) %MON dynstat_sss_min              =   2.9964181801876E+01
(PID.TID 0000.0001) %MON dynstat_sss_mean             =   3.4857440003013E+01
(PID.TID 0000.0001) %MON dynstat_sss_sd               =   9.9144460615308E-01
(PID.TID 0000.0001) %MON dynstat_sss_del2             =   8.3060290750704E-03
(PID.TID 0000.0001) %MON forcing_qnet_max             =   2.0392916870117E+02
(PID.TID 0000.0001) %MON forcing_qnet_min             =  -1.5743564605713E+02
(PID.TID 0000.0001) %MON forcing_qnet_mean            =  -1.3095195556001E+00
(PID.TID 0000.0001) %MON forcing_qnet_sd              =   3.9393235580396E+01
(PID.TID 0000.0001) %MON forcing_qnet_del2            =   7.8410744679858E-01
(PID.TID 0000.0001) %MON forcing_qsw_max              =   0.0000000000000E+00
(PID.TID 0000.0001) %MON forcing_qsw_min              =   0.0000000000000E+00
(PID.TID 0000.0001) %MON forcing_qsw_mean             =   0.0000000000000E+00
(PID.TID 0000.0001) %MON forcing_qsw_sd               =   0.0000000000000E+00
(PID.TID 0000.0001) %MON forcing_qsw_del2             =   0.0000000000000E+00
(PID.TID 0000.0001) %MON forcing_empmr_max            =   6.7666256597931E-05
(PID.TID 0000.0001) %MON forcing_empmr_min            =  -8.3487108781810E-05
(PID.TID 0000.0001) %MON forcing_empmr_mean           =   2.1403058126522E-07
(PID.TID 0000.0001) %MON forcing_empmr_sd             =   2.5565388695829E-05
(PID.TID 0000.0001) %MON forcing_empmr_del2           =   3.6396270903626E-07
(PID.TID 0000.0001) %MON forcing_fu_max               =   3.4788966178894E-01
(PID.TID 0000.0001) %MON forcing_fu_min               =  -4.0255250036716E-01
(PID.TID 0000.0001) %MON forcing_fu_mean              =   1.8548847846395E-02
(PID.TID 0000.0001) %MON forcing_fu_sd                =   1.0035271102414E-01
(PID.TID 0000.0001) %MON forcing_fu_del2              =   7.7663796698736E-04
(PID.TID 0000.0001) %MON forcing_fv_max               =   1.8186032772064E-01
(PID.TID 0000.0001) %MON forcing_fv_min               =  -1.4296149462461E-01
(PID.TID 0000.0001) %MON forcing_fv_mean              =  -6.9824253544491E-03
(PID.TID 0000.0001) %MON forcing_fv_sd                =   3.8754640563461E-02
(PID.TID 0000.0001) %MON forcing_fv_del2              =   4.1635659249550E-04
(PID.TID 0000.0001) %MON trAdv_CFL_u_max              =   4.8592124244196E-02
(PID.TID 0000.0001) %MON trAdv_CFL_v_max              =   2.8842358807418E-02
(PID.TID 0000.0001) %MON trAdv_CFL_w_max              =   3.6241962179032E-02
(PID.TID 0000.0001) %MON advcfl_uvel_max              =   4.8735654507203E-02
(PID.TID 0000.0001) %MON advcfl_vvel_max              =   2.8631578558036E-02
(PID.TID 0000.0001) %MON advcfl_wvel_max              =   3.5469825979207E-02
(PID.TID 0000.0001) %MON advcfl_W_hf_max              =   3.8617216476508E-02
(PID.TID 0000.0001) %MON pe_b_mean                    =   4.7516515785184E-04
(PID.TID 0000.0001) %MON ke_max                       =   1.1478609401903E-02
(PID.TID 0000.0001) %MON ke_mean                      =   1.5097163207483E-04
(PID.TID 0000.0001) %MON ke_vol                       =   1.3226782436723E+18
(PID.TID 0000.0001) %MON vort_r_min                   =  -3.7783779089588E-07
(PID.TID 0000.0001) %MON vort_r_max                   =   4.8610921011122E-07
(PID.TID 0000.0001) %MON vort_a_mean                  =  -2.5274807317321E-05
(PID.TID 0000.0001) %MON vort_a_sd                    =   7.3604600430297E-05
(PID.TID 0000.0001) %MON vort_p_mean                  =  -3.1845655698510E-05
(PID.TID 0000.0001) %MON vort_p_sd                    =   1.3162466406432E-04
(PID.TID 0000.0001) %MON surfExpan_theta_mean         =  -4.6873239305649E-07
(PID.TID 0000.0001) %MON surfExpan_salt_mean          =   1.5492911860477E-07
(PID.TID 0000.0001) // =======================================================
(PID.TID 0000.0001) // End MONITOR dynamic field statistics
(PID.TID 0000.0001) // =======================================================
 EXTERNAL_FIELDS_LOAD,        91 : iP,iLd,i0,i1=    3    4    3    4 ; Wght=  0.4666666667  0.5333333333
 EXTERNAL_FIELDS_LOAD: (fu0,1),fu,fv= -2.7199E-02 -3.7252E-02 -3.2561E-02 -1.9052E-02
 EXTERNAL_FIELDS_LOAD: SST,SSS,Q,E-P= -6.6976E-02  3.4574E+01  1.5604E+02  8.3812E-06
DEBUG_STATS_RL:          Uvel (THERMODYNAMICS)  min= -1.41305595708913E-01
DEBUG_STATS_RL:          Uvel (THERMODYNAMICS)  max=  1.40597518744697E-01
DEBUG_STATS_RL:          Uvel (THERMODYNAMICS) mean=  5.73338723435687E-03
DEBUG_STATS_RL:          Uvel (THERMODYNAMICS) S.D.=  2.31258692714853E-02
DEBUG_STATS_RL:          Vvel (THERMODYNAMICS)  min= -9.94616583373782E-02
DEBUG_STATS_RL:          Vvel (THERMODYNAMICS)  max=  1.47369748248281E-01
DEBUG_STATS_RL:          Vvel (THERMODYNAMICS) mean=  9.94221708341811E-04
DEBUG_STATS_RL:          Vvel (THERMODYNAMICS) S.D.=  1.37659403050805E-02
DEBUG_STATS_RL:          Wvel (THERMODYNAMICS)  min= -6.83155985634157E-05
DEBUG_STATS_RL:          Wvel (THERMODYNAMICS)  max=  1.53132526679747E-04
DEBUG_STATS_RL:          Wvel (THERMODYNAMICS) mean= -1.58670308805095E-08
DEBUG_STATS_RL:          Wvel (THERMODYNAMICS) S.D.=  9.79190193823012E-06
DEBUG_STATS_RL:         Theta (THERMODYNAMICS)  min= -1.93137871086694E+00
DEBUG_STATS_RL:         Theta (THERMODYNAMICS)  max=  3.12408832708654E+01
DEBUG_STATS_RL:         Theta (THERMODYNAMICS) mean=  3.24013558231824E+00
DEBUG_STATS_RL:         Theta (THERMODYNAMICS) S.D.=  5.88918761450749E+00
DEBUG_STATS_RL:          Salt (THERMODYNAMICS)  min=  2.00000000000000E-02
DEBUG_STATS_RL:          Salt (THERMODYNAMICS)  max=  3.74866307853370E+01
DEBUG_STATS_RL:          Salt (THERMODYNAMICS) mean=  1.88647434841168E+01
DEBUG_STATS_RL:          Salt (THERMODYNAMICS) S.D.=  1.73003033800425E+01
DEBUG_STATS_RL:         GtNm1 (THERMODYNAMICS)  min= -2.29287694784222E-06
DEBUG_STATS_RL:         GtNm1 (THERMODYNAMICS)  max=  1.98994438283226E-06
DEBUG_STATS_RL:         GtNm1 (THERMODYNAMICS) mean= -1.50489943065096E-09
DEBUG_STATS_RL:         GtNm1 (THERMODYNAMICS) S.D.=  1.41517257970575E-07
DEBUG_STATS_RL:         GsNm1 (THERMODYNAMICS)  min= -3.60084496408196E-07
DEBUG_STATS_RL:         GsNm1 (THERMODYNAMICS)  max=  3.41507158191899E-07
DEBUG_STATS_RL:         GsNm1 (THERMODYNAMICS) mean= -2.46176693762351E-10
DEBUG_STATS_RL:         GsNm1 (THERMODYNAMICS) S.D.=  1.40156903018522E-08
DEBUG_STATS_RL:                EtaN (DYNAMICS)  min= -1.97074545225672E+00
DEBUG_STATS_RL:                EtaN (DYNAMICS)  max=  8.47168161179926E-01
DEBUG_STATS_RL:                EtaN (DYNAMICS) mean= -1.88143176414932E-01
DEBUG_STATS_RL:                EtaN (DYNAMICS) S.D.=  7.13389252862237E-01
DEBUG_STATS_RL:                Uvel (DYNAMICS)  min= -1.41305595708913E-01
DEBUG_STATS_RL:                Uvel (DYNAMICS)  max=  1.40597518744697E-01
DEBUG_STATS_RL:                Uvel (DYNAMICS) mean=  5.73338723435687E-03
DEBUG_STATS_RL:                Uvel (DYNAMICS) S.D.=  2.31258692714853E-02
DEBUG_STATS_RL:                Vvel (DYNAMICS)  min= -9.94616583373782E-02
DEBUG_STATS_RL:                Vvel (DYNAMICS)  max=  1.47369748248281E-01
DEBUG_STATS_RL:                Vvel (DYNAMICS) mean=  9.94221708341811E-04
DEBUG_STATS_RL:                Vvel (DYNAMICS) S.D.=  1.37659403050805E-02
DEBUG_STATS_RL:                Wvel (DYNAMICS)  min= -6.83155985634157E-05
DEBUG_STATS_RL:                Wvel (DYNAMICS)  max=  1.53132526679747E-04
DEBUG_STATS_RL:                Wvel (DYNAMICS) mean= -1.58670308805095E-08
DEBUG_STATS_RL:                Wvel (DYNAMICS) S.D.=  9.79190193823012E-06
DEBUG_STATS_RL:               Theta (DYNAMICS)  min= -1.93137871086694E+00
DEBUG_STATS_RL:               Theta (DYNAMICS)  max=  3.12408832708654E+01
DEBUG_STATS_RL:               Theta (DYNAMICS) mean=  3.24013558231824E+00
DEBUG_STATS_RL:               Theta (DYNAMICS) S.D.=  5.88918761450749E+00
DEBUG_STATS_RL:                Salt (DYNAMICS)  min=  2.00000000000000E-02
DEBUG_STATS_RL:                Salt (DYNAMICS)  max=  3.74866307853370E+01
DEBUG_STATS_RL:                Salt (DYNAMICS) mean=  1.88647434841168E+01
DEBUG_STATS_RL:                Salt (DYNAMICS) S.D.=  1.73003033800425E+01
DEBUG_STATS_RL:                  Gu (DYNAMICS)  min= -1.40364758701666E-01
DEBUG_STATS_RL:                  Gu (DYNAMICS)  max=  1.33329336396645E-01
DEBUG_STATS_RL:                  Gu (DYNAMICS) mean=  5.67078125676154E-03
DEBUG_STATS_RL:                  Gu (DYNAMICS) S.D.=  2.34585989374118E-02
DEBUG_STATS_RL:                  Gv (DYNAMICS)  min= -9.70009776809625E-02
DEBUG_STATS_RL:                  Gv (DYNAMICS)  max=  1.47309408565948E-01
DEBUG_STATS_RL:                  Gv (DYNAMICS) mean=  3.47918932820874E-03
DEBUG_STATS_RL:                  Gv (DYNAMICS) S.D.=  1.52784106007103E-02
DEBUG_STATS_RL:               GuNm1 (DYNAMICS)  min= -1.00104531504604E-05
DEBUG_STATS_RL:               GuNm1 (DYNAMICS)  max=  1.00306585502485E-05
DEBUG_STATS_RL:               GuNm1 (DYNAMICS) mean=  1.67241712062847E-08
DEBUG_STATS_RL:               GuNm1 (DYNAMICS) S.D.=  1.23285241254768E-06
DEBUG_STATS_RL:               GvNm1 (DYNAMICS)  min= -9.28436189914569E-06
DEBUG_STATS_RL:               GvNm1 (DYNAMICS)  max=  1.51164087742879E-05
DEBUG_STATS_RL:               GvNm1 (DYNAMICS) mean=  7.40676356901186E-07
DEBUG_STATS_RL:               GvNm1 (DYNAMICS) S.D.=  2.61036565294479E-06
DEBUG_STATS_RL:               GtNm1 (DYNAMICS)  min= -2.29287694784222E-06
DEBUG_STATS_RL:               GtNm1 (DYNAMICS)  max=  1.98994438283226E-06
DEBUG_STATS_RL:               GtNm1 (DYNAMICS) mean= -1.50489943065096E-09
DEBUG_STATS_RL:               GtNm1 (DYNAMICS) S.D.=  1.41517257970575E-07
DEBUG_STATS_RL:               GsNm1 (DYNAMICS)  min= -3.60084496408196E-07
DEBUG_STATS_RL:               GsNm1 (DYNAMICS)  max=  3.41507158191899E-07
DEBUG_STATS_RL:               GsNm1 (DYNAMICS) mean= -2.46176693762351E-10
DEBUG_STATS_RL:               GsNm1 (DYNAMICS) S.D.=  1.40156903018522E-08
DEBUG_STATS_RL:    cg2d_b (SOLVE_FOR_PRESSURE)  min= -3.05894041294589E+04
DEBUG_STATS_RL:    cg2d_b (SOLVE_FOR_PRESSURE)  max=  3.26461096903846E+04
DEBUG_STATS_RL:    cg2d_b (SOLVE_FOR_PRESSURE) mean=  5.56649008911279E+00
DEBUG_STATS_RL:    cg2d_b (SOLVE_FOR_PRESSURE) S.D.=  4.07833073434154E+03
 cg2d: Sum(rhs),rhsMax =   3.94730786562734E-01  2.14428389199793E+00
(PID.TID 0000.0001)  cg2d: iter=     1 ; resid.=  1.02594722496197E-01
(PID.TID 0000.0001)  cg2d: iter=     2 ; resid.=  9.19399979798563E-02
(PID.TID 0000.0001)  cg2d: iter=     3 ; resid.=  9.27349663438461E-02
(PID.TID 0000.0001)  cg2d: iter=     4 ; resid.=  8.28264624461363E-02
(PID.TID 0000.0001)  cg2d: iter=     5 ; resid.=  7.56825582906869E-02
(PID.TID 0000.0001)  cg2d: iter=     6 ; resid.=  7.05237188502933E-02
(PID.TID 0000.0001)  cg2d: iter=     7 ; resid.=  5.38684656858432E-02
(PID.TID 0000.0001)  cg2d: iter=     8 ; resid.=  4.03916451419845E-02
(PID.TID 0000.0001)  cg2d: iter=     9 ; resid.=  3.08000703143678E-02
(PID.TID 0000.0001)  cg2d: iter=    10 ; resid.=  2.45552925684998E-02
(PID.TID 0000.0001)  cg2d: iter=    11 ; resid.=  2.11772047464342E-02
(PID.TID 0000.0001)  cg2d: iter=    12 ; resid.=  1.72480925056629E-02
(PID.TID 0000.0001)  cg2d: iter=    13 ; resid.=  1.42915628039501E-02
(PID.TID 0000.0001)  cg2d: iter=    14 ; resid.=  1.19184480584173E-02
(PID.TID 0000.0001)  cg2d: iter=    15 ; resid.=  9.83993496060303E-03
(PID.TID 0000.0001)  cg2d: iter=    16 ; resid.=  9.14970100271081E-03
(PID.TID 0000.0001)  cg2d: iter=    17 ; resid.=  8.39364999009745E-03
(PID.TID 0000.0001)  cg2d: iter=    18 ; resid.=  6.88998799705899E-03
(PID.TID 0000.0001)  cg2d: iter=    19 ; resid.=  5.71270000147579E-03
(PID.TID 0000.0001)  cg2d: iter=    20 ; resid.=  4.40633815500216E-03
(PID.TID 0000.0001)  cg2d: iter=    21 ; resid.=  3.60306967379632E-03
(PID.TID 0000.0001)  cg2d: iter=    22 ; resid.=  3.24290733747788E-03
(PID.TID 0000.0001)  cg2d: iter=    23 ; resid.=  2.54885501025093E-03
(PID.TID 0000.0001)  cg2d: iter=    24 ; resid.=  2.24672036024181E-03
(PID.TID 0000.0001)  cg2d: iter=    25 ; resid.=  1.74232469193762E-03
(PID.TID 0000.0001)  cg2d: iter=    26 ; resid.=  1.35413221322111E-03
(PID.TID 0000.0001)  cg2d: iter=    27 ; resid.=  1.12106903029019E-03
(PID.TID 0000.0001)  cg2d: iter=    28 ; resid.=  9.33221786594322E-04
(PID.TID 0000.0001)  cg2d: iter=    29 ; resid.=  7.52788086083869E-04
(PID.TID 0000.0001)  cg2d: iter=    30 ; resid.=  6.35928059791755E-04
(PID.TID 0000.0001)  cg2d: iter=    31 ; resid.=  5.42428182430264E-04
(PID.TID 0000.0001)  cg2d: iter=    32 ; resid.=  3.94152069349413E-04
(PID.TID 0000.0001)  cg2d: iter=    33 ; resid.=  3.10973842936088E-04
(PID.TID 0000.0001)  cg2d: iter=    34 ; resid.=  2.94001918089817E-04
(PID.TID 0000.0001)  cg2d: iter=    35 ; resid.=  2.38410475138759E-04
(PID.TID 0000.0001)  cg2d: iter=    36 ; resid.=  1.99989281375827E-04
(PID.TID 0000.0001)  cg2d: iter=    37 ; resid.=  1.81696780419015E-04
(PID.TID 0000.0001)  cg2d: iter=    38 ; resid.=  1.52139871538340E-04
(PID.TID 0000.0001)  cg2d: iter=    39 ; resid.=  1.33310494961219E-04
(PID.TID 0000.0001)  cg2d: iter=    40 ; resid.=  1.13995427945506E-04
(PID.TID 0000.0001)  cg2d: iter=    41 ; resid.=  9.65312652918093E-05
(PID.TID 0000.0001)  cg2d: iter=    42 ; resid.=  8.27790608970048E-05
(PID.TID 0000.0001)  cg2d: iter=    43 ; resid.=  7.03025259881049E-05
(PID.TID 0000.0001)  cg2d: iter=    44 ; resid.=  5.53829211653173E-05
(PID.TID 0000.0001)  cg2d: iter=    45 ; resid.=  4.57772486591555E-05
(PID.TID 0000.0001)  cg2d: iter=    46 ; resid.=  3.54451682436490E-05
(PID.TID 0000.0001)  cg2d: iter=    47 ; resid.=  2.94969491748608E-05
(PID.TID 0000.0001)  cg2d: iter=    48 ; resid.=  2.75130924446152E-05
(PID.TID 0000.0001)  cg2d: iter=    49 ; resid.=  2.41551732425860E-05
(PID.TID 0000.0001)  cg2d: iter=    50 ; resid.=  1.96218106290394E-05
(PID.TID 0000.0001)  cg2d: iter=    51 ; resid.=  1.72413241803129E-05
(PID.TID 0000.0001)  cg2d: iter=    52 ; resid.=  1.43488184429894E-05
(PID.TID 0000.0001)  cg2d: iter=    53 ; resid.=  1.20228896957501E-05
(PID.TID 0000.0001)  cg2d: iter=    54 ; resid.=  9.01104158547725E-06
(PID.TID 0000.0001)  cg2d: iter=    55 ; resid.=  7.45277706861251E-06
(PID.TID 0000.0001)  cg2d: iter=    56 ; resid.=  6.93180718308780E-06
(PID.TID 0000.0001)  cg2d: iter=    57 ; resid.=  5.73771525514109E-06
(PID.TID 0000.0001)  cg2d: iter=    58 ; resid.=  4.37376869991038E-06
(PID.TID 0000.0001)  cg2d: iter=    59 ; resid.=  3.49986888761907E-06
(PID.TID 0000.0001)  cg2d: iter=    60 ; resid.=  2.96931334747036E-06
(PID.TID 0000.0001)  cg2d: iter=    61 ; resid.=  2.43734924909380E-06
(PID.TID 0000.0001)  cg2d: iter=    62 ; resid.=  2.11396866459753E-06
(PID.TID 0000.0001)  cg2d: iter=    63 ; resid.=  1.83991215070747E-06
(PID.TID 0000.0001)  cg2d: iter=    64 ; resid.=  1.48067770866781E-06
(PID.TID 0000.0001)  cg2d: iter=    65 ; resid.=  1.14403971057350E-06
(PID.TID 0000.0001)  cg2d: iter=    66 ; resid.=  8.98382711576054E-07
(PID.TID 0000.0001)  cg2d: iter=    67 ; resid.=  7.38337692318441E-07
(PID.TID 0000.0001)  cg2d: iter=    68 ; resid.=  5.96980910719974E-07
(PID.TID 0000.0001)  cg2d: iter=    69 ; resid.=  4.82988629538641E-07
(PID.TID 0000.0001)  cg2d: iter=    70 ; resid.=  3.99051385865885E-07
(PID.TID 0000.0001)  cg2d: iter=    71 ; resid.=  3.50060169607327E-07
(PID.TID 0000.0001)  cg2d: iter=    72 ; resid.=  3.23425929042331E-07
(PID.TID 0000.0001)  cg2d: iter=    73 ; resid.=  2.88152631000499E-07
(PID.TID 0000.0001)  cg2d: iter=    74 ; resid.=  2.40695983435369E-07
(PID.TID 0000.0001)  cg2d: iter=    75 ; resid.=  1.89234830746270E-07
(PID.TID 0000.0001)  cg2d: iter=    76 ; resid.=  1.45850129349939E-07
(PID.TID 0000.0001)  cg2d: iter=    77 ; resid.=  1.21653419052716E-07
(PID.TID 0000.0001)  cg2d: iter=    78 ; resid.=  1.03576501556290E-07
(PID.TID 0000.0001)  cg2d: iter=    79 ; resid.=  8.56236338845563E-08
(PID.TID 0000.0001)  cg2d: iter=    80 ; resid.=  6.81252361459906E-08
(PID.TID 0000.0001)  cg2d: iter=    81 ; resid.=  5.15587215090904E-08
(PID.TID 0000.0001)  cg2d: iter=    82 ; resid.=  3.66590836510327E-08
(PID.TID 0000.0001)  cg2d: iter=    83 ; resid.=  2.73563755223595E-08
(PID.TID 0000.0001)  cg2d: iter=    84 ; resid.=  1.97966144624468E-08
(PID.TID 0000.0001)  cg2d: iter=    85 ; resid.=  1.50671107914950E-08
(PID.TID 0000.0001)  cg2d: iter=    86 ; resid.=  1.20184055560209E-08
(PID.TID 0000.0001)  cg2d: iter=    87 ; resid.=  9.87026002633396E-09
(PID.TID 0000.0001)  cg2d: iter=    88 ; resid.=  7.87048673009301E-09
(PID.TID 0000.0001)  cg2d: iter=    89 ; resid.=  6.68060271673259E-09
(PID.TID 0000.0001)  cg2d: iter=    90 ; resid.=  5.33051801681672E-09
(PID.TID 0000.0001)  cg2d: iter=    91 ; resid.=  3.90623753108438E-09
(PID.TID 0000.0001)  cg2d: iter=    92 ; resid.=  2.85802904918472E-09
(PID.TID 0000.0001)  cg2d: iter=    93 ; resid.=  2.09940625907386E-09
(PID.TID 0000.0001)  cg2d: iter=    94 ; resid.=  1.69748428688155E-09
(PID.TID 0000.0001)  cg2d: iter=    95 ; resid.=  1.50460510819172E-09
(PID.TID 0000.0001)  cg2d: iter=    96 ; resid.=  1.14939283456069E-09
(PID.TID 0000.0001)  cg2d: iter=    97 ; resid.=  8.69399654296033E-10
(PID.TID 0000.0001)  cg2d: iter=    98 ; resid.=  6.94352342474160E-10
(PID.TID 0000.0001)  cg2d: iter=    99 ; resid.=  6.00008264217016E-10
(PID.TID 0000.0001)  cg2d: iter=   100 ; resid.=  5.47038010336353E-10
(PID.TID 0000.0001)  cg2d: iter=   101 ; resid.=  4.58976986351769E-10
(PID.TID 0000.0001)  cg2d: iter=   102 ; resid.=  3.70716353897731E-10
(PID.TID 0000.0001)  cg2d: iter=   103 ; resid.=  3.08576590269394E-10
(PID.TID 0000.0001)  cg2d: iter=   104 ; resid.=  2.48857818723959E-10
(PID.TID 0000.0001)  cg2d: iter=   105 ; resid.=  2.00950838191196E-10
(PID.TID 0000.0001)  cg2d: iter=   106 ; resid.=  1.54360849195286E-10
(PID.TID 0000.0001)  cg2d: iter=   107 ; resid.=  1.21144338535507E-10
(PID.TID 0000.0001)  cg2d: iter=   108 ; resid.=  9.00160951387113E-11
(PID.TID 0000.0001)  cg2d: iter=   109 ; resid.=  6.73815770199872E-11
(PID.TID 0000.0001)  cg2d: iter=   110 ; resid.=  5.49364373030345E-11
(PID.TID 0000.0001)  cg2d: iter=   111 ; resid.=  4.33438962310310E-11
(PID.TID 0000.0001)  cg2d: iter=   112 ; resid.=  3.20129659944737E-11
(PID.TID 0000.0001)  cg2d: iter=   113 ; resid.=  2.31686487797435E-11
(PID.TID 0000.0001)  cg2d: iter=   114 ; resid.=  1.85571436533352E-11
(PID.TID 0000.0001)  cg2d: iter=   115 ; resid.=  1.48082263812478E-11
(PID.TID 0000.0001)  cg2d: iter=   116 ; resid.=  1.12484276958479E-11
(PID.TID 0000.0001)  cg2d: iter=   117 ; resid.=  8.62423849799576E-12
(PID.TID 0000.0001)  cg2d: iter=   118 ; resid.=  6.41902439833543E-12
(PID.TID 0000.0001)  cg2d: iter=   119 ; resid.=  4.34468406433838E-12
(PID.TID 0000.0001)  cg2d: iter=   120 ; resid.=  3.54892691852738E-12
(PID.TID 0000.0001)  cg2d: iter=   121 ; resid.=  2.81930131358049E-12
(PID.TID 0000.0001)  cg2d: iter=   122 ; resid.=  2.07095883377114E-12
(PID.TID 0000.0001)  cg2d: iter=   123 ; resid.=  1.57332533038803E-12
(PID.TID 0000.0001)  cg2d: iter=   124 ; resid.=  1.13857645512804E-12
(PID.TID 0000.0001)  cg2d: iter=   125 ; resid.=  7.89889619700030E-13
(PID.TID 0000.0001)  cg2d: iter=   126 ; resid.=  5.63831406173570E-13
(PID.TID 0000.0001)  cg2d: iter=   127 ; resid.=  3.76491316956176E-13
(PID.TID 0000.0001)  cg2d: iter=   128 ; resid.=  2.88040178128256E-13
(PID.TID 0000.0001)  cg2d: iter=   129 ; resid.=  2.11498900574702E-13
(PID.TID 0000.0001)  cg2d: iter=   130 ; resid.=  1.61645590170116E-13
(PID.TID 0000.0001)  cg2d: iter=   131 ; resid.=  1.14175803019618E-13
(PID.TID 0000.0001)  cg2d: iter=   132 ; resid.=  8.49354727424102E-14
DEBUG_STATS_RL:    cg2d_x (SOLVE_FOR_PRESSURE)  min= -1.90398902393476E+01
DEBUG_STATS_RL:    cg2d_x (SOLVE_FOR_PRESSURE)  max=  8.05085404270251E+00
DEBUG_STATS_RL:    cg2d_x (SOLVE_FOR_PRESSURE) mean= -1.82542099254904E+00
DEBUG_STATS_RL:    cg2d_x (SOLVE_FOR_PRESSURE) S.D.=  6.93319155182009E+00
(PID.TID 0000.0001)      cg2d_init_res =   2.15227321097704E-01
(PID.TID 0000.0001)      cg2d_iters(min,last) =      -1     132
(PID.TID 0000.0001)      cg2d_last_res =   8.49354727424102E-14
(PID.TID 0000.0001) // =======================================================
(PID.TID 0000.0001) // Begin MONITOR dynamic field statistics
(PID.TID 0000.0001) // =======================================================
(PID.TID 0000.0001) %MON time_tsnumber                =                    92
(PID.TID 0000.0001) %MON time_secondsf                =   7.9488000000000E+06
(PID.TID 0000.0001) %MON dynstat_eta_max              =   8.2067829181476E-01
(PID.TID 0000.0001) %MON dynstat_eta_min              =  -1.9408654678234E+00
(PID.TID 0000.0001) %MON dynstat_eta_mean             =  -5.8079421860055E-03
(PID.TID 0000.0001) %MON dynstat_eta_sd               =   6.0237456058592E-01
(PID.TID 0000.0001) %MON dynstat_eta_del2             =   2.6043363113098E-03
(PID.TID 0000.0001) %MON dynstat_uvel_max             =   1.3739570019240E-01
(PID.TID 0000.0001) %MON dynstat_uvel_min             =  -1.4165343123517E-01
(PID.TID 0000.0001) %MON dynstat_uvel_mean            =   2.1458488917710E-03
(PID.TID 0000.0001) %MON dynstat_uvel_sd              =   1.5768840979934E-02
(PID.TID 0000.0001) %MON dynstat_uvel_del2            =   1.1998528609831E-04
(PID.TID 0000.0001) %MON dynstat_vvel_max             =   1.4565727512574E-01
(PID.TID 0000.0001) %MON dynstat_vvel_min             =  -9.9602442088199E-02
(PID.TID 0000.0001) %MON dynstat_vvel_mean            =   9.6758274295572E-05
(PID.TID 0000.0001) %MON dynstat_vvel_sd              =   8.7604752726782E-03
(PID.TID 0000.0001) %MON dynstat_vvel_del2            =   8.2325619560432E-05
(PID.TID 0000.0001) %MON dynstat_wvel_max             =   1.4096009814707E-04
(PID.TID 0000.0001) %MON dynstat_wvel_min             =  -7.3929350394142E-05
(PID.TID 0000.0001) %MON dynstat_wvel_mean            =   7.4797305522357E-23
(PID.TID 0000.0001) %MON dynstat_wvel_sd              =   1.1087658471521E-05
(PID.TID 0000.0001) %MON dynstat_wvel_del2            =   1.0782632486787E-07
(PID.TID 0000.0001) %MON dynstat_theta_max            =   3.1240883270865E+01
(PID.TID 0000.0001) %MON dynstat_theta_min            =  -1.9313787108669E+00
(PID.TID 0000.0001) %MON dynstat_theta_mean           =   3.6442388845289E+00
(PID.TID 0000.0001) %MON dynstat_theta_sd             =   4.4289919933998E+00
(PID.TID 0000.0001) %MON dynstat_theta_del2           =   4.8368382925839E-03
(PID.TID 0000.0001) %MON dynstat_salt_max             =   3.7486630785337E+01
(PID.TID 0000.0001) %MON dynstat_salt_min             =   2.9968337260858E+01
(PID.TID 0000.0001) %MON dynstat_salt_mean            =   3.4737992992427E+01
(PID.TID 0000.0001) %MON dynstat_salt_sd              =   2.9663788432062E-01
(PID.TID 0000.0001) %MON dynstat_salt_del2            =   9.9857463691029E-04
(PID.TID 0000.0001) %MON dynstat_sst_max              =   3.1240883270865E+01
(PID.TID 0000.0001) %MON dynstat_sst_min              =  -1.9313787108669E+00
(PID.TID 0000.0001) %MON dynstat_sst_mean             =   1.9064681047372E+01
(PID.TID 0000.0001) %MON dynstat_sst_sd               =   9.2711013676271E+00
(PID.TID 0000.0001) %MON dynstat_sst_del2             =   2.9351227968162E-02
(PID.TID 0000.0001) %MON dynstat_sss_max              =   3.7486630785337E+01
(PID.TID 0000.0001) %MON dynstat_sss_min              =   2.9968337260858E+01
(PID.TID 0000.0001) %MON dynstat_sss_mean             =   3.4857264680456E+01
(PID.TID 0000.0001) %MON dynstat_sss_sd               =   9.9185957843293E-01
(PID.TID 0000.0001) %MON dynstat_sss_del2             =   8.3153317498293E-03
(PID.TID 0000.0001) %MON forcing_qnet_max             =   1.9922393391927E+02
(PID.TID 0000.0001) %MON forcing_qnet_min             =  -1.5700764973958E+02
(PID.TID 0000.0001) %MON forcing_qnet_mean            =  -9.1248312663050E-01
(PID.TID 0000.0001) %MON forcing_qnet_sd              =   3.9520951895878E+01
(PID.TID 0000.0001) %MON forcing_qnet_del2            =   7.8352758501647E-01
(PID.TID 0000.0001) %MON forcing_qsw_max              =   0.0000000000000E+00
(PID.TID 0000.0001) %MON forcing_qsw_min              =   0.0000000000000E+00
(PID.TID 0000.0001) %MON forcing_qsw_mean             =   0.0000000000000E+00
(PID.TID 0000.0001) %MON forcing_qsw_sd               =   0.0000000000000E+00
(PID.TID 0000.0001) %MON forcing_qsw_del2             =   0.0000000000000E+00
(PID.TID 0000.0001) %MON forcing_empmr_max            =   6.7570085586037E-05
(PID.TID 0000.0001) %MON forcing_empmr_min            =  -8.3501954861731E-05
(PID.TID 0000.0001) %MON forcing_empmr_mean           =   1.9158521643765E-07
(PID.TID 0000.0001) %MON forcing_empmr_sd             =   2.5545939064587E-05
(PID.TID 0000.0001) %MON forcing_empmr_del2           =   3.6438848805785E-07
(PID.TID 0000.0001) %MON forcing_fu_max               =   3.4739760756493E-01
(PID.TID 0000.0001) %MON forcing_fu_min               =  -4.0348557233810E-01
(PID.TID 0000.0001) %MON forcing_fu_mean              =   1.8421655749463E-02
(PID.TID 0000.0001) %MON forcing_fu_sd                =   1.0042548414451E-01
(PID.TID 0000.0001) %MON forcing_fu_del2              =   7.7738003749810E-04
(PID.TID 0000.0001) %MON forcing_fv_max               =   1.8176432649295E-01
(PID.TID 0000.0001) %MON forcing_fv_min               =  -1.4326689740022E-01
(PID.TID 0000.0001) %MON forcing_fv_mean              =  -6.9459486820761E-03
(PID.TID 0000.0001) %MON forcing_fv_sd                =   3.8697920486892E-02
(PID.TID 0000.0001) %MON forcing_fv_del2              =   4.1531073929018E-04
(PID.TID 0000.0001) %MON trAdv_CFL_u_max              =   4.8745553067196E-02
(PID.TID 0000.0001) %MON trAdv_CFL_v_max              =   2.8585047823134E-02
(PID.TID 0000.0001) %MON trAdv_CFL_w_max              =   3.3196119185668E-02
(PID.TID 0000.0001) %MON advcfl_uvel_max              =   4.8538904458814E-02
(PID.TID 0000.0001) %MON advcfl_vvel_max              =   2.8298872495093E-02
(PID.TID 0000.0001) %MON advcfl_wvel_max              =   3.2394368946443E-02
(PID.TID 0000.0001) %MON advcfl_W_hf_max              =   3.6144846024135E-02
(PID.TID 0000.0001) %MON pe_b_mean                    =   4.6436001519274E-04
(PID.TID 0000.0001) %MON ke_max                       =   1.1510647058705E-02
(PID.TID 0000.0001) %MON ke_mean                      =   1.4951912491517E-04
(PID.TID 0000.0001) %MON ke_vol                       =   1.3226782436723E+18
(PID.TID 0000.0001) %MON vort_r_min                   =  -3.7595234254432E-07
(PID.TID 0000.0001) %MON vort_r_max                   =   4.9753960992479E-07
(PID.TID 0000.0001) %MON vort_a_mean                  =  -2.5274807314175E-05
(PID.TID 0000.0001) %MON vort_a_sd                    =   7.3604602468152E-05
(PID.TID 0000.0001) %MON vort_p_mean                  =  -3.1845655694546E-05
(PID.TID 0000.0001) %MON vort_p_sd                    =   1.3162462206796E-04
(PID.TID 0000.0001) %MON surfExpan_theta_mean         =  -4.0085361080429E-07
(PID.TID 0000.0001) %MON surfExpan_salt_mean          =   1.3861348394340E-07
(PID.TID 0000.0001) // =======================================================
(PID.TID 0000.0001) // End MONITOR dynamic field statistics
(PID.TID 0000.0001) // =======================================================
 EXTERNAL_FIELDS_LOAD,        92 : iP,iLd,i0,i1=    3    4    3    4 ; Wght=  0.4333333333  0.5666666667
 EXTERNAL_FIELDS_LOAD: (fu0,1),fu,fv= -2.7199E-02 -3.7252E-02 -3.2896E-02 -2.0206E-02
 EXTERNAL_FIELDS_LOAD: SST,SSS,Q,E-P= -5.9668E-02  3.4573E+01  1.5233E+02  8.3375E-06
DEBUG_STATS_RL:          Uvel (THERMODYNAMICS)  min= -1.41653431235167E-01
DEBUG_STATS_RL:          Uvel (THERMODYNAMICS)  max=  1.37395700192405E-01
DEBUG_STATS_RL:          Uvel (THERMODYNAMICS) mean=  5.68885183590358E-03
DEBUG_STATS_RL:          Uvel (THERMODYNAMICS) S.D.=  2.31092304111619E-02
DEBUG_STATS_RL:          Vvel (THERMODYNAMICS)  min= -9.96024420881993E-02
DEBUG_STATS_RL:          Vvel (THERMODYNAMICS)  max=  1.45657275125738E-01
DEBUG_STATS_RL:          Vvel (THERMODYNAMICS) mean=  9.66422190180585E-04
DEBUG_STATS_RL:          Vvel (THERMODYNAMICS) S.D.=  1.36939713082137E-02
DEBUG_STATS_RL:          Wvel (THERMODYNAMICS)  min= -7.39293503941423E-05
DEBUG_STATS_RL:          Wvel (THERMODYNAMICS)  max=  1.40960098147069E-04
DEBUG_STATS_RL:          Wvel (THERMODYNAMICS) mean= -2.05445700396763E-08
DEBUG_STATS_RL:          Wvel (THERMODYNAMICS) S.D.=  9.64685665669407E-06
DEBUG_STATS_RL:         Theta (THERMODYNAMICS)  min= -1.92993127661998E+00
DEBUG_STATS_RL:         Theta (THERMODYNAMICS)  max=  3.12545456025106E+01
DEBUG_STATS_RL:         Theta (THERMODYNAMICS) mean=  3.23999806219189E+00
DEBUG_STATS_RL:         Theta (THERMODYNAMICS) S.D.=  5.88923506493042E+00
DEBUG_STATS_RL:          Salt (THERMODYNAMICS)  min=  2.00000000000000E-02
DEBUG_STATS_RL:          Salt (THERMODYNAMICS)  max=  3.74868798051932E+01
DEBUG_STATS_RL:          Salt (THERMODYNAMICS) mean=  1.88647347500103E+01
DEBUG_STATS_RL:          Salt (THERMODYNAMICS) S.D.=  1.73002960934889E+01
DEBUG_STATS_RL:         GtNm1 (THERMODYNAMICS)  min= -2.24608795312034E-06
DEBUG_STATS_RL:         GtNm1 (THERMODYNAMICS)  max=  3.33232790077658E-06
DEBUG_STATS_RL:         GtNm1 (THERMODYNAMICS) mean= -1.65989182433115E-09
DEBUG_STATS_RL:         GtNm1 (THERMODYNAMICS) S.D.=  1.41607726416297E-07
DEBUG_STATS_RL:         GsNm1 (THERMODYNAMICS)  min= -4.09809201214266E-07
DEBUG_STATS_RL:         GsNm1 (THERMODYNAMICS)  max=  4.05074199360459E-07
DEBUG_STATS_RL:         GsNm1 (THERMODYNAMICS) mean= -2.48761293752124E-10
DEBUG_STATS_RL:         GsNm1 (THERMODYNAMICS) S.D.=  1.44064825548884E-08
DEBUG_STATS_RL:                EtaN (DYNAMICS)  min= -1.94086546782339E+00
DEBUG_STATS_RL:                EtaN (DYNAMICS)  max=  8.20678291814755E-01
DEBUG_STATS_RL:                EtaN (DYNAMICS) mean= -1.86077573144655E-01
DEBUG_STATS_RL:                EtaN (DYNAMICS) S.D.=  7.06747354925600E-01
DEBUG_STATS_RL:                Uvel (DYNAMICS)  min= -1.41653431235167E-01
DEBUG_STATS_RL:                Uvel (DYNAMICS)  max=  1.37395700192405E-01
DEBUG_STATS_RL:                Uvel (DYNAMICS) mean=  5.68885183590358E-03
DEBUG_STATS_RL:                Uvel (DYNAMICS) S.D.=  2.31092304111619E-02
DEBUG_STATS_RL:                Vvel (DYNAMICS)  min= -9.96024420881993E-02
DEBUG_STATS_RL:                Vvel (DYNAMICS)  max=  1.45657275125738E-01
DEBUG_STATS_RL:                Vvel (DYNAMICS) mean=  9.66422190180585E-04
DEBUG_STATS_RL:                Vvel (DYNAMICS) S.D.=  1.36939713082137E-02
DEBUG_STATS_RL:                Wvel (DYNAMICS)  min= -7.39293503941423E-05
DEBUG_STATS_RL:                Wvel (DYNAMICS)  max=  1.40960098147069E-04
DEBUG_STATS_RL:                Wvel (DYNAMICS) mean= -2.05445700396763E-08
DEBUG_STATS_RL:                Wvel (DYNAMICS) S.D.=  9.64685665669407E-06
DEBUG_STATS_RL:               Theta (DYNAMICS)  min= -1.92993127661998E+00
DEBUG_STATS_RL:               Theta (DYNAMICS)  max=  3.12545456025106E+01
DEBUG_STATS_RL:               Theta (DYNAMICS) mean=  3.23999806219189E+00
DEBUG_STATS_RL:               Theta (DYNAMICS) S.D.=  5.88923506493042E+00
DEBUG_STATS_RL:                Salt (DYNAMICS)  min=  2.00000000000000E-02
DEBUG_STATS_RL:                Salt (DYNAMICS)  max=  3.74868798051932E+01
DEBUG_STATS_RL:                Salt (DYNAMICS) mean=  1.88647347500103E+01
DEBUG_STATS_RL:                Salt (DYNAMICS) S.D.=  1.73002960934889E+01
DEBUG_STATS_RL:                  Gu (DYNAMICS)  min= -1.40707876163312E-01
DEBUG_STATS_RL:                  Gu (DYNAMICS)  max=  1.31019674205484E-01
DEBUG_STATS_RL:                  Gu (DYNAMICS) mean=  5.62694143907895E-03
DEBUG_STATS_RL:                  Gu (DYNAMICS) S.D.=  2.34512539894968E-02
DEBUG_STATS_RL:                  Gv (DYNAMICS)  min= -9.71084544746728E-02
DEBUG_STATS_RL:                  Gv (DYNAMICS)  max=  1.45561463861241E-01
DEBUG_STATS_RL:                  Gv (DYNAMICS) mean=  3.47109836850487E-03
DEBUG_STATS_RL:                  Gv (DYNAMICS) S.D.=  1.52102167848147E-02
DEBUG_STATS_RL:               GuNm1 (DYNAMICS)  min= -9.91313618078671E-06
DEBUG_STATS_RL:               GuNm1 (DYNAMICS)  max=  1.01280535673198E-05
DEBUG_STATS_RL:               GuNm1 (DYNAMICS) mean=  1.72250859940795E-08
DEBUG_STATS_RL:               GuNm1 (DYNAMICS) S.D.=  1.23308632725977E-06
DEBUG_STATS_RL:               GvNm1 (DYNAMICS)  min= -9.28626042864134E-06
DEBUG_STATS_RL:               GvNm1 (DYNAMICS)  max=  1.50757556145537E-05
DEBUG_STATS_RL:               GvNm1 (DYNAMICS) mean=  7.41446257087462E-07
DEBUG_STATS_RL:               GvNm1 (DYNAMICS) S.D.=  2.61002240349360E-06
DEBUG_STATS_RL:               GtNm1 (DYNAMICS)  min= -2.24608795312034E-06
DEBUG_STATS_RL:               GtNm1 (DYNAMICS)  max=  3.33232790077658E-06
DEBUG_STATS_RL:               GtNm1 (DYNAMICS) mean= -1.65989182433115E-09
DEBUG_STATS_RL:               GtNm1 (DYNAMICS) S.D.=  1.41607726416297E-07
DEBUG_STATS_RL:               GsNm1 (DYNAMICS)  min= -4.09809201214266E-07
DEBUG_STATS_RL:               GsNm1 (DYNAMICS)  max=  4.05074199360459E-07
DEBUG_STATS_RL:               GsNm1 (DYNAMICS) mean= -2.48761293752124E-10
DEBUG_STATS_RL:               GsNm1 (DYNAMICS) S.D.=  1.44064825548884E-08
DEBUG_STATS_RL:    cg2d_b (SOLVE_FOR_PRESSURE)  min= -3.02599275013547E+04
DEBUG_STATS_RL:    cg2d_b (SOLVE_FOR_PRESSURE)  max=  3.27601828735876E+04
DEBUG_STATS_RL:    cg2d_b (SOLVE_FOR_PRESSURE) mean=  5.58002260337563E+00
DEBUG_STATS_RL:    cg2d_b (SOLVE_FOR_PRESSURE) S.D.=  4.07857815689735E+03
 cg2d: Sum(rhs),rhsMax =   3.94312582950462E-01  2.15177652409318E+00
(PID.TID 0000.0001)  cg2d: iter=     1 ; resid.=  9.74131948715424E-02
(PID.TID 0000.0001)  cg2d: iter=     2 ; resid.=  8.32687758830478E-02
(PID.TID 0000.0001)  cg2d: iter=     3 ; resid.=  8.24904121484316E-02
(PID.TID 0000.0001)  cg2d: iter=     4 ; resid.=  7.34929452757051E-02
(PID.TID 0000.0001)  cg2d: iter=     5 ; resid.=  6.56378722208262E-02
(PID.TID 0000.0001)  cg2d: iter=     6 ; resid.=  6.17346178599509E-02
(PID.TID 0000.0001)  cg2d: iter=     7 ; resid.=  4.82474465460158E-02
(PID.TID 0000.0001)  cg2d: iter=     8 ; resid.=  3.75007735927704E-02
(PID.TID 0000.0001)  cg2d: iter=     9 ; resid.=  2.93823354558535E-02
(PID.TID 0000.0001)  cg2d: iter=    10 ; resid.=  2.37490615381155E-02
(PID.TID 0000.0001)  cg2d: iter=    11 ; resid.=  2.04522541451994E-02
(PID.TID 0000.0001)  cg2d: iter=    12 ; resid.=  1.62778106003750E-02
(PID.TID 0000.0001)  cg2d: iter=    13 ; resid.=  1.31805864238245E-02
(PID.TID 0000.0001)  cg2d: iter=    14 ; resid.=  1.09344621406803E-02
(PID.TID 0000.0001)  cg2d: iter=    15 ; resid.=  9.06720765212719E-03
(PID.TID 0000.0001)  cg2d: iter=    16 ; resid.=  8.35401330847949E-03
(PID.TID 0000.0001)  cg2d: iter=    17 ; resid.=  7.70028711336657E-03
(PID.TID 0000.0001)  cg2d: iter=    18 ; resid.=  6.40436592375638E-03
(PID.TID 0000.0001)  cg2d: iter=    19 ; resid.=  5.43372275657362E-03
(PID.TID 0000.0001)  cg2d: iter=    20 ; resid.=  4.16507181702022E-03
(PID.TID 0000.0001)  cg2d: iter=    21 ; resid.=  3.47037720056373E-03
(PID.TID 0000.0001)  cg2d: iter=    22 ; resid.=  3.07447264034453E-03
(PID.TID 0000.0001)  cg2d: iter=    23 ; resid.=  2.39777764981520E-03
(PID.TID 0000.0001)  cg2d: iter=    24 ; resid.=  2.07950688541902E-03
(PID.TID 0000.0001)  cg2d: iter=    25 ; resid.=  1.61779915128516E-03
(PID.TID 0000.0001)  cg2d: iter=    26 ; resid.=  1.27847224201503E-03
(PID.TID 0000.0001)  cg2d: iter=    27 ; resid.=  1.06903594996155E-03
(PID.TID 0000.0001)  cg2d: iter=    28 ; resid.=  8.97686528614118E-04
(PID.TID 0000.0001)  cg2d: iter=    29 ; resid.=  7.24434895579785E-04
(PID.TID 0000.0001)  cg2d: iter=    30 ; resid.=  6.09200752347943E-04
(PID.TID 0000.0001)  cg2d: iter=    31 ; resid.=  5.25486765925137E-04
(PID.TID 0000.0001)  cg2d: iter=    32 ; resid.=  3.85511551572205E-04
(PID.TID 0000.0001)  cg2d: iter=    33 ; resid.=  3.08229257717623E-04
(PID.TID 0000.0001)  cg2d: iter=    34 ; resid.=  2.89207916332028E-04
(PID.TID 0000.0001)  cg2d: iter=    35 ; resid.=  2.31737168876947E-04
(PID.TID 0000.0001)  cg2d: iter=    36 ; resid.=  1.96530752158279E-04
(PID.TID 0000.0001)  cg2d: iter=    37 ; resid.=  1.77248506167956E-04
(PID.TID 0000.0001)  cg2d: iter=    38 ; resid.=  1.49688597145460E-04
(PID.TID 0000.0001)  cg2d: iter=    39 ; resid.=  1.32187601602831E-04
(PID.TID 0000.0001)  cg2d: iter=    40 ; resid.=  1.13698932307546E-04
(PID.TID 0000.0001)  cg2d: iter=    41 ; resid.=  9.71108432349584E-05
(PID.TID 0000.0001)  cg2d: iter=    42 ; resid.=  8.45869845657104E-05
(PID.TID 0000.0001)  cg2d: iter=    43 ; resid.=  7.20890824782129E-05
(PID.TID 0000.0001)  cg2d: iter=    44 ; resid.=  5.63314256919342E-05
(PID.TID 0000.0001)  cg2d: iter=    45 ; resid.=  4.57835572017593E-05
(PID.TID 0000.0001)  cg2d: iter=    46 ; resid.=  3.51308878816023E-05
(PID.TID 0000.0001)  cg2d: iter=    47 ; resid.=  2.92701360244224E-05
(PID.TID 0000.0001)  cg2d: iter=    48 ; resid.=  2.68274510255920E-05
(PID.TID 0000.0001)  cg2d: iter=    49 ; resid.=  2.29544224951954E-05
(PID.TID 0000.0001)  cg2d: iter=    50 ; resid.=  1.84473936723271E-05
(PID.TID 0000.0001)  cg2d: iter=    51 ; resid.=  1.60192310790383E-05
(PID.TID 0000.0001)  cg2d: iter=    52 ; resid.=  1.33393346736808E-05
(PID.TID 0000.0001)  cg2d: iter=    53 ; resid.=  1.14579431520614E-05
(PID.TID 0000.0001)  cg2d: iter=    54 ; resid.=  8.84999254612247E-06
(PID.TID 0000.0001)  cg2d: iter=    55 ; resid.=  7.34497027777267E-06
(PID.TID 0000.0001)  cg2d: iter=    56 ; resid.=  6.64917785201244E-06
(PID.TID 0000.0001)  cg2d: iter=    57 ; resid.=  5.36931386729603E-06
(PID.TID 0000.0001)  cg2d: iter=    58 ; resid.=  4.03372741457190E-06
(PID.TID 0000.0001)  cg2d: iter=    59 ; resid.=  3.18911036514920E-06
(PID.TID 0000.0001)  cg2d: iter=    60 ; resid.=  2.72571184364766E-06
(PID.TID 0000.0001)  cg2d: iter=    61 ; resid.=  2.25306576160717E-06
(PID.TID 0000.0001)  cg2d: iter=    62 ; resid.=  1.95844562916775E-06
(PID.TID 0000.0001)  cg2d: iter=    63 ; resid.=  1.74133943802968E-06
(PID.TID 0000.0001)  cg2d: iter=    64 ; resid.=  1.43383043776866E-06
(PID.TID 0000.0001)  cg2d: iter=    65 ; resid.=  1.10446443410794E-06
(PID.TID 0000.0001)  cg2d: iter=    66 ; resid.=  8.63041418812161E-07
(PID.TID 0000.0001)  cg2d: iter=    67 ; resid.=  7.13332532995695E-07
(PID.TID 0000.0001)  cg2d: iter=    68 ; resid.=  5.51591383984987E-07
(PID.TID 0000.0001)  cg2d: iter=    69 ; resid.=  4.35645816698101E-07
(PID.TID 0000.0001)  cg2d: iter=    70 ; resid.=  3.53607216517213E-07
(PID.TID 0000.0001)  cg2d: iter=    71 ; resid.=  3.10767118632468E-07
(PID.TID 0000.0001)  cg2d: iter=    72 ; resid.=  2.86871087672629E-07
(PID.TID 0000.0001)  cg2d: iter=    73 ; resid.=  2.62497037122011E-07
(PID.TID 0000.0001)  cg2d: iter=    74 ; resid.=  2.16876741967794E-07
(PID.TID 0000.0001)  cg2d: iter=    75 ; resid.=  1.69044226750648E-07
(PID.TID 0000.0001)  cg2d: iter=    76 ; resid.=  1.33379799136944E-07
(PID.TID 0000.0001)  cg2d: iter=    77 ; resid.=  1.13411806467154E-07
(PID.TID 0000.0001)  cg2d: iter=    78 ; resid.=  9.68860903309764E-08
(PID.TID 0000.0001)  cg2d: iter=    79 ; resid.=  8.12804670560183E-08
(PID.TID 0000.0001)  cg2d: iter=    80 ; resid.=  6.44457882169040E-08
(PID.TID 0000.0001)  cg2d: iter=    81 ; resid.=  4.80607357308325E-08
(PID.TID 0000.0001)  cg2d: iter=    82 ; resid.=  3.47712682310023E-08
(PID.TID 0000.0001)  cg2d: iter=    83 ; resid.=  2.59457926683735E-08
(PID.TID 0000.0001)  cg2d: iter=    84 ; resid.=  1.86006356463660E-08
(PID.TID 0000.0001)  cg2d: iter=    85 ; resid.=  1.42492660531966E-08
(PID.TID 0000.0001)  cg2d: iter=    86 ; resid.=  1.15313845238238E-08
(PID.TID 0000.0001)  cg2d: iter=    87 ; resid.=  9.33829625117385E-09
(PID.TID 0000.0001)  cg2d: iter=    88 ; resid.=  7.29726722001445E-09
(PID.TID 0000.0001)  cg2d: iter=    89 ; resid.=  6.20883155567164E-09
(PID.TID 0000.0001)  cg2d: iter=    90 ; resid.=  4.98561617915778E-09
(PID.TID 0000.0001)  cg2d: iter=    91 ; resid.=  3.60911045011011E-09
(PID.TID 0000.0001)  cg2d: iter=    92 ; resid.=  2.59949742507349E-09
(PID.TID 0000.0001)  cg2d: iter=    93 ; resid.=  1.91245405021173E-09
(PID.TID 0000.0001)  cg2d: iter=    94 ; resid.=  1.50928756204962E-09
(PID.TID 0000.0001)  cg2d: iter=    95 ; resid.=  1.32212297434872E-09
(PID.TID 0000.0001)  cg2d: iter=    96 ; resid.=  1.01188868922774E-09
(PID.TID 0000.0001)  cg2d: iter=    97 ; resid.=  7.59916051746850E-10
(PID.TID 0000.0001)  cg2d: iter=    98 ; resid.=  5.97448227921660E-10
(PID.TID 0000.0001)  cg2d: iter=    99 ; resid.=  4.97164163531028E-10
(PID.TID 0000.0001)  cg2d: iter=   100 ; resid.=  4.45250225880936E-10
(PID.TID 0000.0001)  cg2d: iter=   101 ; resid.=  3.75071999848693E-10
(PID.TID 0000.0001)  cg2d: iter=   102 ; resid.=  3.07850887840369E-10
(PID.TID 0000.0001)  cg2d: iter=   103 ; resid.=  2.64837404759785E-10
(PID.TID 0000.0001)  cg2d: iter=   104 ; resid.=  2.18147813142885E-10
(PID.TID 0000.0001)  cg2d: iter=   105 ; resid.=  1.78636201887808E-10
(PID.TID 0000.0001)  cg2d: iter=   106 ; resid.=  1.37450105657774E-10
(PID.TID 0000.0001)  cg2d: iter=   107 ; resid.=  1.08687474287429E-10
(PID.TID 0000.0001)  cg2d: iter=   108 ; resid.=  8.16457388418010E-11
(PID.TID 0000.0001)  cg2d: iter=   109 ; resid.=  6.23544889928290E-11
(PID.TID 0000.0001)  cg2d: iter=   110 ; resid.=  5.22884898906727E-11
(PID.TID 0000.0001)  cg2d: iter=   111 ; resid.=  4.26344353057837E-11
(PID.TID 0000.0001)  cg2d: iter=   112 ; resid.=  3.20655448819763E-11
(PID.TID 0000.0001)  cg2d: iter=   113 ; resid.=  2.29235168160639E-11
(PID.TID 0000.0001)  cg2d: iter=   114 ; resid.=  1.79835511626089E-11
(PID.TID 0000.0001)  cg2d: iter=   115 ; resid.=  1.41546092134984E-11
(PID.TID 0000.0001)  cg2d: iter=   116 ; resid.=  1.05576301426210E-11
(PID.TID 0000.0001)  cg2d: iter=   117 ; resid.=  8.10100582915215E-12
(PID.TID 0000.0001)  cg2d: iter=   118 ; resid.=  6.20948175462109E-12
(PID.TID 0000.0001)  cg2d: iter=   119 ; resid.=  4.29200713567814E-12
(PID.TID 0000.0001)  cg2d: iter=   120 ; resid.=  3.45727635316533E-12
(PID.TID 0000.0001)  cg2d: iter=   121 ; resid.=  2.68713070068753E-12
(PID.TID 0000.0001)  cg2d: iter=   122 ; resid.=  1.96103059488636E-12
(PID.TID 0000.0001)  cg2d: iter=   123 ; resid.=  1.47513503910821E-12
(PID.TID 0000.0001)  cg2d: iter=   124 ; resid.=  1.08210033089148E-12
(PID.TID 0000.0001)  cg2d: iter=   125 ; resid.=  7.85739023744175E-13
(PID.TID 0000.0001)  cg2d: iter=   126 ; resid.=  5.76502191202217E-13
(PID.TID 0000.0001)  cg2d: iter=   127 ; resid.=  3.88464420772395E-13
(PID.TID 0000.0001)  cg2d: iter=   128 ; resid.=  2.92700747905930E-13
(PID.TID 0000.0001)  cg2d: iter=   129 ; resid.=  2.13162200087118E-13
(PID.TID 0000.0001)  cg2d: iter=   130 ; resid.=  1.60877764024992E-13
(PID.TID 0000.0001)  cg2d: iter=   131 ; resid.=  1.12776081929519E-13
(PID.TID 0000.0001)  cg2d: iter=   132 ; resid.=  8.37474319964285E-14
DEBUG_STATS_RL:    cg2d_x (SOLVE_FOR_PRESSURE)  min= -1.87355814047462E+01
DEBUG_STATS_RL:    cg2d_x (SOLVE_FOR_PRESSURE)  max=  7.82835805806444E+00
DEBUG_STATS_RL:    cg2d_x (SOLVE_FOR_PRESSURE) mean= -1.80770716010504E+00
DEBUG_STATS_RL:    cg2d_x (SOLVE_FOR_PRESSURE) S.D.=  6.88880770796097E+00
(PID.TID 0000.0001)      cg2d_init_res =   2.11276579677901E-01
(PID.TID 0000.0001)      cg2d_iters(min,last) =      -1     132
(PID.TID 0000.0001)      cg2d_last_res =   8.37474319964285E-14
(PID.TID 0000.0001) // =======================================================
(PID.TID 0000.0001) // Begin MONITOR dynamic field statistics
(PID.TID 0000.0001) // =======================================================
(PID.TID 0000.0001) %MON time_tsnumber                =                    93
(PID.TID 0000.0001) %MON time_secondsf                =   8.0352000000000E+06
(PID.TID 0000.0001) %MON dynstat_eta_max              =   7.9799776330930E-01
(PID.TID 0000.0001) %MON dynstat_eta_min              =  -1.9098451992606E+00
(PID.TID 0000.0001) %MON dynstat_eta_mean             =  -5.8220616866617E-03
(PID.TID 0000.0001) %MON dynstat_eta_sd               =   5.9762315046217E-01
(PID.TID 0000.0001) %MON dynstat_eta_del2             =   2.6039552700036E-03
(PID.TID 0000.0001) %MON dynstat_uvel_max             =   1.3402638228418E-01
(PID.TID 0000.0001) %MON dynstat_uvel_min             =  -1.4182619064662E-01
(PID.TID 0000.0001) %MON dynstat_uvel_mean            =   2.1426453145159E-03
(PID.TID 0000.0001) %MON dynstat_uvel_sd              =   1.5699924731199E-02
(PID.TID 0000.0001) %MON dynstat_uvel_del2            =   1.2008429146519E-04
(PID.TID 0000.0001) %MON dynstat_vvel_max             =   1.4357384722081E-01
(PID.TID 0000.0001) %MON dynstat_vvel_min             =  -9.9523600092653E-02
(PID.TID 0000.0001) %MON dynstat_vvel_mean            =   9.4295792537562E-05
(PID.TID 0000.0001) %MON dynstat_vvel_sd              =   8.7105022243743E-03
(PID.TID 0000.0001) %MON dynstat_vvel_del2            =   8.2040354577718E-05
(PID.TID 0000.0001) %MON dynstat_wvel_max             =   1.2972727618589E-04
(PID.TID 0000.0001) %MON dynstat_wvel_min             =  -7.7483190033127E-05
(PID.TID 0000.0001) %MON dynstat_wvel_mean            =  -2.9817999748256E-23
(PID.TID 0000.0001) %MON dynstat_wvel_sd              =   1.0941698211888E-05
(PID.TID 0000.0001) %MON dynstat_wvel_del2            =   1.0669068630923E-07
(PID.TID 0000.0001) %MON dynstat_theta_max            =   3.1254545602511E+01
(PID.TID 0000.0001) %MON dynstat_theta_min            =  -1.9299312766200E+00
(PID.TID 0000.0001) %MON dynstat_theta_mean           =   3.6442489539122E+00
(PID.TID 0000.0001) %MON dynstat_theta_sd             =   4.4290603286360E+00
(PID.TID 0000.0001) %MON dynstat_theta_del2           =   4.8342979206990E-03
(PID.TID 0000.0001) %MON dynstat_salt_max             =   3.7486879805193E+01
(PID.TID 0000.0001) %MON dynstat_salt_min             =   2.9972474599094E+01
(PID.TID 0000.0001) %MON dynstat_salt_mean            =   3.4737990487985E+01
(PID.TID 0000.0001) %MON dynstat_salt_sd              =   2.9663975668862E-01
(PID.TID 0000.0001) %MON dynstat_salt_del2            =   9.9891489009350E-04
(PID.TID 0000.0001) %MON dynstat_sst_max              =   3.1254545602511E+01
(PID.TID 0000.0001) %MON dynstat_sst_min              =  -1.9299312766200E+00
(PID.TID 0000.0001) %MON dynstat_sst_mean             =   1.9061808975219E+01
(PID.TID 0000.0001) %MON dynstat_sst_sd               =   9.2782193521901E+00
(PID.TID 0000.0001) %MON dynstat_sst_del2             =   2.9373053542017E-02
(PID.TID 0000.0001) %MON dynstat_sss_max              =   3.7486879805193E+01
(PID.TID 0000.0001) %MON dynstat_sss_min              =   2.9972474599094E+01
(PID.TID 0000.0001) %MON dynstat_sss_mean             =   3.4857080739797E+01
(PID.TID 0000.0001) %MON dynstat_sss_sd               =   9.9227167397306E-01
(PID.TID 0000.0001) %MON dynstat_sss_del2             =   8.3249089052596E-03
(PID.TID 0000.0001) %MON forcing_qnet_max             =   1.9451869913737E+02
(PID.TID 0000.0001) %MON forcing_qnet_min             =  -1.5657965342204E+02
(PID.TID 0000.0001) %MON forcing_qnet_mean            =  -5.1544669766086E-01
(PID.TID 0000.0001) %MON forcing_qnet_sd              =   3.9728111557903E+01
(PID.TID 0000.0001) %MON forcing_qnet_del2            =   7.8346921016286E-01
(PID.TID 0000.0001) %MON forcing_qsw_max              =   0.0000000000000E+00
(PID.TID 0000.0001) %MON forcing_qsw_min              =   0.0000000000000E+00
(PID.TID 0000.0001) %MON forcing_qsw_mean             =   0.0000000000000E+00
(PID.TID 0000.0001) %MON forcing_qsw_sd               =   0.0000000000000E+00
(PID.TID 0000.0001) %MON forcing_qsw_del2             =   0.0000000000000E+00
(PID.TID 0000.0001) %MON forcing_empmr_max            =   6.7473914574142E-05
(PID.TID 0000.0001) %MON forcing_empmr_min            =  -8.3516800941652E-05
(PID.TID 0000.0001) %MON forcing_empmr_mean           =   1.6913985161008E-07
(PID.TID 0000.0001) %MON forcing_empmr_sd             =   2.5530162049708E-05
(PID.TID 0000.0001) %MON forcing_empmr_del2           =   3.6488800752658E-07
(PID.TID 0000.0001) %MON forcing_fu_max               =   3.4690555334091E-01
(PID.TID 0000.0001) %MON forcing_fu_min               =  -4.0441864430904E-01
(PID.TID 0000.0001) %MON forcing_fu_mean              =   1.8294463652530E-02
(PID.TID 0000.0001) %MON forcing_fu_sd                =   1.0052224849844E-01
(PID.TID 0000.0001) %MON forcing_fu_del2              =   7.7883912812643E-04
(PID.TID 0000.0001) %MON forcing_fv_max               =   1.8166832526525E-01
(PID.TID 0000.0001) %MON forcing_fv_min               =  -1.4357230017583E-01
(PID.TID 0000.0001) %MON forcing_fv_mean              =  -6.9094720097030E-03
(PID.TID 0000.0001) %MON forcing_fv_sd                =   3.8668513823794E-02
(PID.TID 0000.0001) %MON forcing_fv_del2              =   4.1497869888265E-04
(PID.TID 0000.0001) %MON trAdv_CFL_u_max              =   4.8548763057466E-02
(PID.TID 0000.0001) %MON trAdv_CFL_v_max              =   2.8252882458902E-02
(PID.TID 0000.0001) %MON trAdv_CFL_w_max              =   3.0317806834491E-02
(PID.TID 0000.0001) %MON advcfl_uvel_max              =   4.8014099727542E-02
(PID.TID 0000.0001) %MON advcfl_vvel_max              =   2.7894095867331E-02
(PID.TID 0000.0001) %MON advcfl_wvel_max              =   3.0829607041415E-02
(PID.TID 0000.0001) %MON advcfl_W_hf_max              =   3.7435951407433E-02
(PID.TID 0000.0001) %MON pe_b_mean                    =   4.5706423689077E-04
(PID.TID 0000.0001) %MON ke_max                       =   1.1517776975315E-02
(PID.TID 0000.0001) %MON ke_mean                      =   1.4813543164693E-04
(PID.TID 0000.0001) %MON ke_vol                       =   1.3226782436723E+18
(PID.TID 0000.0001) %MON vort_r_min                   =  -3.7307697509898E-07
(PID.TID 0000.0001) %MON vort_r_max                   =   5.0403942486755E-07
(PID.TID 0000.0001) %MON vort_a_mean                  =  -2.5274807304145E-05
(PID.TID 0000.0001) %MON vort_a_sd                    =   7.3604606274207E-05
(PID.TID 0000.0001) %MON vort_p_mean                  =  -3.1845655681909E-05
(PID.TID 0000.0001) %MON vort_p_sd                    =   1.3162459646315E-04
(PID.TID 0000.0001) %MON surfExpan_theta_mean         =  -3.2396462841555E-07
(PID.TID 0000.0001) %MON surfExpan_salt_mean          =   1.1995180641627E-07
(PID.TID 0000.0001) // =======================================================
(PID.TID 0000.0001) // End MONITOR dynamic field statistics
(PID.TID 0000.0001) // =======================================================
 EXTERNAL_FIELDS_LOAD,        93 : iP,iLd,i0,i1=    3    4    3    4 ; Wght=  0.4000000000  0.6000000000
 EXTERNAL_FIELDS_LOAD: (fu0,1),fu,fv= -2.7199E-02 -3.7252E-02 -3.3231E-02 -2.1361E-02
 EXTERNAL_FIELDS_LOAD: SST,SSS,Q,E-P= -5.2360E-02  3.4573E+01  1.4862E+02  8.2938E-06
DEBUG_STATS_RL:          Uvel (THERMODYNAMICS)  min= -1.41826190646620E-01
DEBUG_STATS_RL:          Uvel (THERMODYNAMICS)  max=  1.34026382284184E-01
DEBUG_STATS_RL:          Uvel (THERMODYNAMICS) mean=  5.65934619328259E-03
DEBUG_STATS_RL:          Uvel (THERMODYNAMICS) S.D.=  2.30978637531352E-02
DEBUG_STATS_RL:          Vvel (THERMODYNAMICS)  min= -9.95236000926527E-02
DEBUG_STATS_RL:          Vvel (THERMODYNAMICS)  max=  1.43573847220806E-01
DEBUG_STATS_RL:          Vvel (THERMODYNAMICS) mean=  9.39790191629878E-04
DEBUG_STATS_RL:          Vvel (THERMODYNAMICS) S.D.=  1.36173939089321E-02
DEBUG_STATS_RL:          Wvel (THERMODYNAMICS)  min= -7.74831900331273E-05
DEBUG_STATS_RL:          Wvel (THERMODYNAMICS)  max=  1.29727276185886E-04
DEBUG_STATS_RL:          Wvel (THERMODYNAMICS) mean= -2.46760698765895E-08
DEBUG_STATS_RL:          Wvel (THERMODYNAMICS) S.D.=  9.50602756501379E-06
DEBUG_STATS_RL:         Theta (THERMODYNAMICS)  min= -1.92852857381124E+00
DEBUG_STATS_RL:         Theta (THERMODYNAMICS)  max=  3.12673494899470E+01
DEBUG_STATS_RL:         Theta (THERMODYNAMICS) mean=  3.23984997124155E+00
DEBUG_STATS_RL:         Theta (THERMODYNAMICS) S.D.=  5.88925346327149E+00
DEBUG_STATS_RL:          Salt (THERMODYNAMICS)  min=  2.00000000000000E-02
DEBUG_STATS_RL:          Salt (THERMODYNAMICS)  max=  3.74870973012326E+01
DEBUG_STATS_RL:          Salt (THERMODYNAMICS) mean=  1.88647262700254E+01
DEBUG_STATS_RL:          Salt (THERMODYNAMICS) S.D.=  1.73002890510102E+01
DEBUG_STATS_RL:         GtNm1 (THERMODYNAMICS)  min= -2.18486188412521E-06
DEBUG_STATS_RL:         GtNm1 (THERMODYNAMICS)  max=  2.00971953895804E-06
DEBUG_STATS_RL:         GtNm1 (THERMODYNAMICS) mean= -1.88907672890029E-09
DEBUG_STATS_RL:         GtNm1 (THERMODYNAMICS) S.D.=  1.37286424614001E-07
DEBUG_STATS_RL:         GsNm1 (THERMODYNAMICS)  min= -3.66826200142832E-07
DEBUG_STATS_RL:         GsNm1 (THERMODYNAMICS)  max=  3.38959246326774E-07
DEBUG_STATS_RL:         GsNm1 (THERMODYNAMICS) mean= -2.49533297911844E-10
DEBUG_STATS_RL:         GsNm1 (THERMODYNAMICS) S.D.=  1.37349764137907E-08
DEBUG_STATS_RL:                EtaN (DYNAMICS)  min= -1.90984519926058E+00
DEBUG_STATS_RL:                EtaN (DYNAMICS)  max=  7.97997763309304E-01
DEBUG_STATS_RL:                EtaN (DYNAMICS) mean= -1.84271881764020E-01
DEBUG_STATS_RL:                EtaN (DYNAMICS) S.D.=  7.02223007947096E-01
DEBUG_STATS_RL:                Uvel (DYNAMICS)  min= -1.41826190646620E-01
DEBUG_STATS_RL:                Uvel (DYNAMICS)  max=  1.34026382284184E-01
DEBUG_STATS_RL:                Uvel (DYNAMICS) mean=  5.65934619328259E-03
DEBUG_STATS_RL:                Uvel (DYNAMICS) S.D.=  2.30978637531352E-02
DEBUG_STATS_RL:                Vvel (DYNAMICS)  min= -9.95236000926527E-02
DEBUG_STATS_RL:                Vvel (DYNAMICS)  max=  1.43573847220806E-01
DEBUG_STATS_RL:                Vvel (DYNAMICS) mean=  9.39790191629878E-04
DEBUG_STATS_RL:                Vvel (DYNAMICS) S.D.=  1.36173939089321E-02
DEBUG_STATS_RL:                Wvel (DYNAMICS)  min= -7.74831900331273E-05
DEBUG_STATS_RL:                Wvel (DYNAMICS)  max=  1.29727276185886E-04
DEBUG_STATS_RL:                Wvel (DYNAMICS) mean= -2.46760698765895E-08
DEBUG_STATS_RL:                Wvel (DYNAMICS) S.D.=  9.50602756501379E-06
DEBUG_STATS_RL:               Theta (DYNAMICS)  min= -1.92852857381124E+00
DEBUG_STATS_RL:               Theta (DYNAMICS)  max=  3.12673494899470E+01
DEBUG_STATS_RL:               Theta (DYNAMICS) mean=  3.23984997124155E+00
DEBUG_STATS_RL:               Theta (DYNAMICS) S.D.=  5.88925346327149E+00
DEBUG_STATS_RL:                Salt (DYNAMICS)  min=  2.00000000000000E-02
DEBUG_STATS_RL:                Salt (DYNAMICS)  max=  3.74870973012326E+01
DEBUG_STATS_RL:                Salt (DYNAMICS) mean=  1.88647262700254E+01
DEBUG_STATS_RL:                Salt (DYNAMICS) S.D.=  1.73002890510102E+01
DEBUG_STATS_RL:                  Gu (DYNAMICS)  min= -1.40878088502213E-01
DEBUG_STATS_RL:                  Gu (DYNAMICS)  max=  1.32013198965815E-01
DEBUG_STATS_RL:                  Gu (DYNAMICS) mean=  5.59976370509866E-03
DEBUG_STATS_RL:                  Gu (DYNAMICS) S.D.=  2.34480324273573E-02
DEBUG_STATS_RL:                  Gv (DYNAMICS)  min= -9.70009554507533E-02
DEBUG_STATS_RL:                  Gv (DYNAMICS)  max=  1.43444757344824E-01
DEBUG_STATS_RL:                  Gv (DYNAMICS) mean=  3.46815287915801E-03
DEBUG_STATS_RL:                  Gv (DYNAMICS) S.D.=  1.51385237947204E-02
DEBUG_STATS_RL:               GuNm1 (DYNAMICS)  min= -9.82038593921880E-06
DEBUG_STATS_RL:               GuNm1 (DYNAMICS)  max=  1.02072269403430E-05
DEBUG_STATS_RL:               GuNm1 (DYNAMICS) mean=  1.76826313516808E-08
DEBUG_STATS_RL:               GuNm1 (DYNAMICS) S.D.=  1.23333717053885E-06
DEBUG_STATS_RL:               GvNm1 (DYNAMICS)  min= -9.29248177603453E-06
DEBUG_STATS_RL:               GvNm1 (DYNAMICS)  max=  1.50374690391014E-05
DEBUG_STATS_RL:               GvNm1 (DYNAMICS) mean=  7.42253639911196E-07
DEBUG_STATS_RL:               GvNm1 (DYNAMICS) S.D.=  2.60975925470435E-06
DEBUG_STATS_RL:               GtNm1 (DYNAMICS)  min= -2.18486188412521E-06
DEBUG_STATS_RL:               GtNm1 (DYNAMICS)  max=  2.00971953895804E-06
DEBUG_STATS_RL:               GtNm1 (DYNAMICS) mean= -1.88907672890029E-09
DEBUG_STATS_RL:               GtNm1 (DYNAMICS) S.D.=  1.37286424614001E-07
DEBUG_STATS_RL:               GsNm1 (DYNAMICS)  min= -3.66826200142832E-07
DEBUG_STATS_RL:               GsNm1 (DYNAMICS)  max=  3.38959246326774E-07
DEBUG_STATS_RL:               GsNm1 (DYNAMICS) mean= -2.49533297911844E-10
DEBUG_STATS_RL:               GsNm1 (DYNAMICS) S.D.=  1.37349764137907E-08
DEBUG_STATS_RL:    cg2d_b (SOLVE_FOR_PRESSURE)  min= -2.98575587227668E+04
DEBUG_STATS_RL:    cg2d_b (SOLVE_FOR_PRESSURE)  max=  3.28553955677400E+04
DEBUG_STATS_RL:    cg2d_b (SOLVE_FOR_PRESSURE) mean=  5.59175931246999E+00
DEBUG_STATS_RL:    cg2d_b (SOLVE_FOR_PRESSURE) S.D.=  4.07866875774258E+03
 cg2d: Sum(rhs),rhsMax =   3.93996863671249E-01  2.15803034877002E+00
(PID.TID 0000.0001)  cg2d: iter=     1 ; resid.=  9.25900511570532E-02
(PID.TID 0000.0001)  cg2d: iter=     2 ; resid.=  7.49669116428453E-02
(PID.TID 0000.0001)  cg2d: iter=     3 ; resid.=  7.22736935511013E-02
(PID.TID 0000.0001)  cg2d: iter=     4 ; resid.=  6.38941829929131E-02
(PID.TID 0000.0001)  cg2d: iter=     5 ; resid.=  5.52457872163830E-02
(PID.TID 0000.0001)  cg2d: iter=     6 ; resid.=  5.19589052629447E-02
(PID.TID 0000.0001)  cg2d: iter=     7 ; resid.=  4.17486186287872E-02
(PID.TID 0000.0001)  cg2d: iter=     8 ; resid.=  3.38582217555569E-02
(PID.TID 0000.0001)  cg2d: iter=     9 ; resid.=  2.73318985818420E-02
(PID.TID 0000.0001)  cg2d: iter=    10 ; resid.=  2.25235423510816E-02
(PID.TID 0000.0001)  cg2d: iter=    11 ; resid.=  1.94030922599832E-02
(PID.TID 0000.0001)  cg2d: iter=    12 ; resid.=  1.51996173854109E-02
(PID.TID 0000.0001)  cg2d: iter=    13 ; resid.=  1.20772319066708E-02
(PID.TID 0000.0001)  cg2d: iter=    14 ; resid.=  1.00002083120231E-02
(PID.TID 0000.0001)  cg2d: iter=    15 ; resid.=  8.31166000570039E-03
(PID.TID 0000.0001)  cg2d: iter=    16 ; resid.=  7.51299335352002E-03
(PID.TID 0000.0001)  cg2d: iter=    17 ; resid.=  6.89173056011512E-03
(PID.TID 0000.0001)  cg2d: iter=    18 ; resid.=  5.80144447800740E-03
(PID.TID 0000.0001)  cg2d: iter=    19 ; resid.=  5.03923722272284E-03
(PID.TID 0000.0001)  cg2d: iter=    20 ; resid.=  3.88421171648647E-03
(PID.TID 0000.0001)  cg2d: iter=    21 ; resid.=  3.31416151473165E-03
(PID.TID 0000.0001)  cg2d: iter=    22 ; resid.=  2.88983394216122E-03
(PID.TID 0000.0001)  cg2d: iter=    23 ; resid.=  2.25326923595600E-03
(PID.TID 0000.0001)  cg2d: iter=    24 ; resid.=  1.91504772272373E-03
(PID.TID 0000.0001)  cg2d: iter=    25 ; resid.=  1.49253723071822E-03
(PID.TID 0000.0001)  cg2d: iter=    26 ; resid.=  1.19549038231859E-03
(PID.TID 0000.0001)  cg2d: iter=    27 ; resid.=  1.00634371203086E-03
(PID.TID 0000.0001)  cg2d: iter=    28 ; resid.=  8.46050208351390E-04
(PID.TID 0000.0001)  cg2d: iter=    29 ; resid.=  6.82664460200631E-04
(PID.TID 0000.0001)  cg2d: iter=    30 ; resid.=  5.73049463524333E-04
(PID.TID 0000.0001)  cg2d: iter=    31 ; resid.=  5.01408791314595E-04
(PID.TID 0000.0001)  cg2d: iter=    32 ; resid.=  3.74658777464777E-04
(PID.TID 0000.0001)  cg2d: iter=    33 ; resid.=  3.03388878941136E-04
(PID.TID 0000.0001)  cg2d: iter=    34 ; resid.=  2.80659415234160E-04
(PID.TID 0000.0001)  cg2d: iter=    35 ; resid.=  2.23663856574796E-04
(PID.TID 0000.0001)  cg2d: iter=    36 ; resid.=  1.91719903792130E-04
(PID.TID 0000.0001)  cg2d: iter=    37 ; resid.=  1.70687978107067E-04
(PID.TID 0000.0001)  cg2d: iter=    38 ; resid.=  1.44789334228196E-04
(PID.TID 0000.0001)  cg2d: iter=    39 ; resid.=  1.27843058945743E-04
(PID.TID 0000.0001)  cg2d: iter=    40 ; resid.=  1.10146807166545E-04
(PID.TID 0000.0001)  cg2d: iter=    41 ; resid.=  9.48165039117360E-05
(PID.TID 0000.0001)  cg2d: iter=    42 ; resid.=  8.41898789668763E-05
(PID.TID 0000.0001)  cg2d: iter=    43 ; resid.=  7.21977393887713E-05
(PID.TID 0000.0001)  cg2d: iter=    44 ; resid.=  5.60116865290244E-05
(PID.TID 0000.0001)  cg2d: iter=    45 ; resid.=  4.46634911460151E-05
(PID.TID 0000.0001)  cg2d: iter=    46 ; resid.=  3.39036512112035E-05
(PID.TID 0000.0001)  cg2d: iter=    47 ; resid.=  2.82928049307293E-05
(PID.TID 0000.0001)  cg2d: iter=    48 ; resid.=  2.52040523086771E-05
(PID.TID 0000.0001)  cg2d: iter=    49 ; resid.=  2.09158103149624E-05
(PID.TID 0000.0001)  cg2d: iter=    50 ; resid.=  1.64619829645295E-05
(PID.TID 0000.0001)  cg2d: iter=    51 ; resid.=  1.40004023824951E-05
(PID.TID 0000.0001)  cg2d: iter=    52 ; resid.=  1.16933318214566E-05
(PID.TID 0000.0001)  cg2d: iter=    53 ; resid.=  1.03116812827928E-05
(PID.TID 0000.0001)  cg2d: iter=    54 ; resid.=  8.28230398437746E-06
(PID.TID 0000.0001)  cg2d: iter=    55 ; resid.=  6.94947866491640E-06
(PID.TID 0000.0001)  cg2d: iter=    56 ; resid.=  6.12119843258935E-06
(PID.TID 0000.0001)  cg2d: iter=    57 ; resid.=  4.86898627559583E-06
(PID.TID 0000.0001)  cg2d: iter=    58 ; resid.=  3.62384197526114E-06
(PID.TID 0000.0001)  cg2d: iter=    59 ; resid.=  2.81585902544491E-06
(PID.TID 0000.0001)  cg2d: iter=    60 ; resid.=  2.41171734571971E-06
(PID.TID 0000.0001)  cg2d: iter=    61 ; resid.=  1.98109370429495E-06
(PID.TID 0000.0001)  cg2d: iter=    62 ; resid.=  1.69996583237257E-06
(PID.TID 0000.0001)  cg2d: iter=    63 ; resid.=  1.54556770361707E-06
(PID.TID 0000.0001)  cg2d: iter=    64 ; resid.=  1.32421086766134E-06
(PID.TID 0000.0001)  cg2d: iter=    65 ; resid.=  1.03559661820282E-06
(PID.TID 0000.0001)  cg2d: iter=    66 ; resid.=  8.16604937372007E-07
(PID.TID 0000.0001)  cg2d: iter=    67 ; resid.=  6.81703728269654E-07
(PID.TID 0000.0001)  cg2d: iter=    68 ; resid.=  5.05751851906497E-07
(PID.TID 0000.0001)  cg2d: iter=    69 ; resid.=  3.90469921016268E-07
(PID.TID 0000.0001)  cg2d: iter=    70 ; resid.=  3.07588755396376E-07
(PID.TID 0000.0001)  cg2d: iter=    71 ; resid.=  2.67488431305814E-07
(PID.TID 0000.0001)  cg2d: iter=    72 ; resid.=  2.41789300135074E-07
(PID.TID 0000.0001)  cg2d: iter=    73 ; resid.=  2.23975065848821E-07
(PID.TID 0000.0001)  cg2d: iter=    74 ; resid.=  1.83233832451373E-07
(PID.TID 0000.0001)  cg2d: iter=    75 ; resid.=  1.43748600743690E-07
(PID.TID 0000.0001)  cg2d: iter=    76 ; resid.=  1.16815373205710E-07
(PID.TID 0000.0001)  cg2d: iter=    77 ; resid.=  1.02736344242987E-07
(PID.TID 0000.0001)  cg2d: iter=    78 ; resid.=  8.82252987735137E-08
(PID.TID 0000.0001)  cg2d: iter=    79 ; resid.=  7.49744673834111E-08
(PID.TID 0000.0001)  cg2d: iter=    80 ; resid.=  5.94405989495630E-08
(PID.TID 0000.0001)  cg2d: iter=    81 ; resid.=  4.38889386387613E-08
(PID.TID 0000.0001)  cg2d: iter=    82 ; resid.=  3.23237367219059E-08
(PID.TID 0000.0001)  cg2d: iter=    83 ; resid.=  2.41204494905347E-08
(PID.TID 0000.0001)  cg2d: iter=    84 ; resid.=  1.71068519295954E-08
(PID.TID 0000.0001)  cg2d: iter=    85 ; resid.=  1.29168301353252E-08
(PID.TID 0000.0001)  cg2d: iter=    86 ; resid.=  1.05006439078032E-08
(PID.TID 0000.0001)  cg2d: iter=    87 ; resid.=  8.39909061290735E-09
(PID.TID 0000.0001)  cg2d: iter=    88 ; resid.=  6.48815345413583E-09
(PID.TID 0000.0001)  cg2d: iter=    89 ; resid.=  5.55356445316082E-09
(PID.TID 0000.0001)  cg2d: iter=    90 ; resid.=  4.56679939802458E-09
(PID.TID 0000.0001)  cg2d: iter=    91 ; resid.=  3.31483149331680E-09
(PID.TID 0000.0001)  cg2d: iter=    92 ; resid.=  2.36095721029454E-09
(PID.TID 0000.0001)  cg2d: iter=    93 ; resid.=  1.73981518489544E-09
(PID.TID 0000.0001)  cg2d: iter=    94 ; resid.=  1.33367815690955E-09
(PID.TID 0000.0001)  cg2d: iter=    95 ; resid.=  1.13138534696832E-09
(PID.TID 0000.0001)  cg2d: iter=    96 ; resid.=  8.53269090855921E-10
(PID.TID 0000.0001)  cg2d: iter=    97 ; resid.=  6.33080989910458E-10
(PID.TID 0000.0001)  cg2d: iter=    98 ; resid.=  4.85270062541238E-10
(PID.TID 0000.0001)  cg2d: iter=    99 ; resid.=  3.81794389344767E-10
(PID.TID 0000.0001)  cg2d: iter=   100 ; resid.=  3.31094128820399E-10
(PID.TID 0000.0001)  cg2d: iter=   101 ; resid.=  2.73929298716237E-10
(PID.TID 0000.0001)  cg2d: iter=   102 ; resid.=  2.25519983893519E-10
(PID.TID 0000.0001)  cg2d: iter=   103 ; resid.=  2.00627014894379E-10
(PID.TID 0000.0001)  cg2d: iter=   104 ; resid.=  1.71178656717786E-10
(PID.TID 0000.0001)  cg2d: iter=   105 ; resid.=  1.43652509562579E-10
(PID.TID 0000.0001)  cg2d: iter=   106 ; resid.=  1.12360703049999E-10
(PID.TID 0000.0001)  cg2d: iter=   107 ; resid.=  8.95140879896707E-11
(PID.TID 0000.0001)  cg2d: iter=   108 ; resid.=  6.72526012463854E-11
(PID.TID 0000.0001)  cg2d: iter=   109 ; resid.=  5.16279688596063E-11
(PID.TID 0000.0001)  cg2d: iter=   110 ; resid.=  4.43907697819521E-11
(PID.TID 0000.0001)  cg2d: iter=   111 ; resid.=  3.78632541392544E-11
(PID.TID 0000.0001)  cg2d: iter=   112 ; resid.=  2.98671951025613E-11
(PID.TID 0000.0001)  cg2d: iter=   113 ; resid.=  2.14798048248887E-11
(PID.TID 0000.0001)  cg2d: iter=   114 ; resid.=  1.67202299462527E-11
(PID.TID 0000.0001)  cg2d: iter=   115 ; resid.=  1.30592710807208E-11
(PID.TID 0000.0001)  cg2d: iter=   116 ; resid.=  9.58704725099420E-12
(PID.TID 0000.0001)  cg2d: iter=   117 ; resid.=  7.27586722305905E-12
(PID.TID 0000.0001)  cg2d: iter=   118 ; resid.=  5.69980230919625E-12
(PID.TID 0000.0001)  cg2d: iter=   119 ; resid.=  4.03552410532389E-12
(PID.TID 0000.0001)  cg2d: iter=   120 ; resid.=  3.16629668739834E-12
(PID.TID 0000.0001)  cg2d: iter=   121 ; resid.=  2.39269156706229E-12
(PID.TID 0000.0001)  cg2d: iter=   122 ; resid.=  1.73292737490777E-12
(PID.TID 0000.0001)  cg2d: iter=   123 ; resid.=  1.28604413101718E-12
(PID.TID 0000.0001)  cg2d: iter=   124 ; resid.=  9.50326194514962E-13
(PID.TID 0000.0001)  cg2d: iter=   125 ; resid.=  7.24379553656459E-13
(PID.TID 0000.0001)  cg2d: iter=   126 ; resid.=  5.45206331903363E-13
(PID.TID 0000.0001)  cg2d: iter=   127 ; resid.=  3.72530289427354E-13
(PID.TID 0000.0001)  cg2d: iter=   128 ; resid.=  2.78586379106302E-13
(PID.TID 0000.0001)  cg2d: iter=   129 ; resid.=  2.03679510957697E-13
(PID.TID 0000.0001)  cg2d: iter=   130 ; resid.=  1.54763577261261E-13
(PID.TID 0000.0001)  cg2d: iter=   131 ; resid.=  1.09630270223371E-13
(PID.TID 0000.0001)  cg2d: iter=   132 ; resid.=  8.09059020355649E-14
DEBUG_STATS_RL:    cg2d_x (SOLVE_FOR_PRESSURE)  min= -1.84281890890971E+01
DEBUG_STATS_RL:    cg2d_x (SOLVE_FOR_PRESSURE)  max=  7.64709706744381E+00
DEBUG_STATS_RL:    cg2d_x (SOLVE_FOR_PRESSURE) mean= -1.79287660125245E+00
DEBUG_STATS_RL:    cg2d_x (SOLVE_FOR_PRESSURE) S.D.=  6.86269228002584E+00
(PID.TID 0000.0001)      cg2d_init_res =   2.07275017435087E-01
(PID.TID 0000.0001)      cg2d_iters(min,last) =      -1     132
(PID.TID 0000.0001)      cg2d_last_res =   8.09059020355649E-14
(PID.TID 0000.0001) // =======================================================
(PID.TID 0000.0001) // Begin MONITOR dynamic field statistics
(PID.TID 0000.0001) // =======================================================
(PID.TID 0000.0001) %MON time_tsnumber                =                    94
(PID.TID 0000.0001) %MON time_secondsf                =   8.1216000000000E+06
(PID.TID 0000.0001) %MON dynstat_eta_max              =   7.7952059810843E-01
(PID.TID 0000.0001) %MON dynstat_eta_min              =  -1.8785106105094E+00
(PID.TID 0000.0001) %MON dynstat_eta_mean             =  -5.8343074872973E-03
(PID.TID 0000.0001) %MON dynstat_eta_sd               =   5.9476479257959E-01
(PID.TID 0000.0001) %MON dynstat_eta_del2             =   2.6025164104498E-03
(PID.TID 0000.0001) %MON dynstat_uvel_max             =   1.3059234600645E-01
(PID.TID 0000.0001) %MON dynstat_uvel_min             =  -1.4182635840070E-01
(PID.TID 0000.0001) %MON dynstat_uvel_mean            =   2.1505726015515E-03
(PID.TID 0000.0001) %MON dynstat_uvel_sd              =   1.5636023798470E-02
(PID.TID 0000.0001) %MON dynstat_uvel_del2            =   1.2011429912865E-04
(PID.TID 0000.0001) %MON dynstat_vvel_max             =   1.4113764444284E-01
(PID.TID 0000.0001) %MON dynstat_vvel_min             =  -9.9238968026824E-02
(PID.TID 0000.0001) %MON dynstat_vvel_mean            =   9.0079682492019E-05
(PID.TID 0000.0001) %MON dynstat_vvel_sd              =   8.6576020606241E-03
(PID.TID 0000.0001) %MON dynstat_vvel_del2            =   8.1694420681432E-05
(PID.TID 0000.0001) %MON dynstat_wvel_max             =   1.1976106085252E-04
(PID.TID 0000.0001) %MON dynstat_wvel_min             =  -7.8884922153603E-05
(PID.TID 0000.0001) %MON dynstat_wvel_mean            =  -1.1865270207518E-22
(PID.TID 0000.0001) %MON dynstat_wvel_sd              =   1.0801586848393E-05
(PID.TID 0000.0001) %MON dynstat_wvel_del2            =   1.0560346332730E-07
(PID.TID 0000.0001) %MON dynstat_theta_max            =   3.1267349489947E+01
(PID.TID 0000.0001) %MON dynstat_theta_min            =  -1.9285285738112E+00
(PID.TID 0000.0001) %MON dynstat_theta_mean           =   3.6442549541977E+00
(PID.TID 0000.0001) %MON dynstat_theta_sd             =   4.4291133496746E+00
(PID.TID 0000.0001) %MON dynstat_theta_del2           =   4.8317399245049E-03
(PID.TID 0000.0001) %MON dynstat_salt_max             =   3.7487097301233E+01
(PID.TID 0000.0001) %MON dynstat_salt_min             =   2.9976569339657E+01
(PID.TID 0000.0001) %MON dynstat_salt_mean            =   3.4737988419371E+01
(PID.TID 0000.0001) %MON dynstat_salt_sd              =   2.9664262509425E-01
(PID.TID 0000.0001) %MON dynstat_salt_del2            =   9.9924583965418E-04
(PID.TID 0000.0001) %MON dynstat_sst_max              =   3.1267349489947E+01
(PID.TID 0000.0001) %MON dynstat_sst_min              =  -1.9285285738112E+00
(PID.TID 0000.0001) %MON dynstat_sst_mean             =   1.9058652755206E+01
(PID.TID 0000.0001) %MON dynstat_sst_sd               =   9.2853646115115E+00
(PID.TID 0000.0001) %MON dynstat_sst_del2             =   2.9392825311840E-02
(PID.TID 0000.0001) %MON dynstat_sss_max              =   3.7487097301233E+01
(PID.TID 0000.0001) %MON dynstat_sss_min              =   2.9976569339657E+01
(PID.TID 0000.0001) %MON dynstat_sss_mean             =   3.4856884127408E+01
(PID.TID 0000.0001) %MON dynstat_sss_sd               =   9.9268550502891E-01
(PID.TID 0000.0001) %MON dynstat_sss_del2             =   8.3341708440346E-03
(PID.TID 0000.0001) %MON forcing_qnet_max             =   1.8981346435547E+02
(PID.TID 0000.0001) %MON forcing_qnet_min             =  -1.5615165710449E+02
(PID.TID 0000.0001) %MON forcing_qnet_mean            =  -1.1841026869120E-01
(PID.TID 0000.0001) %MON forcing_qnet_sd              =   4.0013480692075E+01
(PID.TID 0000.0001) %MON forcing_qnet_del2            =   7.8393243873400E-01
(PID.TID 0000.0001) %MON forcing_qsw_max              =   0.0000000000000E+00
(PID.TID 0000.0001) %MON forcing_qsw_min              =   0.0000000000000E+00
(PID.TID 0000.0001) %MON forcing_qsw_mean             =   0.0000000000000E+00
(PID.TID 0000.0001) %MON forcing_qsw_sd               =   0.0000000000000E+00
(PID.TID 0000.0001) %MON forcing_qsw_del2             =   0.0000000000000E+00
(PID.TID 0000.0001) %MON forcing_empmr_max            =   6.7377743562247E-05
(PID.TID 0000.0001) %MON forcing_empmr_min            =  -8.3531647021573E-05
(PID.TID 0000.0001) %MON forcing_empmr_mean           =   1.4669448678252E-07
(PID.TID 0000.0001) %MON forcing_empmr_sd             =   2.5518064463179E-05
(PID.TID 0000.0001) %MON forcing_empmr_del2           =   3.6546096507275E-07
(PID.TID 0000.0001) %MON forcing_fu_max               =   3.4641349911690E-01
(PID.TID 0000.0001) %MON forcing_fu_min               =  -4.0535171627998E-01
(PID.TID 0000.0001) %MON forcing_fu_mean              =   1.8167271555597E-02
(PID.TID 0000.0001) %MON forcing_fu_sd                =   1.0064293488596E-01
(PID.TID 0000.0001) %MON forcing_fu_del2              =   7.8101122025666E-04
(PID.TID 0000.0001) %MON forcing_fv_max               =   1.8157232403755E-01
(PID.TID 0000.0001) %MON forcing_fv_min               =  -1.4387770295143E-01
(PID.TID 0000.0001) %MON forcing_fv_mean              =  -6.8729953373301E-03
(PID.TID 0000.0001) %MON forcing_fv_sd                =   3.8666482891470E-02
(PID.TID 0000.0001) %MON forcing_fv_del2              =   4.1536218314166E-04
(PID.TID 0000.0001) %MON trAdv_CFL_u_max              =   4.8023851734600E-02
(PID.TID 0000.0001) %MON trAdv_CFL_v_max              =   2.7848763655644E-02
(PID.TID 0000.0001) %MON trAdv_CFL_w_max              =   2.7701354666640E-02
(PID.TID 0000.0001) %MON advcfl_uvel_max              =   4.7194911754211E-02
(PID.TID 0000.0001) %MON advcfl_vvel_max              =   2.7420780739568E-02
(PID.TID 0000.0001) %MON advcfl_wvel_max              =   3.1543486674453E-02
(PID.TID 0000.0001) %MON advcfl_W_hf_max              =   3.8302805247550E-02
(PID.TID 0000.0001) %MON pe_b_mean                    =   4.5270312538356E-04
(PID.TID 0000.0001) %MON ke_max                       =   1.1501173743130E-02
(PID.TID 0000.0001) %MON ke_mean                      =   1.4682834704207E-04
(PID.TID 0000.0001) %MON ke_vol                       =   1.3226782436723E+18
(PID.TID 0000.0001) %MON vort_r_min                   =  -3.6932174323302E-07
(PID.TID 0000.0001) %MON vort_r_max                   =   5.0545723010988E-07
(PID.TID 0000.0001) %MON vort_a_mean                  =  -2.5274807288602E-05
(PID.TID 0000.0001) %MON vort_a_sd                    =   7.3604611843633E-05
(PID.TID 0000.0001) %MON vort_p_mean                  =  -3.1845655662325E-05
(PID.TID 0000.0001) %MON vort_p_sd                    =   1.3162458719482E-04
(PID.TID 0000.0001) %MON surfExpan_theta_mean         =  -2.4044710461667E-07
(PID.TID 0000.0001) %MON surfExpan_salt_mean          =   9.9607927332671E-08
(PID.TID 0000.0001) // =======================================================
(PID.TID 0000.0001) // End MONITOR dynamic field statistics
(PID.TID 0000.0001) // =======================================================
 EXTERNAL_FIELDS_LOAD,        94 : iP,iLd,i0,i1=    3    4    3    4 ; Wght=  0.3666666667  0.6333333333
 EXTERNAL_FIELDS_LOAD: (fu0,1),fu,fv= -2.7199E-02 -3.7252E-02 -3.3566E-02 -2.2515E-02
 EXTERNAL_FIELDS_LOAD: SST,SSS,Q,E-P= -4.5052E-02  3.4573E+01  1.4491E+02  8.2500E-06
DEBUG_STATS_RL:          Uvel (THERMODYNAMICS)  min= -1.41826358400698E-01
DEBUG_STATS_RL:          Uvel (THERMODYNAMICS)  max=  1.30592346006446E-01
DEBUG_STATS_RL:          Uvel (THERMODYNAMICS) mean=  5.64655966259322E-03
DEBUG_STATS_RL:          Uvel (THERMODYNAMICS) S.D.=  2.30900486548144E-02
DEBUG_STATS_RL:          Vvel (THERMODYNAMICS)  min= -9.92389680268237E-02
DEBUG_STATS_RL:          Vvel (THERMODYNAMICS)  max=  1.41137644442841E-01
DEBUG_STATS_RL:          Vvel (THERMODYNAMICS) mean=  9.14974011972803E-04
DEBUG_STATS_RL:          Vvel (THERMODYNAMICS) S.D.=  1.35361304922680E-02
DEBUG_STATS_RL:          Wvel (THERMODYNAMICS)  min= -7.88849221536032E-05
DEBUG_STATS_RL:          Wvel (THERMODYNAMICS)  max=  1.19761060852517E-04
DEBUG_STATS_RL:          Wvel (THERMODYNAMICS) mean= -2.82171375289879E-08
DEBUG_STATS_RL:          Wvel (THERMODYNAMICS) S.D.=  9.37143879505506E-06
DEBUG_STATS_RL:         Theta (THERMODYNAMICS)  min= -1.92706121728437E+00
DEBUG_STATS_RL:         Theta (THERMODYNAMICS)  max=  3.12793324615659E+01
DEBUG_STATS_RL:         Theta (THERMODYNAMICS) mean=  3.23969274102154E+00
DEBUG_STATS_RL:         Theta (THERMODYNAMICS) S.D.=  5.88924481472505E+00
DEBUG_STATS_RL:          Salt (THERMODYNAMICS)  min=  2.00000000000000E-02
DEBUG_STATS_RL:          Salt (THERMODYNAMICS)  max=  3.74872892663289E+01
DEBUG_STATS_RL:          Salt (THERMODYNAMICS) mean=  1.88647183167911E+01
DEBUG_STATS_RL:          Salt (THERMODYNAMICS) S.D.=  1.73002825050809E+01
DEBUG_STATS_RL:         GtNm1 (THERMODYNAMICS)  min= -2.58147562934108E-06
DEBUG_STATS_RL:         GtNm1 (THERMODYNAMICS)  max=  1.99040829053064E-06
DEBUG_STATS_RL:         GtNm1 (THERMODYNAMICS) mean= -2.07766893434366E-09
DEBUG_STATS_RL:         GtNm1 (THERMODYNAMICS) S.D.=  1.36938759684620E-07
DEBUG_STATS_RL:         GsNm1 (THERMODYNAMICS)  min= -8.10676790978800E-07
DEBUG_STATS_RL:         GsNm1 (THERMODYNAMICS)  max=  5.38532425398028E-07
DEBUG_STATS_RL:         GsNm1 (THERMODYNAMICS) mean= -2.45506670780611E-10
DEBUG_STATS_RL:         GsNm1 (THERMODYNAMICS) S.D.=  1.45932383853441E-08
DEBUG_STATS_RL:                EtaN (DYNAMICS)  min= -1.87851061050940E+00
DEBUG_STATS_RL:                EtaN (DYNAMICS)  max=  7.79520598108428E-01
DEBUG_STATS_RL:                EtaN (DYNAMICS) mean= -1.82760102064471E-01
DEBUG_STATS_RL:                EtaN (DYNAMICS) S.D.=  6.99560884814055E-01
DEBUG_STATS_RL:                Uvel (DYNAMICS)  min= -1.41826358400698E-01
DEBUG_STATS_RL:                Uvel (DYNAMICS)  max=  1.30592346006446E-01
DEBUG_STATS_RL:                Uvel (DYNAMICS) mean=  5.64655966259322E-03
DEBUG_STATS_RL:                Uvel (DYNAMICS) S.D.=  2.30900486548144E-02
DEBUG_STATS_RL:                Vvel (DYNAMICS)  min= -9.92389680268237E-02
DEBUG_STATS_RL:                Vvel (DYNAMICS)  max=  1.41137644442841E-01
DEBUG_STATS_RL:                Vvel (DYNAMICS) mean=  9.14974011972803E-04
DEBUG_STATS_RL:                Vvel (DYNAMICS) S.D.=  1.35361304922680E-02
DEBUG_STATS_RL:                Wvel (DYNAMICS)  min= -7.88849221536032E-05
DEBUG_STATS_RL:                Wvel (DYNAMICS)  max=  1.19761060852517E-04
DEBUG_STATS_RL:                Wvel (DYNAMICS) mean= -2.82171375289879E-08
DEBUG_STATS_RL:                Wvel (DYNAMICS) S.D.=  9.37143879505506E-06
DEBUG_STATS_RL:               Theta (DYNAMICS)  min= -1.92706121728437E+00
DEBUG_STATS_RL:               Theta (DYNAMICS)  max=  3.12793324615659E+01
DEBUG_STATS_RL:               Theta (DYNAMICS) mean=  3.23969274102154E+00
DEBUG_STATS_RL:               Theta (DYNAMICS) S.D.=  5.88924481472505E+00
DEBUG_STATS_RL:                Salt (DYNAMICS)  min=  2.00000000000000E-02
DEBUG_STATS_RL:                Salt (DYNAMICS)  max=  3.74872892663289E+01
DEBUG_STATS_RL:                Salt (DYNAMICS) mean=  1.88647183167911E+01
DEBUG_STATS_RL:                Salt (DYNAMICS) S.D.=  1.73002825050809E+01
DEBUG_STATS_RL:                  Gu (DYNAMICS)  min= -1.40877701020685E-01
DEBUG_STATS_RL:                  Gu (DYNAMICS)  max=  1.32544141150463E-01
DEBUG_STATS_RL:                  Gu (DYNAMICS) mean=  5.59069409766180E-03
DEBUG_STATS_RL:                  Gu (DYNAMICS) S.D.=  2.34471638887916E-02
DEBUG_STATS_RL:                  Gv (DYNAMICS)  min= -9.66923715052651E-02
DEBUG_STATS_RL:                  Gv (DYNAMICS)  max=  1.40977627157661E-01
DEBUG_STATS_RL:                  Gv (DYNAMICS) mean=  3.47013045958572E-03
DEBUG_STATS_RL:                  Gv (DYNAMICS) S.D.=  1.50637923033560E-02
DEBUG_STATS_RL:               GuNm1 (DYNAMICS)  min= -9.73335786748204E-06
DEBUG_STATS_RL:               GuNm1 (DYNAMICS)  max=  1.02686968524231E-05
DEBUG_STATS_RL:               GuNm1 (DYNAMICS) mean=  1.80952129325731E-08
DEBUG_STATS_RL:               GuNm1 (DYNAMICS) S.D.=  1.23362837965402E-06
DEBUG_STATS_RL:               GvNm1 (DYNAMICS)  min= -9.30237446205456E-06
DEBUG_STATS_RL:               GvNm1 (DYNAMICS)  max=  1.50021734318800E-05
DEBUG_STATS_RL:               GvNm1 (DYNAMICS) mean=  7.43079149255976E-07
DEBUG_STATS_RL:               GvNm1 (DYNAMICS) S.D.=  2.60956342280569E-06
DEBUG_STATS_RL:               GtNm1 (DYNAMICS)  min= -2.58147562934108E-06
DEBUG_STATS_RL:               GtNm1 (DYNAMICS)  max=  1.99040829053064E-06
DEBUG_STATS_RL:               GtNm1 (DYNAMICS) mean= -2.07766893434366E-09
DEBUG_STATS_RL:               GtNm1 (DYNAMICS) S.D.=  1.36938759684620E-07
DEBUG_STATS_RL:               GsNm1 (DYNAMICS)  min= -8.10676790978800E-07
DEBUG_STATS_RL:               GsNm1 (DYNAMICS)  max=  5.38532425398028E-07
DEBUG_STATS_RL:               GsNm1 (DYNAMICS) mean= -2.45506670780611E-10
DEBUG_STATS_RL:               GsNm1 (DYNAMICS) S.D.=  1.45932383853441E-08
DEBUG_STATS_RL:    cg2d_b (SOLVE_FOR_PRESSURE)  min= -2.94009612115877E+04
DEBUG_STATS_RL:    cg2d_b (SOLVE_FOR_PRESSURE)  max=  3.29345575740266E+04
DEBUG_STATS_RL:    cg2d_b (SOLVE_FOR_PRESSURE) mean=  5.60170021639643E+00
DEBUG_STATS_RL:    cg2d_b (SOLVE_FOR_PRESSURE) S.D.=  4.07859635788681E+03
 cg2d: Sum(rhs),rhsMax =   3.93748601960394E-01  2.16322992129332E+00
(PID.TID 0000.0001)  cg2d: iter=     1 ; resid.=  8.84025926242333E-02
(PID.TID 0000.0001)  cg2d: iter=     2 ; resid.=  6.76795109785578E-02
(PID.TID 0000.0001)  cg2d: iter=     3 ; resid.=  6.29105122368763E-02
(PID.TID 0000.0001)  cg2d: iter=     4 ; resid.=  5.47265410522878E-02
(PID.TID 0000.0001)  cg2d: iter=     5 ; resid.=  4.52840096340087E-02
(PID.TID 0000.0001)  cg2d: iter=     6 ; resid.=  4.19077757319998E-02
(PID.TID 0000.0001)  cg2d: iter=     7 ; resid.=  3.45026803592386E-02
(PID.TID 0000.0001)  cg2d: iter=     8 ; resid.=  2.91958148559542E-02
(PID.TID 0000.0001)  cg2d: iter=     9 ; resid.=  2.43125021742277E-02
(PID.TID 0000.0001)  cg2d: iter=    10 ; resid.=  2.05506803582724E-02
(PID.TID 0000.0001)  cg2d: iter=    11 ; resid.=  1.78722288545474E-02
(PID.TID 0000.0001)  cg2d: iter=    12 ; resid.=  1.40013344351630E-02
(PID.TID 0000.0001)  cg2d: iter=    13 ; resid.=  1.10256368008579E-02
(PID.TID 0000.0001)  cg2d: iter=    14 ; resid.=  9.15607453840063E-03
(PID.TID 0000.0001)  cg2d: iter=    15 ; resid.=  7.59952569119938E-03
(PID.TID 0000.0001)  cg2d: iter=    16 ; resid.=  6.67623287147508E-03
(PID.TID 0000.0001)  cg2d: iter=    17 ; resid.=  6.03032039429715E-03
(PID.TID 0000.0001)  cg2d: iter=    18 ; resid.=  5.12320113556962E-03
(PID.TID 0000.0001)  cg2d: iter=    19 ; resid.=  4.54124779456567E-03
(PID.TID 0000.0001)  cg2d: iter=    20 ; resid.=  3.55009842519684E-03
(PID.TID 0000.0001)  cg2d: iter=    21 ; resid.=  3.10139708762921E-03
(PID.TID 0000.0001)  cg2d: iter=    22 ; resid.=  2.67146555453233E-03
(PID.TID 0000.0001)  cg2d: iter=    23 ; resid.=  2.10236139536889E-03
(PID.TID 0000.0001)  cg2d: iter=    24 ; resid.=  1.75154284818357E-03
(PID.TID 0000.0001)  cg2d: iter=    25 ; resid.=  1.36761783361103E-03
(PID.TID 0000.0001)  cg2d: iter=    26 ; resid.=  1.10760668473561E-03
(PID.TID 0000.0001)  cg2d: iter=    27 ; resid.=  9.37046773098813E-04
(PID.TID 0000.0001)  cg2d: iter=    28 ; resid.=  7.81877142608205E-04
(PID.TID 0000.0001)  cg2d: iter=    29 ; resid.=  6.28947116625890E-04
(PID.TID 0000.0001)  cg2d: iter=    30 ; resid.=  5.28767988562085E-04
(PID.TID 0000.0001)  cg2d: iter=    31 ; resid.=  4.68919360212489E-04
(PID.TID 0000.0001)  cg2d: iter=    32 ; resid.=  3.58396111297898E-04
(PID.TID 0000.0001)  cg2d: iter=    33 ; resid.=  2.92435204825836E-04
(PID.TID 0000.0001)  cg2d: iter=    34 ; resid.=  2.65536537559164E-04
(PID.TID 0000.0001)  cg2d: iter=    35 ; resid.=  2.12054680475404E-04
(PID.TID 0000.0001)  cg2d: iter=    36 ; resid.=  1.83766610042817E-04
(PID.TID 0000.0001)  cg2d: iter=    37 ; resid.=  1.61248877587763E-04
(PID.TID 0000.0001)  cg2d: iter=    38 ; resid.=  1.36322183028538E-04
(PID.TID 0000.0001)  cg2d: iter=    39 ; resid.=  1.18901227073396E-04
(PID.TID 0000.0001)  cg2d: iter=    40 ; resid.=  1.02334455871463E-04
(PID.TID 0000.0001)  cg2d: iter=    41 ; resid.=  8.87769218016746E-05
(PID.TID 0000.0001)  cg2d: iter=    42 ; resid.=  8.04555159836041E-05
(PID.TID 0000.0001)  cg2d: iter=    43 ; resid.=  6.98985890810837E-05
(PID.TID 0000.0001)  cg2d: iter=    44 ; resid.=  5.40625788090542E-05
(PID.TID 0000.0001)  cg2d: iter=    45 ; resid.=  4.24492509112706E-05
(PID.TID 0000.0001)  cg2d: iter=    46 ; resid.=  3.19255897683340E-05
(PID.TID 0000.0001)  cg2d: iter=    47 ; resid.=  2.68784565057288E-05
(PID.TID 0000.0001)  cg2d: iter=    48 ; resid.=  2.31704869781958E-05
(PID.TID 0000.0001)  cg2d: iter=    49 ; resid.=  1.85264721646749E-05
(PID.TID 0000.0001)  cg2d: iter=    50 ; resid.=  1.41336448180824E-05
(PID.TID 0000.0001)  cg2d: iter=    51 ; resid.=  1.15564307500799E-05
(PID.TID 0000.0001)  cg2d: iter=    52 ; resid.=  9.58774531776395E-06
(PID.TID 0000.0001)  cg2d: iter=    53 ; resid.=  8.56210719624311E-06
(PID.TID 0000.0001)  cg2d: iter=    54 ; resid.=  7.16510499190815E-06
(PID.TID 0000.0001)  cg2d: iter=    55 ; resid.=  6.13098695149982E-06
(PID.TID 0000.0001)  cg2d: iter=    56 ; resid.=  5.29653536017620E-06
(PID.TID 0000.0001)  cg2d: iter=    57 ; resid.=  4.24559399060782E-06
(PID.TID 0000.0001)  cg2d: iter=    58 ; resid.=  3.17331649710127E-06
(PID.TID 0000.0001)  cg2d: iter=    59 ; resid.=  2.42009959982166E-06
(PID.TID 0000.0001)  cg2d: iter=    60 ; resid.=  2.05825610572620E-06
(PID.TID 0000.0001)  cg2d: iter=    61 ; resid.=  1.65982943646332E-06
(PID.TID 0000.0001)  cg2d: iter=    62 ; resid.=  1.38594714054929E-06
(PID.TID 0000.0001)  cg2d: iter=    63 ; resid.=  1.27360247690559E-06
(PID.TID 0000.0001)  cg2d: iter=    64 ; resid.=  1.15234511408235E-06
(PID.TID 0000.0001)  cg2d: iter=    65 ; resid.=  9.29570037662460E-07
(PID.TID 0000.0001)  cg2d: iter=    66 ; resid.=  7.45154957948995E-07
(PID.TID 0000.0001)  cg2d: iter=    67 ; resid.=  6.31439667199384E-07
(PID.TID 0000.0001)  cg2d: iter=    68 ; resid.=  4.57489951035774E-07
(PID.TID 0000.0001)  cg2d: iter=    69 ; resid.=  3.48982799232194E-07
(PID.TID 0000.0001)  cg2d: iter=    70 ; resid.=  2.66184126835141E-07
(PID.TID 0000.0001)  cg2d: iter=    71 ; resid.=  2.27027104829238E-07
(PID.TID 0000.0001)  cg2d: iter=    72 ; resid.=  1.96049613579556E-07
(PID.TID 0000.0001)  cg2d: iter=    73 ; resid.=  1.79039629090066E-07
(PID.TID 0000.0001)  cg2d: iter=    74 ; resid.=  1.43075207093103E-07
(PID.TID 0000.0001)  cg2d: iter=    75 ; resid.=  1.13079348757117E-07
(PID.TID 0000.0001)  cg2d: iter=    76 ; resid.=  9.38435082114723E-08
(PID.TID 0000.0001)  cg2d: iter=    77 ; resid.=  8.57638401311812E-08
(PID.TID 0000.0001)  cg2d: iter=    78 ; resid.=  7.48947975741328E-08
(PID.TID 0000.0001)  cg2d: iter=    79 ; resid.=  6.51463903547063E-08
(PID.TID 0000.0001)  cg2d: iter=    80 ; resid.=  5.25529507155382E-08
(PID.TID 0000.0001)  cg2d: iter=    81 ; resid.=  3.91791310605597E-08
(PID.TID 0000.0001)  cg2d: iter=    82 ; resid.=  2.95025914394249E-08
(PID.TID 0000.0001)  cg2d: iter=    83 ; resid.=  2.19993858330731E-08
(PID.TID 0000.0001)  cg2d: iter=    84 ; resid.=  1.53963129336573E-08
(PID.TID 0000.0001)  cg2d: iter=    85 ; resid.=  1.11730015076203E-08
(PID.TID 0000.0001)  cg2d: iter=    86 ; resid.=  8.95089143746221E-09
(PID.TID 0000.0001)  cg2d: iter=    87 ; resid.=  7.05333827415356E-09
(PID.TID 0000.0001)  cg2d: iter=    88 ; resid.=  5.40010888274587E-09
(PID.TID 0000.0001)  cg2d: iter=    89 ; resid.=  4.60676017388996E-09
(PID.TID 0000.0001)  cg2d: iter=    90 ; resid.=  3.93265523543380E-09
(PID.TID 0000.0001)  cg2d: iter=    91 ; resid.=  2.94430252611895E-09
(PID.TID 0000.0001)  cg2d: iter=    92 ; resid.=  2.11763454083652E-09
(PID.TID 0000.0001)  cg2d: iter=    93 ; resid.=  1.58535815848770E-09
(PID.TID 0000.0001)  cg2d: iter=    94 ; resid.=  1.19822037910229E-09
(PID.TID 0000.0001)  cg2d: iter=    95 ; resid.=  9.80493066489078E-10
(PID.TID 0000.0001)  cg2d: iter=    96 ; resid.=  7.17112410885607E-10
(PID.TID 0000.0001)  cg2d: iter=    97 ; resid.=  5.20493668573916E-10
(PID.TID 0000.0001)  cg2d: iter=    98 ; resid.=  3.82626287640608E-10
(PID.TID 0000.0001)  cg2d: iter=    99 ; resid.=  2.75203067957271E-10
(PID.TID 0000.0001)  cg2d: iter=   100 ; resid.=  2.20629210137437E-10
(PID.TID 0000.0001)  cg2d: iter=   101 ; resid.=  1.67458819912704E-10
(PID.TID 0000.0001)  cg2d: iter=   102 ; resid.=  1.28369574194410E-10
(PID.TID 0000.0001)  cg2d: iter=   103 ; resid.=  1.10952326973732E-10
(PID.TID 0000.0001)  cg2d: iter=   104 ; resid.=  9.65093692673312E-11
(PID.TID 0000.0001)  cg2d: iter=   105 ; resid.=  8.42295914684637E-11
(PID.TID 0000.0001)  cg2d: iter=   106 ; resid.=  6.97270649254302E-11
(PID.TID 0000.0001)  cg2d: iter=   107 ; resid.=  5.77899488477187E-11
(PID.TID 0000.0001)  cg2d: iter=   108 ; resid.=  4.37507822587753E-11
(PID.TID 0000.0001)  cg2d: iter=   109 ; resid.=  3.27274411744137E-11
(PID.TID 0000.0001)  cg2d: iter=   110 ; resid.=  2.78387320822265E-11
(PID.TID 0000.0001)  cg2d: iter=   111 ; resid.=  2.47702128872110E-11
(PID.TID 0000.0001)  cg2d: iter=   112 ; resid.=  2.13228327118610E-11
(PID.TID 0000.0001)  cg2d: iter=   113 ; resid.=  1.61815618058440E-11
(PID.TID 0000.0001)  cg2d: iter=   114 ; resid.=  1.31353955129423E-11
(PID.TID 0000.0001)  cg2d: iter=   115 ; resid.=  1.06200203005260E-11
(PID.TID 0000.0001)  cg2d: iter=   116 ; resid.=  7.97898758919053E-12
(PID.TID 0000.0001)  cg2d: iter=   117 ; resid.=  6.05400803542996E-12
(PID.TID 0000.0001)  cg2d: iter=   118 ; resid.=  4.84138173502801E-12
(PID.TID 0000.0001)  cg2d: iter=   119 ; resid.=  3.53966425059131E-12
(PID.TID 0000.0001)  cg2d: iter=   120 ; resid.=  2.70927942380957E-12
(PID.TID 0000.0001)  cg2d: iter=   121 ; resid.=  1.98489632472867E-12
(PID.TID 0000.0001)  cg2d: iter=   122 ; resid.=  1.41686072195883E-12
(PID.TID 0000.0001)  cg2d: iter=   123 ; resid.=  1.03037569332727E-12
(PID.TID 0000.0001)  cg2d: iter=   124 ; resid.=  7.50162471131782E-13
(PID.TID 0000.0001)  cg2d: iter=   125 ; resid.=  5.88811182026600E-13
(PID.TID 0000.0001)  cg2d: iter=   126 ; resid.=  4.53389416800300E-13
(PID.TID 0000.0001)  cg2d: iter=   127 ; resid.=  3.17503110089495E-13
(PID.TID 0000.0001)  cg2d: iter=   128 ; resid.=  2.36347746692356E-13
(PID.TID 0000.0001)  cg2d: iter=   129 ; resid.=  1.75390497522322E-13
(PID.TID 0000.0001)  cg2d: iter=   130 ; resid.=  1.37931637340321E-13
(PID.TID 0000.0001)  cg2d: iter=   131 ; resid.=  1.02283366295355E-13
(PID.TID 0000.0001)  cg2d: iter=   132 ; resid.=  7.62890096062829E-14
DEBUG_STATS_RL:    cg2d_x (SOLVE_FOR_PRESSURE)  min= -1.81258650086703E+01
DEBUG_STATS_RL:    cg2d_x (SOLVE_FOR_PRESSURE)  max=  7.50950065451008E+00
DEBUG_STATS_RL:    cg2d_x (SOLVE_FOR_PRESSURE) mean= -1.78117844905639E+00
DEBUG_STATS_RL:    cg2d_x (SOLVE_FOR_PRESSURE) S.D.=  6.85206711367639E+00
(PID.TID 0000.0001)      cg2d_init_res =   2.03390353930261E-01
(PID.TID 0000.0001)      cg2d_iters(min,last) =      -1     132
(PID.TID 0000.0001)      cg2d_last_res =   7.62890096062829E-14
(PID.TID 0000.0001) // =======================================================
(PID.TID 0000.0001) // Begin MONITOR dynamic field statistics
(PID.TID 0000.0001) // =======================================================
(PID.TID 0000.0001) %MON time_tsnumber                =                    95
(PID.TID 0000.0001) %MON time_secondsf                =   8.2080000000000E+06
(PID.TID 0000.0001) %MON dynstat_eta_max              =   7.6549446019473E-01
(PID.TID 0000.0001) %MON dynstat_eta_min              =  -1.8476926614343E+00
(PID.TID 0000.0001) %MON dynstat_eta_mean             =  -5.8446795879134E-03
(PID.TID 0000.0001) %MON dynstat_eta_sd               =   5.9345653528673E-01
(PID.TID 0000.0001) %MON dynstat_eta_del2             =   2.6001028762944E-03
(PID.TID 0000.0001) %MON dynstat_uvel_max             =   1.2719739867492E-01
(PID.TID 0000.0001) %MON dynstat_uvel_min             =  -1.4165824164233E-01
(PID.TID 0000.0001) %MON dynstat_uvel_mean            =   2.1702712115932E-03
(PID.TID 0000.0001) %MON dynstat_uvel_sd              =   1.5577620186756E-02
(PID.TID 0000.0001) %MON dynstat_uvel_del2            =   1.2009442996303E-04
(PID.TID 0000.0001) %MON dynstat_vvel_max             =   1.3837010098345E-01
(PID.TID 0000.0001) %MON dynstat_vvel_min             =  -9.8765978533077E-02
(PID.TID 0000.0001) %MON dynstat_vvel_mean            =   8.4299686824974E-05
(PID.TID 0000.0001) %MON dynstat_vvel_sd              =   8.6017891929180E-03
(PID.TID 0000.0001) %MON dynstat_vvel_del2            =   8.1293269147764E-05
(PID.TID 0000.0001) %MON dynstat_wvel_max             =   1.1131308309797E-04
(PID.TID 0000.0001) %MON dynstat_wvel_min             =  -7.8105596674827E-05
(PID.TID 0000.0001) %MON dynstat_wvel_mean            =   2.3464472109590E-23
(PID.TID 0000.0001) %MON dynstat_wvel_sd              =   1.0670579757957E-05
(PID.TID 0000.0001) %MON dynstat_wvel_del2            =   1.0455529170768E-07
(PID.TID 0000.0001) %MON dynstat_theta_max            =   3.1279332461566E+01
(PID.TID 0000.0001) %MON dynstat_theta_min            =  -1.9270612172844E+00
(PID.TID 0000.0001) %MON dynstat_theta_mean           =   3.6442567694196E+00
(PID.TID 0000.0001) %MON dynstat_theta_sd             =   4.4291509334796E+00
(PID.TID 0000.0001) %MON dynstat_theta_del2           =   4.8293103748910E-03
(PID.TID 0000.0001) %MON dynstat_salt_max             =   3.7487289266329E+01
(PID.TID 0000.0001) %MON dynstat_salt_min             =   2.9980598590540E+01
(PID.TID 0000.0001) %MON dynstat_salt_mean            =   3.4737986815534E+01
(PID.TID 0000.0001) %MON dynstat_salt_sd              =   2.9664657735011E-01
(PID.TID 0000.0001) %MON dynstat_salt_del2            =   9.9959433544798E-04
(PID.TID 0000.0001) %MON dynstat_sst_max              =   3.1279332461566E+01
(PID.TID 0000.0001) %MON dynstat_sst_min              =  -1.9270612172844E+00
(PID.TID 0000.0001) %MON dynstat_sst_mean             =   1.9055303581703E+01
(PID.TID 0000.0001) %MON dynstat_sst_sd               =   9.2924423877759E+00
(PID.TID 0000.0001) %MON dynstat_sst_del2             =   2.9414069378327E-02
(PID.TID 0000.0001) %MON dynstat_sss_max              =   3.7487289266329E+01
(PID.TID 0000.0001) %MON dynstat_sss_min              =   2.9980598590540E+01
(PID.TID 0000.0001) %MON dynstat_sss_mean             =   3.4856680613173E+01
(PID.TID 0000.0001) %MON dynstat_sss_sd               =   9.9309999609390E-01
(PID.TID 0000.0001) %MON dynstat_sss_del2             =   8.3442556140999E-03
(PID.TID 0000.0001) %MON forcing_qnet_max             =   1.8510822957357E+02
(PID.TID 0000.0001) %MON forcing_qnet_min             =  -1.5572366078695E+02
(PID.TID 0000.0001) %MON forcing_qnet_mean            =   2.7862616027840E-01
(PID.TID 0000.0001) %MON forcing_qnet_sd              =   4.0375401003210E+01
(PID.TID 0000.0001) %MON forcing_qnet_del2            =   7.8491634723733E-01
(PID.TID 0000.0001) %MON forcing_qsw_max              =   0.0000000000000E+00
(PID.TID 0000.0001) %MON forcing_qsw_min              =   0.0000000000000E+00
(PID.TID 0000.0001) %MON forcing_qsw_mean             =   0.0000000000000E+00
(PID.TID 0000.0001) %MON forcing_qsw_sd               =   0.0000000000000E+00
(PID.TID 0000.0001) %MON forcing_qsw_del2             =   0.0000000000000E+00
(PID.TID 0000.0001) %MON forcing_empmr_max            =   6.7281572550352E-05
(PID.TID 0000.0001) %MON forcing_empmr_min            =  -8.3546493101494E-05
(PID.TID 0000.0001) %MON forcing_empmr_mean           =   1.2424912195495E-07
(PID.TID 0000.0001) %MON forcing_empmr_sd             =   2.5509651539751E-05
(PID.TID 0000.0001) %MON forcing_empmr_del2           =   3.6610701590472E-07
(PID.TID 0000.0001) %MON forcing_fu_max               =   3.4592144489288E-01
(PID.TID 0000.0001) %MON forcing_fu_min               =  -4.0628478825092E-01
(PID.TID 0000.0001) %MON forcing_fu_mean              =   1.8040079458664E-02
(PID.TID 0000.0001) %MON forcing_fu_sd                =   1.0078745737191E-01
(PID.TID 0000.0001) %MON forcing_fu_del2              =   7.8389038691565E-04
(PID.TID 0000.0001) %MON forcing_fv_max               =   1.8147632280986E-01
(PID.TID 0000.0001) %MON forcing_fv_min               =  -1.4418310572704E-01
(PID.TID 0000.0001) %MON forcing_fv_mean              =  -6.8365186649570E-03
(PID.TID 0000.0001) %MON forcing_fv_sd                =   3.8691832000774E-02
(PID.TID 0000.0001) %MON forcing_fv_del2              =   4.1645921546217E-04
(PID.TID 0000.0001) %MON trAdv_CFL_u_max              =   4.7204497378332E-02
(PID.TID 0000.0001) %MON trAdv_CFL_v_max              =   2.7376217738027E-02
(PID.TID 0000.0001) %MON trAdv_CFL_w_max              =   2.8535377626335E-02
(PID.TID 0000.0001) %MON advcfl_uvel_max              =   4.6124604235394E-02
(PID.TID 0000.0001) %MON advcfl_vvel_max              =   2.6883091431468E-02
(PID.TID 0000.0001) %MON advcfl_wvel_max              =   3.1745157009578E-02
(PID.TID 0000.0001) %MON advcfl_W_hf_max              =   3.8547690654488E-02
(PID.TID 0000.0001) %MON pe_b_mean                    =   4.5071411127393E-04
(PID.TID 0000.0001) %MON ke_max                       =   1.1462254281612E-02
(PID.TID 0000.0001) %MON ke_mean                      =   1.4560588580957E-04
(PID.TID 0000.0001) %MON ke_vol                       =   1.3226782436723E+18
(PID.TID 0000.0001) %MON vort_r_min                   =  -3.6955843433859E-07
(PID.TID 0000.0001) %MON vort_r_max                   =   5.0177082908965E-07
(PID.TID 0000.0001) %MON vort_a_mean                  =  -2.5274807268920E-05
(PID.TID 0000.0001) %MON vort_a_sd                    =   7.3604619117707E-05
(PID.TID 0000.0001) %MON vort_p_mean                  =  -3.1845655637526E-05
(PID.TID 0000.0001) %MON vort_p_sd                    =   1.3162459344823E-04
(PID.TID 0000.0001) %MON surfExpan_theta_mean         =  -1.5270524969876E-07
(PID.TID 0000.0001) %MON surfExpan_salt_mean          =   7.8239073300374E-08
(PID.TID 0000.0001) // =======================================================
(PID.TID 0000.0001) // End MONITOR dynamic field statistics
(PID.TID 0000.0001) // =======================================================
 EXTERNAL_FIELDS_LOAD,        95 : iP,iLd,i0,i1=    3    4    3    4 ; Wght=  0.3333333333  0.6666666667
 EXTERNAL_FIELDS_LOAD: (fu0,1),fu,fv= -2.7199E-02 -3.7252E-02 -3.3901E-02 -2.3670E-02
 EXTERNAL_FIELDS_LOAD: SST,SSS,Q,E-P= -3.7744E-02  3.4572E+01  1.4120E+02  8.2063E-06
DEBUG_STATS_RL:          Uvel (THERMODYNAMICS)  min= -1.41658241642334E-01
DEBUG_STATS_RL:          Uvel (THERMODYNAMICS)  max=  1.27197398674919E-01
DEBUG_STATS_RL:          Uvel (THERMODYNAMICS) mean=  5.65148512215054E-03
DEBUG_STATS_RL:          Uvel (THERMODYNAMICS) S.D.=  2.30842525561414E-02
DEBUG_STATS_RL:          Vvel (THERMODYNAMICS)  min= -9.87659785330766E-02
DEBUG_STATS_RL:          Vvel (THERMODYNAMICS)  max=  1.38370100983449E-01
DEBUG_STATS_RL:          Vvel (THERMODYNAMICS) mean=  8.92358459333382E-04
DEBUG_STATS_RL:          Vvel (THERMODYNAMICS) S.D.=  1.34507559630191E-02
DEBUG_STATS_RL:          Wvel (THERMODYNAMICS)  min= -7.81055966748268E-05
DEBUG_STATS_RL:          Wvel (THERMODYNAMICS)  max=  1.11313083097968E-04
DEBUG_STATS_RL:          Wvel (THERMODYNAMICS) mean= -3.11660631088010E-08
DEBUG_STATS_RL:          Wvel (THERMODYNAMICS) S.D.=  9.24522002724107E-06
DEBUG_STATS_RL:         Theta (THERMODYNAMICS)  min= -1.92601842850986E+00
DEBUG_STATS_RL:         Theta (THERMODYNAMICS)  max=  3.12905440118967E+01
DEBUG_STATS_RL:         Theta (THERMODYNAMICS) mean=  3.23952456865308E+00
DEBUG_STATS_RL:         Theta (THERMODYNAMICS) S.D.=  5.88920900578153E+00
DEBUG_STATS_RL:          Salt (THERMODYNAMICS)  min=  2.00000000000000E-02
DEBUG_STATS_RL:          Salt (THERMODYNAMICS)  max=  3.74874618561637E+01
DEBUG_STATS_RL:          Salt (THERMODYNAMICS) mean=  1.88647109158152E+01
DEBUG_STATS_RL:          Salt (THERMODYNAMICS) S.D.=  1.73002764738978E+01
DEBUG_STATS_RL:         GtNm1 (THERMODYNAMICS)  min= -2.02173305458900E-06
DEBUG_STATS_RL:         GtNm1 (THERMODYNAMICS)  max=  1.95030622930066E-06
DEBUG_STATS_RL:         GtNm1 (THERMODYNAMICS) mean= -2.27973946453841E-09
DEBUG_STATS_RL:         GtNm1 (THERMODYNAMICS) S.D.=  1.33889276177504E-07
DEBUG_STATS_RL:         GsNm1 (THERMODYNAMICS)  min= -5.53057230845008E-07
DEBUG_STATS_RL:         GsNm1 (THERMODYNAMICS)  max=  3.52925093508235E-07
DEBUG_STATS_RL:         GsNm1 (THERMODYNAMICS) mean= -2.33110424228314E-10
DEBUG_STATS_RL:         GsNm1 (THERMODYNAMICS) S.D.=  1.36184033131046E-08
DEBUG_STATS_RL:                EtaN (DYNAMICS)  min= -1.84769266143431E+00
DEBUG_STATS_RL:                EtaN (DYNAMICS)  max=  7.65494460194733E-01
DEBUG_STATS_RL:                EtaN (DYNAMICS) mean= -1.81567629873232E-01
DEBUG_STATS_RL:                EtaN (DYNAMICS) S.D.=  6.98477789365588E-01
DEBUG_STATS_RL:                Uvel (DYNAMICS)  min= -1.41658241642334E-01
DEBUG_STATS_RL:                Uvel (DYNAMICS)  max=  1.27197398674919E-01
DEBUG_STATS_RL:                Uvel (DYNAMICS) mean=  5.65148512215054E-03
DEBUG_STATS_RL:                Uvel (DYNAMICS) S.D.=  2.30842525561414E-02
DEBUG_STATS_RL:                Vvel (DYNAMICS)  min= -9.87659785330766E-02
DEBUG_STATS_RL:                Vvel (DYNAMICS)  max=  1.38370100983449E-01
DEBUG_STATS_RL:                Vvel (DYNAMICS) mean=  8.92358459333382E-04
DEBUG_STATS_RL:                Vvel (DYNAMICS) S.D.=  1.34507559630191E-02
DEBUG_STATS_RL:                Wvel (DYNAMICS)  min= -7.81055966748268E-05
DEBUG_STATS_RL:                Wvel (DYNAMICS)  max=  1.11313083097968E-04
DEBUG_STATS_RL:                Wvel (DYNAMICS) mean= -3.11660631088010E-08
DEBUG_STATS_RL:                Wvel (DYNAMICS) S.D.=  9.24522002724107E-06
DEBUG_STATS_RL:               Theta (DYNAMICS)  min= -1.92601842850986E+00
DEBUG_STATS_RL:               Theta (DYNAMICS)  max=  3.12905440118967E+01
DEBUG_STATS_RL:               Theta (DYNAMICS) mean=  3.23952456865308E+00
DEBUG_STATS_RL:               Theta (DYNAMICS) S.D.=  5.88920900578153E+00
DEBUG_STATS_RL:                Salt (DYNAMICS)  min=  2.00000000000000E-02
DEBUG_STATS_RL:                Salt (DYNAMICS)  max=  3.74874618561637E+01
DEBUG_STATS_RL:                Salt (DYNAMICS) mean=  1.88647109158152E+01
DEBUG_STATS_RL:                Salt (DYNAMICS) S.D.=  1.73002764738978E+01
DEBUG_STATS_RL:                  Gu (DYNAMICS)  min= -1.40710811482172E-01
DEBUG_STATS_RL:                  Gu (DYNAMICS)  max=  1.32605437833180E-01
DEBUG_STATS_RL:                  Gu (DYNAMICS) mean=  5.60042563402329E-03
DEBUG_STATS_RL:                  Gu (DYNAMICS) S.D.=  2.34473450023894E-02
DEBUG_STATS_RL:                  Gv (DYNAMICS)  min= -9.62001180385455E-02
DEBUG_STATS_RL:                  Gv (DYNAMICS)  max=  1.38181639568924E-01
DEBUG_STATS_RL:                  Gv (DYNAMICS) mean=  3.47648664985145E-03
DEBUG_STATS_RL:                  Gv (DYNAMICS) S.D.=  1.49870323851294E-02
DEBUG_STATS_RL:               GuNm1 (DYNAMICS)  min= -9.65289899518311E-06
DEBUG_STATS_RL:               GuNm1 (DYNAMICS)  max=  1.03135306557563E-05
DEBUG_STATS_RL:               GuNm1 (DYNAMICS) mean=  1.84640033975881E-08
DEBUG_STATS_RL:               GuNm1 (DYNAMICS) S.D.=  1.23398731068656E-06
DEBUG_STATS_RL:               GvNm1 (DYNAMICS)  min= -9.31521753355819E-06
DEBUG_STATS_RL:               GvNm1 (DYNAMICS)  max=  1.49703685959556E-05
DEBUG_STATS_RL:               GvNm1 (DYNAMICS) mean=  7.43902796653908E-07
DEBUG_STATS_RL:               GvNm1 (DYNAMICS) S.D.=  2.60942070029019E-06
DEBUG_STATS_RL:               GtNm1 (DYNAMICS)  min= -2.02173305458900E-06
DEBUG_STATS_RL:               GtNm1 (DYNAMICS)  max=  1.95030622930066E-06
DEBUG_STATS_RL:               GtNm1 (DYNAMICS) mean= -2.27973946453841E-09
DEBUG_STATS_RL:               GtNm1 (DYNAMICS) S.D.=  1.33889276177504E-07
DEBUG_STATS_RL:               GsNm1 (DYNAMICS)  min= -5.53057230845008E-07
DEBUG_STATS_RL:               GsNm1 (DYNAMICS)  max=  3.52925093508235E-07
DEBUG_STATS_RL:               GsNm1 (DYNAMICS) mean= -2.33110424228314E-10
DEBUG_STATS_RL:               GsNm1 (DYNAMICS) S.D.=  1.36184033131046E-08
DEBUG_STATS_RL:    cg2d_b (SOLVE_FOR_PRESSURE)  min= -2.89094624100940E+04
DEBUG_STATS_RL:    cg2d_b (SOLVE_FOR_PRESSURE)  max=  3.30015873167031E+04
DEBUG_STATS_RL:    cg2d_b (SOLVE_FOR_PRESSURE) mean=  5.60984531515223E+00
DEBUG_STATS_RL:    cg2d_b (SOLVE_FOR_PRESSURE) S.D.=  4.07836479676295E+03
 cg2d: Sum(rhs),rhsMax =   3.93520220101942E-01  2.16763261425947E+00
(PID.TID 0000.0001)  cg2d: iter=     1 ; resid.=  8.50228792206640E-02
(PID.TID 0000.0001)  cg2d: iter=     2 ; resid.=  6.19129880097622E-02
(PID.TID 0000.0001)  cg2d: iter=     3 ; resid.=  5.52364495063349E-02
(PID.TID 0000.0001)  cg2d: iter=     4 ; resid.=  4.68759977782726E-02
(PID.TID 0000.0001)  cg2d: iter=     5 ; resid.=  3.66935067993557E-02
(PID.TID 0000.0001)  cg2d: iter=     6 ; resid.=  3.26916999138932E-02
(PID.TID 0000.0001)  cg2d: iter=     7 ; resid.=  2.71439733297820E-02
(PID.TID 0000.0001)  cg2d: iter=     8 ; resid.=  2.36443580830767E-02
(PID.TID 0000.0001)  cg2d: iter=     9 ; resid.=  2.02090991022584E-02
(PID.TID 0000.0001)  cg2d: iter=    10 ; resid.=  1.75497250950462E-02
(PID.TID 0000.0001)  cg2d: iter=    11 ; resid.=  1.56503837741495E-02
(PID.TID 0000.0001)  cg2d: iter=    12 ; resid.=  1.26013672152080E-02
(PID.TID 0000.0001)  cg2d: iter=    13 ; resid.=  1.00123618369920E-02
(PID.TID 0000.0001)  cg2d: iter=    14 ; resid.=  8.41730177116670E-03
(PID.TID 0000.0001)  cg2d: iter=    15 ; resid.=  6.98169639082892E-03
(PID.TID 0000.0001)  cg2d: iter=    16 ; resid.=  5.93866397174853E-03
(PID.TID 0000.0001)  cg2d: iter=    17 ; resid.=  5.22923640709676E-03
(PID.TID 0000.0001)  cg2d: iter=    18 ; resid.=  4.45444869117909E-03
(PID.TID 0000.0001)  cg2d: iter=    19 ; resid.=  3.98557217966656E-03
(PID.TID 0000.0001)  cg2d: iter=    20 ; resid.=  3.15389676536340E-03
(PID.TID 0000.0001)  cg2d: iter=    21 ; resid.=  2.79662132911874E-03
(PID.TID 0000.0001)  cg2d: iter=    22 ; resid.=  2.38945954316966E-03
(PID.TID 0000.0001)  cg2d: iter=    23 ; resid.=  1.91432660750189E-03
(PID.TID 0000.0001)  cg2d: iter=    24 ; resid.=  1.57079396215162E-03
(PID.TID 0000.0001)  cg2d: iter=    25 ; resid.=  1.22494198164418E-03
(PID.TID 0000.0001)  cg2d: iter=    26 ; resid.=  1.00401548203090E-03
(PID.TID 0000.0001)  cg2d: iter=    27 ; resid.=  8.57571618439421E-04
(PID.TID 0000.0001)  cg2d: iter=    28 ; resid.=  7.12201788051556E-04
(PID.TID 0000.0001)  cg2d: iter=    29 ; resid.=  5.73110582472090E-04
(PID.TID 0000.0001)  cg2d: iter=    30 ; resid.=  4.77008011777376E-04
(PID.TID 0000.0001)  cg2d: iter=    31 ; resid.=  4.26772131829649E-04
(PID.TID 0000.0001)  cg2d: iter=    32 ; resid.=  3.33917169889332E-04
(PID.TID 0000.0001)  cg2d: iter=    33 ; resid.=  2.72181487472069E-04
(PID.TID 0000.0001)  cg2d: iter=    34 ; resid.=  2.42064628595076E-04
(PID.TID 0000.0001)  cg2d: iter=    35 ; resid.=  1.94204308752993E-04
(PID.TID 0000.0001)  cg2d: iter=    36 ; resid.=  1.70250885306032E-04
(PID.TID 0000.0001)  cg2d: iter=    37 ; resid.=  1.46287350594903E-04
(PID.TID 0000.0001)  cg2d: iter=    38 ; resid.=  1.22261733698452E-04
(PID.TID 0000.0001)  cg2d: iter=    39 ; resid.=  1.04245533508342E-04
(PID.TID 0000.0001)  cg2d: iter=    40 ; resid.=  8.89821508097343E-05
(PID.TID 0000.0001)  cg2d: iter=    41 ; resid.=  7.74299574236357E-05
(PID.TID 0000.0001)  cg2d: iter=    42 ; resid.=  7.18871969536111E-05
(PID.TID 0000.0001)  cg2d: iter=    43 ; resid.=  6.35721073780856E-05
(PID.TID 0000.0001)  cg2d: iter=    44 ; resid.=  4.96773102042548E-05
(PID.TID 0000.0001)  cg2d: iter=    45 ; resid.=  3.84987042148893E-05
(PID.TID 0000.0001)  cg2d: iter=    46 ; resid.=  2.90311671644296E-05
(PID.TID 0000.0001)  cg2d: iter=    47 ; resid.=  2.46372593413322E-05
(PID.TID 0000.0001)  cg2d: iter=    48 ; resid.=  2.08740634931534E-05
(PID.TID 0000.0001)  cg2d: iter=    49 ; resid.=  1.63590083096715E-05
(PID.TID 0000.0001)  cg2d: iter=    50 ; resid.=  1.20111593977258E-05
(PID.TID 0000.0001)  cg2d: iter=    51 ; resid.=  9.31923643881933E-06
(PID.TID 0000.0001)  cg2d: iter=    52 ; resid.=  7.50322292934883E-06
(PID.TID 0000.0001)  cg2d: iter=    53 ; resid.=  6.54463658959747E-06
(PID.TID 0000.0001)  cg2d: iter=    54 ; resid.=  5.59595254827781E-06
(PID.TID 0000.0001)  cg2d: iter=    55 ; resid.=  4.90415900122996E-06
(PID.TID 0000.0001)  cg2d: iter=    56 ; resid.=  4.22726595022641E-06
(PID.TID 0000.0001)  cg2d: iter=    57 ; resid.=  3.47254268032036E-06
(PID.TID 0000.0001)  cg2d: iter=    58 ; resid.=  2.65138062999101E-06
(PID.TID 0000.0001)  cg2d: iter=    59 ; resid.=  2.00631895651114E-06
(PID.TID 0000.0001)  cg2d: iter=    60 ; resid.=  1.69143603813356E-06
(PID.TID 0000.0001)  cg2d: iter=    61 ; resid.=  1.32447345972547E-06
(PID.TID 0000.0001)  cg2d: iter=    62 ; resid.=  1.05554558838947E-06
(PID.TID 0000.0001)  cg2d: iter=    63 ; resid.=  9.61794052809942E-07
(PID.TID 0000.0001)  cg2d: iter=    64 ; resid.=  9.14029358847663E-07
(PID.TID 0000.0001)  cg2d: iter=    65 ; resid.=  7.77002474728163E-07
(PID.TID 0000.0001)  cg2d: iter=    66 ; resid.=  6.40874814420572E-07
(PID.TID 0000.0001)  cg2d: iter=    67 ; resid.=  5.56211643660450E-07
(PID.TID 0000.0001)  cg2d: iter=    68 ; resid.=  4.04261990360209E-07
(PID.TID 0000.0001)  cg2d: iter=    69 ; resid.=  3.10317088725096E-07
(PID.TID 0000.0001)  cg2d: iter=    70 ; resid.=  2.31867820943180E-07
(PID.TID 0000.0001)  cg2d: iter=    71 ; resid.=  1.94179475733370E-07
(PID.TID 0000.0001)  cg2d: iter=    72 ; resid.=  1.58001380497906E-07
(PID.TID 0000.0001)  cg2d: iter=    73 ; resid.=  1.38449205080318E-07
(PID.TID 0000.0001)  cg2d: iter=    74 ; resid.=  1.04624689975223E-07
(PID.TID 0000.0001)  cg2d: iter=    75 ; resid.=  8.02949479296861E-08
(PID.TID 0000.0001)  cg2d: iter=    76 ; resid.=  6.58470759603178E-08
(PID.TID 0000.0001)  cg2d: iter=    77 ; resid.=  6.10998798781296E-08
(PID.TID 0000.0001)  cg2d: iter=    78 ; resid.=  5.31636960912756E-08
(PID.TID 0000.0001)  cg2d: iter=    79 ; resid.=  4.81111357352182E-08
(PID.TID 0000.0001)  cg2d: iter=    80 ; resid.=  4.04627661986814E-08
(PID.TID 0000.0001)  cg2d: iter=    81 ; resid.=  3.19813472119162E-08
(PID.TID 0000.0001)  cg2d: iter=    82 ; resid.=  2.53782470351240E-08
(PID.TID 0000.0001)  cg2d: iter=    83 ; resid.=  1.90962626254156E-08
(PID.TID 0000.0001)  cg2d: iter=    84 ; resid.=  1.35170264318322E-08
(PID.TID 0000.0001)  cg2d: iter=    85 ; resid.=  9.45513496297008E-09
(PID.TID 0000.0001)  cg2d: iter=    86 ; resid.=  7.42217365835339E-09
(PID.TID 0000.0001)  cg2d: iter=    87 ; resid.=  5.68919788172831E-09
(PID.TID 0000.0001)  cg2d: iter=    88 ; resid.=  4.31786063895635E-09
(PID.TID 0000.0001)  cg2d: iter=    89 ; resid.=  3.57947218161423E-09
(PID.TID 0000.0001)  cg2d: iter=    90 ; resid.=  3.12989936613320E-09
(PID.TID 0000.0001)  cg2d: iter=    91 ; resid.=  2.45976154003178E-09
(PID.TID 0000.0001)  cg2d: iter=    92 ; resid.=  1.84118779927958E-09
(PID.TID 0000.0001)  cg2d: iter=    93 ; resid.=  1.43503023450779E-09
(PID.TID 0000.0001)  cg2d: iter=    94 ; resid.=  1.10878241602938E-09
(PID.TID 0000.0001)  cg2d: iter=    95 ; resid.=  8.95973008650896E-10
(PID.TID 0000.0001)  cg2d: iter=    96 ; resid.=  6.47901100020786E-10
(PID.TID 0000.0001)  cg2d: iter=    97 ; resid.=  4.72181030077628E-10
(PID.TID 0000.0001)  cg2d: iter=    98 ; resid.=  3.45820673784400E-10
(PID.TID 0000.0001)  cg2d: iter=    99 ; resid.=  2.37205061413714E-10
(PID.TID 0000.0001)  cg2d: iter=   100 ; resid.=  1.78297558414723E-10
(PID.TID 0000.0001)  cg2d: iter=   101 ; resid.=  1.22391268162098E-10
(PID.TID 0000.0001)  cg2d: iter=   102 ; resid.=  8.32321040055121E-11
(PID.TID 0000.0001)  cg2d: iter=   103 ; resid.=  6.40218968798618E-11
(PID.TID 0000.0001)  cg2d: iter=   104 ; resid.=  5.14306815413291E-11
(PID.TID 0000.0001)  cg2d: iter=   105 ; resid.=  4.35019811890855E-11
(PID.TID 0000.0001)  cg2d: iter=   106 ; resid.=  3.75255695760649E-11
(PID.TID 0000.0001)  cg2d: iter=   107 ; resid.=  3.41491946283891E-11
(PID.TID 0000.0001)  cg2d: iter=   108 ; resid.=  2.80910040919005E-11
(PID.TID 0000.0001)  cg2d: iter=   109 ; resid.=  2.09618611681817E-11
(PID.TID 0000.0001)  cg2d: iter=   110 ; resid.=  1.69355634480548E-11
(PID.TID 0000.0001)  cg2d: iter=   111 ; resid.=  1.46827197619200E-11
(PID.TID 0000.0001)  cg2d: iter=   112 ; resid.=  1.27995802411112E-11
(PID.TID 0000.0001)  cg2d: iter=   113 ; resid.=  9.65079273826564E-12
(PID.TID 0000.0001)  cg2d: iter=   114 ; resid.=  7.76178817917982E-12
(PID.TID 0000.0001)  cg2d: iter=   115 ; resid.=  6.49638070441794E-12
(PID.TID 0000.0001)  cg2d: iter=   116 ; resid.=  5.10462020607661E-12
(PID.TID 0000.0001)  cg2d: iter=   117 ; resid.=  4.01395738410407E-12
(PID.TID 0000.0001)  cg2d: iter=   118 ; resid.=  3.36052224935301E-12
(PID.TID 0000.0001)  cg2d: iter=   119 ; resid.=  2.69935373864895E-12
(PID.TID 0000.0001)  cg2d: iter=   120 ; resid.=  2.14952736830988E-12
(PID.TID 0000.0001)  cg2d: iter=   121 ; resid.=  1.62300257416709E-12
(PID.TID 0000.0001)  cg2d: iter=   122 ; resid.=  1.19385523873976E-12
(PID.TID 0000.0001)  cg2d: iter=   123 ; resid.=  8.75981679199418E-13
(PID.TID 0000.0001)  cg2d: iter=   124 ; resid.=  6.32170616849279E-13
(PID.TID 0000.0001)  cg2d: iter=   125 ; resid.=  4.97628531936713E-13
(PID.TID 0000.0001)  cg2d: iter=   126 ; resid.=  3.82262548621077E-13
(PID.TID 0000.0001)  cg2d: iter=   127 ; resid.=  2.66731812582759E-13
(PID.TID 0000.0001)  cg2d: iter=   128 ; resid.=  1.89049151370190E-13
(PID.TID 0000.0001)  cg2d: iter=   129 ; resid.=  1.34848129695577E-13
(PID.TID 0000.0001)  cg2d: iter=   130 ; resid.=  1.05592690490213E-13
(PID.TID 0000.0001)  cg2d: iter=   131 ; resid.=  8.14912720041094E-14
DEBUG_STATS_RL:    cg2d_x (SOLVE_FOR_PRESSURE)  min= -1.78917052308896E+01
DEBUG_STATS_RL:    cg2d_x (SOLVE_FOR_PRESSURE)  max=  7.41661652751799E+00
DEBUG_STATS_RL:    cg2d_x (SOLVE_FOR_PRESSURE) mean= -1.77277705125108E+00
DEBUG_STATS_RL:    cg2d_x (SOLVE_FOR_PRESSURE) S.D.=  6.85424120814894E+00
(PID.TID 0000.0001)      cg2d_init_res =   1.99710378633870E-01
(PID.TID 0000.0001)      cg2d_iters(min,last) =      -1     131
(PID.TID 0000.0001)      cg2d_last_res =   8.14912720041094E-14
(PID.TID 0000.0001) // =======================================================
(PID.TID 0000.0001) // Begin MONITOR dynamic field statistics
(PID.TID 0000.0001) // =======================================================
(PID.TID 0000.0001) %MON time_tsnumber                =                    96
(PID.TID 0000.0001) %MON time_secondsf                =   8.2944000000000E+06
(PID.TID 0000.0001) %MON dynstat_eta_max              =   7.5602614959406E-01
(PID.TID 0000.0001) %MON dynstat_eta_min              =  -1.8238231631896E+00
(PID.TID 0000.0001) %MON dynstat_eta_mean             =  -5.8531779885078E-03
(PID.TID 0000.0001) %MON dynstat_eta_sd               =   5.9338282042912E-01
(PID.TID 0000.0001) %MON dynstat_eta_del2             =   2.5967964724646E-03
(PID.TID 0000.0001) %MON dynstat_uvel_max             =   1.2654326040634E-01
(PID.TID 0000.0001) %MON dynstat_uvel_min             =  -1.4132773768237E-01
(PID.TID 0000.0001) %MON dynstat_uvel_mean            =   2.2018945770750E-03
(PID.TID 0000.0001) %MON dynstat_uvel_sd              =   1.5525216019680E-02
(PID.TID 0000.0001) %MON dynstat_uvel_del2            =   1.2005017786672E-04
(PID.TID 0000.0001) %MON dynstat_vvel_max             =   1.3529584614312E-01
(PID.TID 0000.0001) %MON dynstat_vvel_min             =  -9.8125158958081E-02
(PID.TID 0000.0001) %MON dynstat_vvel_mean            =   7.7136133981524E-05
(PID.TID 0000.0001) %MON dynstat_vvel_sd              =   8.5434077066934E-03
(PID.TID 0000.0001) %MON dynstat_vvel_del2            =   8.0845971844391E-05
(PID.TID 0000.0001) %MON dynstat_wvel_max             =   1.0455611121158E-04
(PID.TID 0000.0001) %MON dynstat_wvel_min             =  -7.5179433911369E-05
(PID.TID 0000.0001) %MON dynstat_wvel_mean            =   2.6645823313500E-22
(PID.TID 0000.0001) %MON dynstat_wvel_sd              =   1.0551815776245E-05
(PID.TID 0000.0001) %MON dynstat_wvel_del2            =   1.0354857915903E-07
(PID.TID 0000.0001) %MON dynstat_theta_max            =   3.1290544011897E+01
(PID.TID 0000.0001) %MON dynstat_theta_min            =  -1.9260184285099E+00
(PID.TID 0000.0001) %MON dynstat_theta_mean           =   3.6442543578025E+00
(PID.TID 0000.0001) %MON dynstat_theta_sd             =   4.4291730136390E+00
(PID.TID 0000.0001) %MON dynstat_theta_del2           =   4.8268467965939E-03
(PID.TID 0000.0001) %MON dynstat_salt_max             =   3.7487461856164E+01
(PID.TID 0000.0001) %MON dynstat_salt_min             =   2.9984541215151E+01
(PID.TID 0000.0001) %MON dynstat_salt_mean            =   3.4737985690683E+01
(PID.TID 0000.0001) %MON dynstat_salt_sd              =   2.9665158505382E-01
(PID.TID 0000.0001) %MON dynstat_salt_del2            =   9.9989606481222E-04
(PID.TID 0000.0001) %MON dynstat_sst_max              =   3.1290544011897E+01
(PID.TID 0000.0001) %MON dynstat_sst_min              =  -1.9260184285099E+00
(PID.TID 0000.0001) %MON dynstat_sst_mean             =   1.9051688897512E+01
(PID.TID 0000.0001) %MON dynstat_sst_sd               =   9.2995367323750E+00
(PID.TID 0000.0001) %MON dynstat_sst_del2             =   2.9430697691116E-02
(PID.TID 0000.0001) %MON dynstat_sss_max              =   3.7487461856164E+01
(PID.TID 0000.0001) %MON dynstat_sss_min              =   2.9984541215151E+01
(PID.TID 0000.0001) %MON dynstat_sss_mean             =   3.4856467350784E+01
(PID.TID 0000.0001) %MON dynstat_sss_sd               =   9.9351022789040E-01
(PID.TID 0000.0001) %MON dynstat_sss_del2             =   8.3532355464490E-03
(PID.TID 0000.0001) %MON forcing_qnet_max             =   1.8040299479167E+02
(PID.TID 0000.0001) %MON forcing_qnet_min             =  -1.5529566446940E+02
(PID.TID 0000.0001) %MON forcing_qnet_mean            =   6.7566258924804E-01
(PID.TID 0000.0001) %MON forcing_qnet_sd              =   4.0811835969263E+01
(PID.TID 0000.0001) %MON forcing_qnet_del2            =   7.8641898136812E-01
(PID.TID 0000.0001) %MON forcing_qsw_max              =   0.0000000000000E+00
(PID.TID 0000.0001) %MON forcing_qsw_min              =   0.0000000000000E+00
(PID.TID 0000.0001) %MON forcing_qsw_mean             =   0.0000000000000E+00
(PID.TID 0000.0001) %MON forcing_qsw_sd               =   0.0000000000000E+00
(PID.TID 0000.0001) %MON forcing_qsw_del2             =   0.0000000000000E+00
(PID.TID 0000.0001) %MON forcing_empmr_max            =   6.7185401538457E-05
(PID.TID 0000.0001) %MON forcing_empmr_min            =  -8.3561339181415E-05
(PID.TID 0000.0001) %MON forcing_empmr_mean           =   1.0180375712738E-07
(PID.TID 0000.0001) %MON forcing_empmr_sd             =   2.5504926925635E-05
(PID.TID 0000.0001) %MON forcing_empmr_del2           =   3.6682577382862E-07
(PID.TID 0000.0001) %MON forcing_fu_max               =   3.4542939066887E-01
(PID.TID 0000.0001) %MON forcing_fu_min               =  -4.0721786022186E-01
(PID.TID 0000.0001) %MON forcing_fu_mean              =   1.7912887361731E-02
(PID.TID 0000.0001) %MON forcing_fu_sd                =   1.0095571358910E-01
(PID.TID 0000.0001) %MON forcing_fu_del2              =   7.8746887246203E-04
(PID.TID 0000.0001) %MON forcing_fv_max               =   1.8138032158216E-01
(PID.TID 0000.0001) %MON forcing_fv_min               =  -1.4448850850264E-01
(PID.TID 0000.0001) %MON forcing_fv_mean              =  -6.8000419925840E-03
(PID.TID 0000.0001) %MON forcing_fv_sd                =   3.8744507410474E-02
(PID.TID 0000.0001) %MON forcing_fv_del2              =   4.1826418135410E-04
(PID.TID 0000.0001) %MON trAdv_CFL_u_max              =   4.6133972472403E-02
(PID.TID 0000.0001) %MON trAdv_CFL_v_max              =   2.6839402258054E-02
(PID.TID 0000.0001) %MON trAdv_CFL_w_max              =   3.0437148711401E-02
(PID.TID 0000.0001) %MON advcfl_uvel_max              =   4.5990710910398E-02
(PID.TID 0000.0001) %MON advcfl_vvel_max              =   2.6285813021112E-02
(PID.TID 0000.0001) %MON advcfl_wvel_max              =   3.1437435696724E-02
(PID.TID 0000.0001) %MON advcfl_W_hf_max              =   3.8174029060307E-02
(PID.TID 0000.0001) %MON pe_b_mean                    =   4.5060228743520E-04
(PID.TID 0000.0001) %MON ke_max                       =   1.1402628546078E-02
(PID.TID 0000.0001) %MON ke_mean                      =   1.4447830914364E-04
(PID.TID 0000.0001) %MON ke_vol                       =   1.3226782436723E+18
(PID.TID 0000.0001) %MON vort_r_min                   =  -3.7420309983759E-07
(PID.TID 0000.0001) %MON vort_r_max                   =   4.9368796129313E-07
(PID.TID 0000.0001) %MON vort_a_mean                  =  -2.5274807246513E-05
(PID.TID 0000.0001) %MON vort_a_sd                    =   7.3604627980639E-05
(PID.TID 0000.0001) %MON vort_p_mean                  =  -3.1845655609294E-05
(PID.TID 0000.0001) %MON vort_p_sd                    =   1.3162461373428E-04
(PID.TID 0000.0001) %MON surfExpan_theta_mean         =  -6.3113464675906E-08
(PID.TID 0000.0001) %MON surfExpan_salt_mean          =   5.6489174999137E-08
(PID.TID 0000.0001) // =======================================================
(PID.TID 0000.0001) // End MONITOR dynamic field statistics
(PID.TID 0000.0001) // =======================================================
 EXTERNAL_FIELDS_LOAD,        96 : iP,iLd,i0,i1=    3    4    3    4 ; Wght=  0.3000000000  0.7000000000
 EXTERNAL_FIELDS_LOAD: (fu0,1),fu,fv= -2.7199E-02 -3.7252E-02 -3.4236E-02 -2.4825E-02
 EXTERNAL_FIELDS_LOAD: SST,SSS,Q,E-P= -3.0436E-02  3.4572E+01  1.3750E+02  8.1626E-06
DEBUG_STATS_RL:          Uvel (THERMODYNAMICS)  min= -1.41327737682373E-01
DEBUG_STATS_RL:          Uvel (THERMODYNAMICS)  max=  1.26543260406345E-01
DEBUG_STATS_RL:          Uvel (THERMODYNAMICS) mean=  5.67437535169668E-03
DEBUG_STATS_RL:          Uvel (THERMODYNAMICS) S.D.=  2.30793678752935E-02
DEBUG_STATS_RL:          Vvel (THERMODYNAMICS)  min= -9.81251589580809E-02
DEBUG_STATS_RL:          Vvel (THERMODYNAMICS)  max=  1.35295846143118E-01
DEBUG_STATS_RL:          Vvel (THERMODYNAMICS) mean=  8.72083363992360E-04
DEBUG_STATS_RL:          Vvel (THERMODYNAMICS) S.D.=  1.33624921949529E-02
DEBUG_STATS_RL:          Wvel (THERMODYNAMICS)  min= -7.51794339113686E-05
DEBUG_STATS_RL:          Wvel (THERMODYNAMICS)  max=  1.04556111211579E-04
DEBUG_STATS_RL:          Wvel (THERMODYNAMICS) mean= -3.35579582092516E-08
DEBUG_STATS_RL:          Wvel (THERMODYNAMICS) S.D.=  9.12959212570575E-06
DEBUG_STATS_RL:         Theta (THERMODYNAMICS)  min= -1.92518975111329E+00
DEBUG_STATS_RL:         Theta (THERMODYNAMICS)  max=  3.13010436245540E+01
DEBUG_STATS_RL:         Theta (THERMODYNAMICS) mean=  3.23934642376085E+00
DEBUG_STATS_RL:         Theta (THERMODYNAMICS) S.D.=  5.88914811469711E+00
DEBUG_STATS_RL:          Salt (THERMODYNAMICS)  min=  2.00000000000000E-02
DEBUG_STATS_RL:          Salt (THERMODYNAMICS)  max=  3.74876213222248E+01
DEBUG_STATS_RL:          Salt (THERMODYNAMICS) mean=  1.88647042566035E+01
DEBUG_STATS_RL:          Salt (THERMODYNAMICS) S.D.=  1.73002711391800E+01
DEBUG_STATS_RL:         GtNm1 (THERMODYNAMICS)  min= -1.92128506443975E-06
DEBUG_STATS_RL:         GtNm1 (THERMODYNAMICS)  max=  1.88982543376399E-06
DEBUG_STATS_RL:         GtNm1 (THERMODYNAMICS) mean= -2.46039505440827E-09
DEBUG_STATS_RL:         GtNm1 (THERMODYNAMICS) S.D.=  1.33000939015437E-07
DEBUG_STATS_RL:         GsNm1 (THERMODYNAMICS)  min= -4.23959816227461E-07
DEBUG_STATS_RL:         GsNm1 (THERMODYNAMICS)  max=  3.01568782541204E-07
DEBUG_STATS_RL:         GsNm1 (THERMODYNAMICS) mean= -2.17424253240785E-10
DEBUG_STATS_RL:         GsNm1 (THERMODYNAMICS) S.D.=  1.32304286136657E-08
DEBUG_STATS_RL:                EtaN (DYNAMICS)  min= -1.82382316318958E+00
DEBUG_STATS_RL:                EtaN (DYNAMICS)  max=  7.56026149594064E-01
DEBUG_STATS_RL:                EtaN (DYNAMICS) mean= -1.80711218272282E-01
DEBUG_STATS_RL:                EtaN (DYNAMICS) S.D.=  6.98699409597238E-01
DEBUG_STATS_RL:                Uvel (DYNAMICS)  min= -1.41327737682373E-01
DEBUG_STATS_RL:                Uvel (DYNAMICS)  max=  1.26543260406345E-01
DEBUG_STATS_RL:                Uvel (DYNAMICS) mean=  5.67437535169668E-03
DEBUG_STATS_RL:                Uvel (DYNAMICS) S.D.=  2.30793678752935E-02
DEBUG_STATS_RL:                Vvel (DYNAMICS)  min= -9.81251589580809E-02
DEBUG_STATS_RL:                Vvel (DYNAMICS)  max=  1.35295846143118E-01
DEBUG_STATS_RL:                Vvel (DYNAMICS) mean=  8.72083363992360E-04
DEBUG_STATS_RL:                Vvel (DYNAMICS) S.D.=  1.33624921949529E-02
DEBUG_STATS_RL:                Wvel (DYNAMICS)  min= -7.51794339113686E-05
DEBUG_STATS_RL:                Wvel (DYNAMICS)  max=  1.04556111211579E-04
DEBUG_STATS_RL:                Wvel (DYNAMICS) mean= -3.35579582092516E-08
DEBUG_STATS_RL:                Wvel (DYNAMICS) S.D.=  9.12959212570575E-06
DEBUG_STATS_RL:               Theta (DYNAMICS)  min= -1.92518975111329E+00
DEBUG_STATS_RL:               Theta (DYNAMICS)  max=  3.13010436245540E+01
DEBUG_STATS_RL:               Theta (DYNAMICS) mean=  3.23934642376085E+00
DEBUG_STATS_RL:               Theta (DYNAMICS) S.D.=  5.88914811469711E+00
DEBUG_STATS_RL:                Salt (DYNAMICS)  min=  2.00000000000000E-02
DEBUG_STATS_RL:                Salt (DYNAMICS)  max=  3.74876213222248E+01
DEBUG_STATS_RL:                Salt (DYNAMICS) mean=  1.88647042566035E+01
DEBUG_STATS_RL:                Salt (DYNAMICS) S.D.=  1.73002711391800E+01
DEBUG_STATS_RL:                  Gu (DYNAMICS)  min= -1.40383082332824E-01
DEBUG_STATS_RL:                  Gu (DYNAMICS)  max=  1.33803278786220E-01
DEBUG_STATS_RL:                  Gu (DYNAMICS) mean=  5.62887064448778E-03
DEBUG_STATS_RL:                  Gu (DYNAMICS) S.D.=  2.34478942420271E-02
DEBUG_STATS_RL:                  Gv (DYNAMICS)  min= -9.55446334549292E-02
DEBUG_STATS_RL:                  Gv (DYNAMICS)  max=  1.35081526956962E-01
DEBUG_STATS_RL:                  Gv (DYNAMICS) mean=  3.48640043480250E-03
DEBUG_STATS_RL:                  Gv (DYNAMICS) S.D.=  1.49097020085467E-02
DEBUG_STATS_RL:               GuNm1 (DYNAMICS)  min= -9.57952764902826E-06
DEBUG_STATS_RL:               GuNm1 (DYNAMICS)  max=  1.03432683977050E-05
DEBUG_STATS_RL:               GuNm1 (DYNAMICS) mean=  1.87915317154000E-08
DEBUG_STATS_RL:               GuNm1 (DYNAMICS) S.D.=  1.23443932949546E-06
DEBUG_STATS_RL:               GvNm1 (DYNAMICS)  min= -9.33024116749828E-06
DEBUG_STATS_RL:               GvNm1 (DYNAMICS)  max=  1.49424045935026E-05
DEBUG_STATS_RL:               GvNm1 (DYNAMICS) mean=  7.44702483050701E-07
DEBUG_STATS_RL:               GvNm1 (DYNAMICS) S.D.=  2.60931708643024E-06
DEBUG_STATS_RL:               GtNm1 (DYNAMICS)  min= -1.92128506443975E-06
DEBUG_STATS_RL:               GtNm1 (DYNAMICS)  max=  1.88982543376399E-06
DEBUG_STATS_RL:               GtNm1 (DYNAMICS) mean= -2.46039505440827E-09
DEBUG_STATS_RL:               GtNm1 (DYNAMICS) S.D.=  1.33000939015437E-07
DEBUG_STATS_RL:               GsNm1 (DYNAMICS)  min= -4.23959816227461E-07
DEBUG_STATS_RL:               GsNm1 (DYNAMICS)  max=  3.01568782541204E-07
DEBUG_STATS_RL:               GsNm1 (DYNAMICS) mean= -2.17424253240785E-10
DEBUG_STATS_RL:               GsNm1 (DYNAMICS) S.D.=  1.32304286136657E-08
DEBUG_STATS_RL:    cg2d_b (SOLVE_FOR_PRESSURE)  min= -2.84024936357652E+04
DEBUG_STATS_RL:    cg2d_b (SOLVE_FOR_PRESSURE)  max=  3.30576314931148E+04
DEBUG_STATS_RL:    cg2d_b (SOLVE_FOR_PRESSURE) mean=  5.61619460874313E+00
DEBUG_STATS_RL:    cg2d_b (SOLVE_FOR_PRESSURE) S.D.=  4.07798617338636E+03
 cg2d: Sum(rhs),rhsMax =   3.93297702587965E-01  2.17131374582031E+00
(PID.TID 0000.0001)  cg2d: iter=     1 ; resid.=  8.25523556648504E-02
(PID.TID 0000.0001)  cg2d: iter=     2 ; resid.=  5.79890264400771E-02
(PID.TID 0000.0001)  cg2d: iter=     3 ; resid.=  4.99534977461557E-02
(PID.TID 0000.0001)  cg2d: iter=     4 ; resid.=  4.12761515486949E-02
(PID.TID 0000.0001)  cg2d: iter=     5 ; resid.=  3.04936871490722E-02
(PID.TID 0000.0001)  cg2d: iter=     6 ; resid.=  2.57087488494327E-02
(PID.TID 0000.0001)  cg2d: iter=     7 ; resid.=  2.10381873636950E-02
(PID.TID 0000.0001)  cg2d: iter=     8 ; resid.=  1.83267564992336E-02
(PID.TID 0000.0001)  cg2d: iter=     9 ; resid.=  1.57661685762587E-02
(PID.TID 0000.0001)  cg2d: iter=    10 ; resid.=  1.38508332407899E-02
(PID.TID 0000.0001)  cg2d: iter=    11 ; resid.=  1.27630328215388E-02
(PID.TID 0000.0001)  cg2d: iter=    12 ; resid.=  1.08559467737315E-02
(PID.TID 0000.0001)  cg2d: iter=    13 ; resid.=  8.91462709674011E-03
(PID.TID 0000.0001)  cg2d: iter=    14 ; resid.=  7.69783761378092E-03
(PID.TID 0000.0001)  cg2d: iter=    15 ; resid.=  6.50121307079334E-03
(PID.TID 0000.0001)  cg2d: iter=    16 ; resid.=  5.43628379298574E-03
(PID.TID 0000.0001)  cg2d: iter=    17 ; resid.=  4.69851681335713E-03
(PID.TID 0000.0001)  cg2d: iter=    18 ; resid.=  3.94867384174760E-03
(PID.TID 0000.0001)  cg2d: iter=    19 ; resid.=  3.50027394802923E-03
(PID.TID 0000.0001)  cg2d: iter=    20 ; resid.=  2.76971801365951E-03
(PID.TID 0000.0001)  cg2d: iter=    21 ; resid.=  2.43660275293078E-03
(PID.TID 0000.0001)  cg2d: iter=    22 ; resid.=  2.04460341617994E-03
(PID.TID 0000.0001)  cg2d: iter=    23 ; resid.=  1.67507132508092E-03
(PID.TID 0000.0001)  cg2d: iter=    24 ; resid.=  1.35427052245516E-03
(PID.TID 0000.0001)  cg2d: iter=    25 ; resid.=  1.05782270104677E-03
(PID.TID 0000.0001)  cg2d: iter=    26 ; resid.=  8.69774372074430E-04
(PID.TID 0000.0001)  cg2d: iter=    27 ; resid.=  7.45682689394945E-04
(PID.TID 0000.0001)  cg2d: iter=    28 ; resid.=  6.20053424423794E-04
(PID.TID 0000.0001)  cg2d: iter=    29 ; resid.=  4.98699188608878E-04
(PID.TID 0000.0001)  cg2d: iter=    30 ; resid.=  4.16874709423407E-04
(PID.TID 0000.0001)  cg2d: iter=    31 ; resid.=  3.73338512526857E-04
(PID.TID 0000.0001)  cg2d: iter=    32 ; resid.=  2.97248937582149E-04
(PID.TID 0000.0001)  cg2d: iter=    33 ; resid.=  2.39674527305569E-04
(PID.TID 0000.0001)  cg2d: iter=    34 ; resid.=  2.08661370583216E-04
(PID.TID 0000.0001)  cg2d: iter=    35 ; resid.=  1.68211130249922E-04
(PID.TID 0000.0001)  cg2d: iter=    36 ; resid.=  1.48159536457988E-04
(PID.TID 0000.0001)  cg2d: iter=    37 ; resid.=  1.24430005409497E-04
(PID.TID 0000.0001)  cg2d: iter=    38 ; resid.=  1.01706351247692E-04
(PID.TID 0000.0001)  cg2d: iter=    39 ; resid.=  8.34640771840061E-05
(PID.TID 0000.0001)  cg2d: iter=    40 ; resid.=  6.89865222590658E-05
(PID.TID 0000.0001)  cg2d: iter=    41 ; resid.=  5.87898642641169E-05
(PID.TID 0000.0001)  cg2d: iter=    42 ; resid.=  5.50793933815751E-05
(PID.TID 0000.0001)  cg2d: iter=    43 ; resid.=  5.00476452272100E-05
(PID.TID 0000.0001)  cg2d: iter=    44 ; resid.=  4.07283875214704E-05
(PID.TID 0000.0001)  cg2d: iter=    45 ; resid.=  3.19789463122689E-05
(PID.TID 0000.0001)  cg2d: iter=    46 ; resid.=  2.46664477869903E-05
(PID.TID 0000.0001)  cg2d: iter=    47 ; resid.=  2.14469458638560E-05
(PID.TID 0000.0001)  cg2d: iter=    48 ; resid.=  1.81247977639737E-05
(PID.TID 0000.0001)  cg2d: iter=    49 ; resid.=  1.42078666729948E-05
(PID.TID 0000.0001)  cg2d: iter=    50 ; resid.=  1.02837299037017E-05
(PID.TID 0000.0001)  cg2d: iter=    51 ; resid.=  7.75391275645741E-06
(PID.TID 0000.0001)  cg2d: iter=    52 ; resid.=  6.13272063927121E-06
(PID.TID 0000.0001)  cg2d: iter=    53 ; resid.=  5.17763538188304E-06
(PID.TID 0000.0001)  cg2d: iter=    54 ; resid.=  4.43201133595939E-06
(PID.TID 0000.0001)  cg2d: iter=    55 ; resid.=  3.95850221969114E-06
(PID.TID 0000.0001)  cg2d: iter=    56 ; resid.=  3.40397991767239E-06
(PID.TID 0000.0001)  cg2d: iter=    57 ; resid.=  2.89197349535237E-06
(PID.TID 0000.0001)  cg2d: iter=    58 ; resid.=  2.29759408297706E-06
(PID.TID 0000.0001)  cg2d: iter=    59 ; resid.=  1.76667816349289E-06
(PID.TID 0000.0001)  cg2d: iter=    60 ; resid.=  1.46509536004916E-06
(PID.TID 0000.0001)  cg2d: iter=    61 ; resid.=  1.10589870982010E-06
(PID.TID 0000.0001)  cg2d: iter=    62 ; resid.=  8.25587538506150E-07
(PID.TID 0000.0001)  cg2d: iter=    63 ; resid.=  7.09162595509168E-07
(PID.TID 0000.0001)  cg2d: iter=    64 ; resid.=  6.73100225029825E-07
(PID.TID 0000.0001)  cg2d: iter=    65 ; resid.=  5.87887066819973E-07
(PID.TID 0000.0001)  cg2d: iter=    66 ; resid.=  4.94422147683207E-07
(PID.TID 0000.0001)  cg2d: iter=    67 ; resid.=  4.40869830681428E-07
(PID.TID 0000.0001)  cg2d: iter=    68 ; resid.=  3.30886168576052E-07
(PID.TID 0000.0001)  cg2d: iter=    69 ; resid.=  2.60730565478744E-07
(PID.TID 0000.0001)  cg2d: iter=    70 ; resid.=  1.95784167680686E-07
(PID.TID 0000.0001)  cg2d: iter=    71 ; resid.=  1.65076489229520E-07
(PID.TID 0000.0001)  cg2d: iter=    72 ; resid.=  1.31553243456933E-07
(PID.TID 0000.0001)  cg2d: iter=    73 ; resid.=  1.13022005394680E-07
(PID.TID 0000.0001)  cg2d: iter=    74 ; resid.=  8.24213117551974E-08
(PID.TID 0000.0001)  cg2d: iter=    75 ; resid.=  6.13552352252122E-08
(PID.TID 0000.0001)  cg2d: iter=    76 ; resid.=  4.84896079428228E-08
(PID.TID 0000.0001)  cg2d: iter=    77 ; resid.=  4.37190556106180E-08
(PID.TID 0000.0001)  cg2d: iter=    78 ; resid.=  3.76188962515297E-08
(PID.TID 0000.0001)  cg2d: iter=    79 ; resid.=  3.46813836983013E-08
(PID.TID 0000.0001)  cg2d: iter=    80 ; resid.=  3.08297393489178E-08
(PID.TID 0000.0001)  cg2d: iter=    81 ; resid.=  2.61836691647259E-08
(PID.TID 0000.0001)  cg2d: iter=    82 ; resid.=  2.21362460364952E-08
(PID.TID 0000.0001)  cg2d: iter=    83 ; resid.=  1.75640811729073E-08
(PID.TID 0000.0001)  cg2d: iter=    84 ; resid.=  1.29664311611968E-08
(PID.TID 0000.0001)  cg2d: iter=    85 ; resid.=  8.97807768584698E-09
(PID.TID 0000.0001)  cg2d: iter=    86 ; resid.=  7.05276280196264E-09
(PID.TID 0000.0001)  cg2d: iter=    87 ; resid.=  5.50181253959765E-09
(PID.TID 0000.0001)  cg2d: iter=    88 ; resid.=  4.22096618460869E-09
(PID.TID 0000.0001)  cg2d: iter=    89 ; resid.=  3.37961926864534E-09
(PID.TID 0000.0001)  cg2d: iter=    90 ; resid.=  2.88745593735725E-09
(PID.TID 0000.0001)  cg2d: iter=    91 ; resid.=  2.27863030437721E-09
(PID.TID 0000.0001)  cg2d: iter=    92 ; resid.=  1.73944362728760E-09
(PID.TID 0000.0001)  cg2d: iter=    93 ; resid.=  1.37955797957011E-09
(PID.TID 0000.0001)  cg2d: iter=    94 ; resid.=  1.08319408115344E-09
(PID.TID 0000.0001)  cg2d: iter=    95 ; resid.=  8.68078945730410E-10
(PID.TID 0000.0001)  cg2d: iter=    96 ; resid.=  6.33792966480435E-10
(PID.TID 0000.0001)  cg2d: iter=    97 ; resid.=  4.74293861098560E-10
(PID.TID 0000.0001)  cg2d: iter=    98 ; resid.=  3.62066558064232E-10
(PID.TID 0000.0001)  cg2d: iter=    99 ; resid.=  2.54330670416477E-10
(PID.TID 0000.0001)  cg2d: iter=   100 ; resid.=  1.95514939539643E-10
(PID.TID 0000.0001)  cg2d: iter=   101 ; resid.=  1.34768700776544E-10
(PID.TID 0000.0001)  cg2d: iter=   102 ; resid.=  9.42224650144237E-11
(PID.TID 0000.0001)  cg2d: iter=   103 ; resid.=  7.54707919192423E-11
(PID.TID 0000.0001)  cg2d: iter=   104 ; resid.=  6.22154565389071E-11
(PID.TID 0000.0001)  cg2d: iter=   105 ; resid.=  5.25153785342898E-11
(PID.TID 0000.0001)  cg2d: iter=   106 ; resid.=  4.36837520705193E-11
(PID.TID 0000.0001)  cg2d: iter=   107 ; resid.=  3.87406687882322E-11
(PID.TID 0000.0001)  cg2d: iter=   108 ; resid.=  3.14454814460241E-11
(PID.TID 0000.0001)  cg2d: iter=   109 ; resid.=  2.34277203718349E-11
(PID.TID 0000.0001)  cg2d: iter=   110 ; resid.=  1.91890625821103E-11
(PID.TID 0000.0001)  cg2d: iter=   111 ; resid.=  1.70504375164491E-11
(PID.TID 0000.0001)  cg2d: iter=   112 ; resid.=  1.52366805716037E-11
(PID.TID 0000.0001)  cg2d: iter=   113 ; resid.=  1.13497407384030E-11
(PID.TID 0000.0001)  cg2d: iter=   114 ; resid.=  9.06459728242528E-12
(PID.TID 0000.0001)  cg2d: iter=   115 ; resid.=  7.50056383595054E-12
(PID.TID 0000.0001)  cg2d: iter=   116 ; resid.=  5.77080744209202E-12
(PID.TID 0000.0001)  cg2d: iter=   117 ; resid.=  4.28222430577973E-12
(PID.TID 0000.0001)  cg2d: iter=   118 ; resid.=  3.35269324219992E-12
(PID.TID 0000.0001)  cg2d: iter=   119 ; resid.=  2.59868148486232E-12
(PID.TID 0000.0001)  cg2d: iter=   120 ; resid.=  1.98119792050184E-12
(PID.TID 0000.0001)  cg2d: iter=   121 ; resid.=  1.45746513854861E-12
(PID.TID 0000.0001)  cg2d: iter=   122 ; resid.=  1.09589505289864E-12
(PID.TID 0000.0001)  cg2d: iter=   123 ; resid.=  8.41591328787890E-13
(PID.TID 0000.0001)  cg2d: iter=   124 ; resid.=  6.47732833603685E-13
(PID.TID 0000.0001)  cg2d: iter=   125 ; resid.=  5.38750209250648E-13
(PID.TID 0000.0001)  cg2d: iter=   126 ; resid.=  4.31032622333691E-13
(PID.TID 0000.0001)  cg2d: iter=   127 ; resid.=  3.09976838765759E-13
(PID.TID 0000.0001)  cg2d: iter=   128 ; resid.=  2.18179125385137E-13
(PID.TID 0000.0001)  cg2d: iter=   129 ; resid.=  1.53959741664604E-13
(PID.TID 0000.0001)  cg2d: iter=   130 ; resid.=  1.18953369316246E-13
(PID.TID 0000.0001)  cg2d: iter=   131 ; resid.=  9.25217599676309E-14
DEBUG_STATS_RL:    cg2d_x (SOLVE_FOR_PRESSURE)  min= -1.80161229851815E+01
DEBUG_STATS_RL:    cg2d_x (SOLVE_FOR_PRESSURE)  max=  7.36810707190073E+00
DEBUG_STATS_RL:    cg2d_x (SOLVE_FOR_PRESSURE) mean= -1.76775186943484E+00
DEBUG_STATS_RL:    cg2d_x (SOLVE_FOR_PRESSURE) S.D.=  6.86686771660155E+00
(PID.TID 0000.0001)      cg2d_init_res =   1.96325995395234E-01
(PID.TID 0000.0001)      cg2d_iters(min,last) =      -1     131
(PID.TID 0000.0001)      cg2d_last_res =   9.25217599676309E-14
(PID.TID 0000.0001) // =======================================================
(PID.TID 0000.0001) // Begin MONITOR dynamic field statistics
(PID.TID 0000.0001) // =======================================================
(PID.TID 0000.0001) %MON time_tsnumber                =                    97
(PID.TID 0000.0001) %MON time_secondsf                =   8.3808000000000E+06
(PID.TID 0000.0001) %MON dynstat_eta_max              =   7.5108125095830E-01
(PID.TID 0000.0001) %MON dynstat_eta_min              =  -1.8365059108239E+00
(PID.TID 0000.0001) %MON dynstat_eta_mean             =  -5.8598026890827E-03
(PID.TID 0000.0001) %MON dynstat_eta_sd               =   5.9428707783615E-01
(PID.TID 0000.0001) %MON dynstat_eta_del2             =   2.5927386363646E-03
(PID.TID 0000.0001) %MON dynstat_uvel_max             =   1.2965779652205E-01
(PID.TID 0000.0001) %MON dynstat_uvel_min             =  -1.4084207464891E-01
(PID.TID 0000.0001) %MON dynstat_uvel_mean            =   2.2450865125286E-03
(PID.TID 0000.0001) %MON dynstat_uvel_sd              =   1.5479404430313E-02
(PID.TID 0000.0001) %MON dynstat_uvel_del2            =   1.2001039806838E-04
(PID.TID 0000.0001) %MON dynstat_vvel_max             =   1.3194254803413E-01
(PID.TID 0000.0001) %MON dynstat_vvel_min             =  -9.7339496160758E-02
(PID.TID 0000.0001) %MON dynstat_vvel_mean            =   6.8762325807245E-05
(PID.TID 0000.0001) %MON dynstat_vvel_sd              =   8.4831311275512E-03
(PID.TID 0000.0001) %MON dynstat_vvel_del2            =   8.0364516371910E-05
(PID.TID 0000.0001) %MON dynstat_wvel_max             =   9.9584179831859E-05
(PID.TID 0000.0001) %MON dynstat_wvel_min             =  -7.0201832849979E-05
(PID.TID 0000.0001) %MON dynstat_wvel_mean            =  -1.8973422609044E-22
(PID.TID 0000.0001) %MON dynstat_wvel_sd              =   1.0447992576115E-05
(PID.TID 0000.0001) %MON dynstat_wvel_del2            =   1.0259606759997E-07
(PID.TID 0000.0001) %MON dynstat_theta_max            =   3.1301043624554E+01
(PID.TID 0000.0001) %MON dynstat_theta_min            =  -1.9251897511133E+00
(PID.TID 0000.0001) %MON dynstat_theta_mean           =   3.6442477241360E+00
(PID.TID 0000.0001) %MON dynstat_theta_sd             =   4.4291798526419E+00
(PID.TID 0000.0001) %MON dynstat_theta_del2           =   4.8246511924713E-03
(PID.TID 0000.0001) %MON dynstat_salt_max             =   3.7487621322225E+01
(PID.TID 0000.0001) %MON dynstat_salt_min             =   2.9988378073359E+01
(PID.TID 0000.0001) %MON dynstat_salt_mean            =   3.4737985044701E+01
(PID.TID 0000.0001) %MON dynstat_salt_sd              =   2.9665772264243E-01
(PID.TID 0000.0001) %MON dynstat_salt_del2            =   1.0002218794898E-03
(PID.TID 0000.0001) %MON dynstat_sst_max              =   3.1301043624554E+01
(PID.TID 0000.0001) %MON dynstat_sst_min              =  -1.9251897511133E+00
(PID.TID 0000.0001) %MON dynstat_sst_mean             =   1.9047858817564E+01
(PID.TID 0000.0001) %MON dynstat_sst_sd               =   9.3066129750497E+00
(PID.TID 0000.0001) %MON dynstat_sst_del2             =   2.9448515162930E-02
(PID.TID 0000.0001) %MON dynstat_sss_max              =   3.7487621322225E+01
(PID.TID 0000.0001) %MON dynstat_sss_min              =   2.9988378073359E+01
(PID.TID 0000.0001) %MON dynstat_sss_mean             =   3.4856247539454E+01
(PID.TID 0000.0001) %MON dynstat_sss_sd               =   9.9392090880827E-01
(PID.TID 0000.0001) %MON dynstat_sss_del2             =   8.3624688600854E-03
(PID.TID 0000.0001) %MON forcing_qnet_max             =   1.7569776000977E+02
(PID.TID 0000.0001) %MON forcing_qnet_min             =  -1.5486766815186E+02
(PID.TID 0000.0001) %MON forcing_qnet_mean            =   1.0726990182177E+00
(PID.TID 0000.0001) %MON forcing_qnet_sd              =   4.1320424539580E+01
(PID.TID 0000.0001) %MON forcing_qnet_del2            =   7.8843737531048E-01
(PID.TID 0000.0001) %MON forcing_qsw_max              =   0.0000000000000E+00
(PID.TID 0000.0001) %MON forcing_qsw_min              =   0.0000000000000E+00
(PID.TID 0000.0001) %MON forcing_qsw_mean             =   0.0000000000000E+00
(PID.TID 0000.0001) %MON forcing_qsw_sd               =   0.0000000000000E+00
(PID.TID 0000.0001) %MON forcing_qsw_del2             =   0.0000000000000E+00
(PID.TID 0000.0001) %MON forcing_empmr_max            =   6.7089230526562E-05
(PID.TID 0000.0001) %MON forcing_empmr_min            =  -8.3576185261336E-05
(PID.TID 0000.0001) %MON forcing_empmr_mean           =   7.9358392299823E-08
(PID.TID 0000.0001) %MON forcing_empmr_sd             =   2.5503892670617E-05
(PID.TID 0000.0001) %MON forcing_empmr_del2           =   3.6761681237783E-07
(PID.TID 0000.0001) %MON forcing_fu_max               =   3.4493733644485E-01
(PID.TID 0000.0001) %MON forcing_fu_min               =  -4.0815093219280E-01
(PID.TID 0000.0001) %MON forcing_fu_mean              =   1.7785695264799E-02
(PID.TID 0000.0001) %MON forcing_fu_sd                =   1.0114758509639E-01
(PID.TID 0000.0001) %MON forcing_fu_del2              =   7.9173719462986E-04
(PID.TID 0000.0001) %MON forcing_fv_max               =   1.8128432035446E-01
(PID.TID 0000.0001) %MON forcing_fv_min               =  -1.4479391127825E-01
(PID.TID 0000.0001) %MON forcing_fv_mean              =  -6.7635653202109E-03
(PID.TID 0000.0001) %MON forcing_fv_sd                =   3.8824397894992E-02
(PID.TID 0000.0001) %MON forcing_fv_del2              =   4.2076797046063E-04
(PID.TID 0000.0001) %MON trAdv_CFL_u_max              =   4.6000051952715E-02
(PID.TID 0000.0001) %MON trAdv_CFL_v_max              =   2.6243094517314E-02
(PID.TID 0000.0001) %MON trAdv_CFL_w_max              =   3.1559677481069E-02
(PID.TID 0000.0001) %MON advcfl_uvel_max              =   4.5879016939797E-02
(PID.TID 0000.0001) %MON advcfl_vvel_max              =   2.5634320978972E-02
(PID.TID 0000.0001) %MON advcfl_wvel_max              =   3.0633648160041E-02
(PID.TID 0000.0001) %MON advcfl_W_hf_max              =   3.7198001337192E-02
(PID.TID 0000.0001) %MON pe_b_mean                    =   4.5197664710239E-04
(PID.TID 0000.0001) %MON ke_max                       =   1.1324053499239E-02
(PID.TID 0000.0001) %MON ke_mean                      =   1.4345897489905E-04
(PID.TID 0000.0001) %MON ke_vol                       =   1.3226782436723E+18
(PID.TID 0000.0001) %MON vort_r_min                   =  -3.7899579855991E-07
(PID.TID 0000.0001) %MON vort_r_max                   =   4.8235831565945E-07
(PID.TID 0000.0001) %MON vort_a_mean                  =  -2.5274807222646E-05
(PID.TID 0000.0001) %MON vort_a_sd                    =   7.3604638261495E-05
(PID.TID 0000.0001) %MON vort_p_mean                  =  -3.1845655579222E-05
(PID.TID 0000.0001) %MON vort_p_sd                    =   1.3162464601997E-04
(PID.TID 0000.0001) %MON surfExpan_theta_mean         =   2.6055310304100E-08
(PID.TID 0000.0001) %MON surfExpan_salt_mean          =   3.4963948894150E-08
(PID.TID 0000.0001) // =======================================================
(PID.TID 0000.0001) // End MONITOR dynamic field statistics
(PID.TID 0000.0001) // =======================================================
 EXTERNAL_FIELDS_LOAD,        97 : iP,iLd,i0,i1=    3    4    3    4 ; Wght=  0.2666666667  0.7333333333
 EXTERNAL_FIELDS_LOAD: (fu0,1),fu,fv= -2.7199E-02 -3.7252E-02 -3.4571E-02 -2.5979E-02
 EXTERNAL_FIELDS_LOAD: SST,SSS,Q,E-P= -2.3128E-02  3.4572E+01  1.3379E+02  8.1189E-06
DEBUG_STATS_RL:          Uvel (THERMODYNAMICS)  min= -1.40842074648907E-01
DEBUG_STATS_RL:          Uvel (THERMODYNAMICS)  max=  1.29657796522050E-01
DEBUG_STATS_RL:          Uvel (THERMODYNAMICS) mean=  5.71472970425433E-03
DEBUG_STATS_RL:          Uvel (THERMODYNAMICS) S.D.=  2.30748631513957E-02
DEBUG_STATS_RL:          Vvel (THERMODYNAMICS)  min= -9.73394961607581E-02
DEBUG_STATS_RL:          Vvel (THERMODYNAMICS)  max=  1.31942548034130E-01
DEBUG_STATS_RL:          Vvel (THERMODYNAMICS) mean=  8.54073038852637E-04
DEBUG_STATS_RL:          Vvel (THERMODYNAMICS) S.D.=  1.32730795517700E-02
DEBUG_STATS_RL:          Wvel (THERMODYNAMICS)  min= -7.02018328499793E-05
DEBUG_STATS_RL:          Wvel (THERMODYNAMICS)  max=  9.95841798318588E-05
DEBUG_STATS_RL:          Wvel (THERMODYNAMICS) mean= -3.54546398724536E-08
DEBUG_STATS_RL:          Wvel (THERMODYNAMICS) S.D.=  9.02666026520526E-06
DEBUG_STATS_RL:         Theta (THERMODYNAMICS)  min= -1.92435867818314E+00
DEBUG_STATS_RL:         Theta (THERMODYNAMICS)  max=  3.13108983905085E+01
DEBUG_STATS_RL:         Theta (THERMODYNAMICS) mean=  3.23915717176836E+00
DEBUG_STATS_RL:         Theta (THERMODYNAMICS) S.D.=  5.88906302806710E+00
DEBUG_STATS_RL:          Salt (THERMODYNAMICS)  min=  2.00000000000000E-02
DEBUG_STATS_RL:          Salt (THERMODYNAMICS)  max=  3.74877739431086E+01
DEBUG_STATS_RL:          Salt (THERMODYNAMICS) mean=  1.88646983247593E+01
DEBUG_STATS_RL:          Salt (THERMODYNAMICS) S.D.=  1.73002664817316E+01
DEBUG_STATS_RL:         GtNm1 (THERMODYNAMICS)  min= -1.80929647293103E-06
DEBUG_STATS_RL:         GtNm1 (THERMODYNAMICS)  max=  1.98479514936665E-06
DEBUG_STATS_RL:         GtNm1 (THERMODYNAMICS) mean= -2.67033486445314E-09
DEBUG_STATS_RL:         GtNm1 (THERMODYNAMICS) S.D.=  1.30938956890192E-07
DEBUG_STATS_RL:         GsNm1 (THERMODYNAMICS)  min= -3.42368852984267E-07
DEBUG_STATS_RL:         GsNm1 (THERMODYNAMICS)  max=  2.81162548014491E-07
DEBUG_STATS_RL:         GsNm1 (THERMODYNAMICS) mean= -2.01954080517699E-10
DEBUG_STATS_RL:         GsNm1 (THERMODYNAMICS) S.D.=  1.27559124134837E-08
DEBUG_STATS_RL:                EtaN (DYNAMICS)  min= -1.83650591082391E+00
DEBUG_STATS_RL:                EtaN (DYNAMICS)  max=  7.51081250958295E-01
DEBUG_STATS_RL:                EtaN (DYNAMICS) mean= -1.80198967322616E-01
DEBUG_STATS_RL:                EtaN (DYNAMICS) S.D.=  6.99986515453784E-01
DEBUG_STATS_RL:                Uvel (DYNAMICS)  min= -1.40842074648907E-01
DEBUG_STATS_RL:                Uvel (DYNAMICS)  max=  1.29657796522050E-01
DEBUG_STATS_RL:                Uvel (DYNAMICS) mean=  5.71472970425433E-03
DEBUG_STATS_RL:                Uvel (DYNAMICS) S.D.=  2.30748631513957E-02
DEBUG_STATS_RL:                Vvel (DYNAMICS)  min= -9.73394961607581E-02
DEBUG_STATS_RL:                Vvel (DYNAMICS)  max=  1.31942548034130E-01
DEBUG_STATS_RL:                Vvel (DYNAMICS) mean=  8.54073038852637E-04
DEBUG_STATS_RL:                Vvel (DYNAMICS) S.D.=  1.32730795517700E-02
DEBUG_STATS_RL:                Wvel (DYNAMICS)  min= -7.02018328499793E-05
DEBUG_STATS_RL:                Wvel (DYNAMICS)  max=  9.95841798318588E-05
DEBUG_STATS_RL:                Wvel (DYNAMICS) mean= -3.54546398724536E-08
DEBUG_STATS_RL:                Wvel (DYNAMICS) S.D.=  9.02666026520526E-06
DEBUG_STATS_RL:               Theta (DYNAMICS)  min= -1.92435867818314E+00
DEBUG_STATS_RL:               Theta (DYNAMICS)  max=  3.13108983905085E+01
DEBUG_STATS_RL:               Theta (DYNAMICS) mean=  3.23915717176836E+00
DEBUG_STATS_RL:               Theta (DYNAMICS) S.D.=  5.88906302806710E+00
DEBUG_STATS_RL:                Salt (DYNAMICS)  min=  2.00000000000000E-02
DEBUG_STATS_RL:                Salt (DYNAMICS)  max=  3.74877739431086E+01
DEBUG_STATS_RL:                Salt (DYNAMICS) mean=  1.88646983247593E+01
DEBUG_STATS_RL:                Salt (DYNAMICS) S.D.=  1.73002664817316E+01
DEBUG_STATS_RL:                  Gu (DYNAMICS)  min= -1.39901486682166E-01
DEBUG_STATS_RL:                  Gu (DYNAMICS)  max=  1.35714658480073E-01
DEBUG_STATS_RL:                  Gu (DYNAMICS) mean=  5.67517633347702E-03
DEBUG_STATS_RL:                  Gu (DYNAMICS) S.D.=  2.34487693334548E-02
DEBUG_STATS_RL:                  Gv (DYNAMICS)  min= -9.47487474034404E-02
DEBUG_STATS_RL:                  Gv (DYNAMICS)  max=  1.31705030378127E-01
DEBUG_STATS_RL:                  Gv (DYNAMICS) mean=  3.49884336985908E-03
DEBUG_STATS_RL:                  Gv (DYNAMICS) S.D.=  1.48335323943508E-02
DEBUG_STATS_RL:               GuNm1 (DYNAMICS)  min= -9.51342935168522E-06
DEBUG_STATS_RL:               GuNm1 (DYNAMICS)  max=  1.03598368114221E-05
DEBUG_STATS_RL:               GuNm1 (DYNAMICS) mean=  1.90821211369578E-08
DEBUG_STATS_RL:               GuNm1 (DYNAMICS) S.D.=  1.23501345886272E-06
DEBUG_STATS_RL:               GvNm1 (DYNAMICS)  min= -9.34664840314856E-06
DEBUG_STATS_RL:               GvNm1 (DYNAMICS)  max=  1.49184639679790E-05
DEBUG_STATS_RL:               GvNm1 (DYNAMICS) mean=  7.45457447138237E-07
DEBUG_STATS_RL:               GvNm1 (DYNAMICS) S.D.=  2.60923752005549E-06
DEBUG_STATS_RL:               GtNm1 (DYNAMICS)  min= -1.80929647293103E-06
DEBUG_STATS_RL:               GtNm1 (DYNAMICS)  max=  1.98479514936665E-06
DEBUG_STATS_RL:               GtNm1 (DYNAMICS) mean= -2.67033486445314E-09
DEBUG_STATS_RL:               GtNm1 (DYNAMICS) S.D.=  1.30938956890192E-07
DEBUG_STATS_RL:               GsNm1 (DYNAMICS)  min= -3.42368852984267E-07
DEBUG_STATS_RL:               GsNm1 (DYNAMICS)  max=  2.81162548014491E-07
DEBUG_STATS_RL:               GsNm1 (DYNAMICS) mean= -2.01954080517699E-10
DEBUG_STATS_RL:               GsNm1 (DYNAMICS) S.D.=  1.27559124134837E-08
DEBUG_STATS_RL:    cg2d_b (SOLVE_FOR_PRESSURE)  min= -2.78990612073452E+04
DEBUG_STATS_RL:    cg2d_b (SOLVE_FOR_PRESSURE)  max=  3.31053786008345E+04
DEBUG_STATS_RL:    cg2d_b (SOLVE_FOR_PRESSURE) mean=  5.62074809716456E+00
DEBUG_STATS_RL:    cg2d_b (SOLVE_FOR_PRESSURE) S.D.=  4.07750746933023E+03
 cg2d: Sum(rhs),rhsMax =   3.93048875889036E-01  2.17444990369467E+00
(PID.TID 0000.0001)  cg2d: iter=     1 ; resid.=  8.09793116891011E-02
(PID.TID 0000.0001)  cg2d: iter=     2 ; resid.=  5.59851812741235E-02
(PID.TID 0000.0001)  cg2d: iter=     3 ; resid.=  4.74137234828132E-02
(PID.TID 0000.0001)  cg2d: iter=     4 ; resid.=  3.85893831881306E-02
(PID.TID 0000.0001)  cg2d: iter=     5 ; resid.=  2.74733653750322E-02
(PID.TID 0000.0001)  cg2d: iter=     6 ; resid.=  2.21823603428411E-02
(PID.TID 0000.0001)  cg2d: iter=     7 ; resid.=  1.79036807078642E-02
(PID.TID 0000.0001)  cg2d: iter=     8 ; resid.=  1.53811238781529E-02
(PID.TID 0000.0001)  cg2d: iter=     9 ; resid.=  1.30941341421213E-02
(PID.TID 0000.0001)  cg2d: iter=    10 ; resid.=  1.13084145628064E-02
(PID.TID 0000.0001)  cg2d: iter=    11 ; resid.=  1.05153510196887E-02
(PID.TID 0000.0001)  cg2d: iter=    12 ; resid.=  9.37034782674414E-03
(PID.TID 0000.0001)  cg2d: iter=    13 ; resid.=  7.98631234213861E-03
(PID.TID 0000.0001)  cg2d: iter=    14 ; resid.=  7.09189486377942E-03
(PID.TID 0000.0001)  cg2d: iter=    15 ; resid.=  6.17409602642831E-03
(PID.TID 0000.0001)  cg2d: iter=    16 ; resid.=  5.12894056693679E-03
(PID.TID 0000.0001)  cg2d: iter=    17 ; resid.=  4.39188927157387E-03
(PID.TID 0000.0001)  cg2d: iter=    18 ; resid.=  3.62764979680600E-03
(PID.TID 0000.0001)  cg2d: iter=    19 ; resid.=  3.13126578768970E-03
(PID.TID 0000.0001)  cg2d: iter=    20 ; resid.=  2.45907576239351E-03
(PID.TID 0000.0001)  cg2d: iter=    21 ; resid.=  2.10193993441438E-03
(PID.TID 0000.0001)  cg2d: iter=    22 ; resid.=  1.76509523454421E-03
(PID.TID 0000.0001)  cg2d: iter=    23 ; resid.=  1.47026626290401E-03
(PID.TID 0000.0001)  cg2d: iter=    24 ; resid.=  1.18442325831238E-03
(PID.TID 0000.0001)  cg2d: iter=    25 ; resid.=  9.00669698941293E-04
(PID.TID 0000.0001)  cg2d: iter=    26 ; resid.=  7.50661593774482E-04
(PID.TID 0000.0001)  cg2d: iter=    27 ; resid.=  6.62571161999991E-04
(PID.TID 0000.0001)  cg2d: iter=    28 ; resid.=  5.73813741054548E-04
(PID.TID 0000.0001)  cg2d: iter=    29 ; resid.=  4.75385990951690E-04
(PID.TID 0000.0001)  cg2d: iter=    30 ; resid.=  3.93934750696814E-04
(PID.TID 0000.0001)  cg2d: iter=    31 ; resid.=  3.52236813305649E-04
(PID.TID 0000.0001)  cg2d: iter=    32 ; resid.=  2.84711241860233E-04
(PID.TID 0000.0001)  cg2d: iter=    33 ; resid.=  2.24781027071576E-04
(PID.TID 0000.0001)  cg2d: iter=    34 ; resid.=  1.87737085279476E-04
(PID.TID 0000.0001)  cg2d: iter=    35 ; resid.=  1.49046006937201E-04
(PID.TID 0000.0001)  cg2d: iter=    36 ; resid.=  1.27208128750197E-04
(PID.TID 0000.0001)  cg2d: iter=    37 ; resid.=  1.02302019980289E-04
(PID.TID 0000.0001)  cg2d: iter=    38 ; resid.=  7.97225953495244E-05
(PID.TID 0000.0001)  cg2d: iter=    39 ; resid.=  6.10354601341282E-05
(PID.TID 0000.0001)  cg2d: iter=    40 ; resid.=  4.69679804629145E-05
(PID.TID 0000.0001)  cg2d: iter=    41 ; resid.=  3.58105784944656E-05
(PID.TID 0000.0001)  cg2d: iter=    42 ; resid.=  3.10930154373634E-05
(PID.TID 0000.0001)  cg2d: iter=    43 ; resid.=  2.78479891146856E-05
(PID.TID 0000.0001)  cg2d: iter=    44 ; resid.=  2.34348951099681E-05
(PID.TID 0000.0001)  cg2d: iter=    45 ; resid.=  1.88458297178976E-05
(PID.TID 0000.0001)  cg2d: iter=    46 ; resid.=  1.53062233843588E-05
(PID.TID 0000.0001)  cg2d: iter=    47 ; resid.=  1.40568007027008E-05
(PID.TID 0000.0001)  cg2d: iter=    48 ; resid.=  1.26594799840099E-05
(PID.TID 0000.0001)  cg2d: iter=    49 ; resid.=  1.07242519672004E-05
(PID.TID 0000.0001)  cg2d: iter=    50 ; resid.=  8.21081964050372E-06
(PID.TID 0000.0001)  cg2d: iter=    51 ; resid.=  6.41605913728802E-06
(PID.TID 0000.0001)  cg2d: iter=    52 ; resid.=  5.19252710868221E-06
(PID.TID 0000.0001)  cg2d: iter=    53 ; resid.=  4.32165711378253E-06
(PID.TID 0000.0001)  cg2d: iter=    54 ; resid.=  3.68551158890271E-06
(PID.TID 0000.0001)  cg2d: iter=    55 ; resid.=  3.35261573102128E-06
(PID.TID 0000.0001)  cg2d: iter=    56 ; resid.=  2.89723296512064E-06
(PID.TID 0000.0001)  cg2d: iter=    57 ; resid.=  2.53384791074094E-06
(PID.TID 0000.0001)  cg2d: iter=    58 ; resid.=  2.02560292914822E-06
(PID.TID 0000.0001)  cg2d: iter=    59 ; resid.=  1.54699475132241E-06
(PID.TID 0000.0001)  cg2d: iter=    60 ; resid.=  1.25022704385287E-06
(PID.TID 0000.0001)  cg2d: iter=    61 ; resid.=  9.12259497598878E-07
(PID.TID 0000.0001)  cg2d: iter=    62 ; resid.=  6.34769693840346E-07
(PID.TID 0000.0001)  cg2d: iter=    63 ; resid.=  4.86340557310367E-07
(PID.TID 0000.0001)  cg2d: iter=    64 ; resid.=  4.21724910573698E-07
(PID.TID 0000.0001)  cg2d: iter=    65 ; resid.=  3.53870836823320E-07
(PID.TID 0000.0001)  cg2d: iter=    66 ; resid.=  2.90788626911903E-07
(PID.TID 0000.0001)  cg2d: iter=    67 ; resid.=  2.62556561683580E-07
(PID.TID 0000.0001)  cg2d: iter=    68 ; resid.=  2.08864974803417E-07
(PID.TID 0000.0001)  cg2d: iter=    69 ; resid.=  1.70875020078265E-07
(PID.TID 0000.0001)  cg2d: iter=    70 ; resid.=  1.30590267752878E-07
(PID.TID 0000.0001)  cg2d: iter=    71 ; resid.=  1.12442732665227E-07
(PID.TID 0000.0001)  cg2d: iter=    72 ; resid.=  9.29455264552396E-08
(PID.TID 0000.0001)  cg2d: iter=    73 ; resid.=  8.39045093082971E-08
(PID.TID 0000.0001)  cg2d: iter=    74 ; resid.=  6.33412597188314E-08
(PID.TID 0000.0001)  cg2d: iter=    75 ; resid.=  4.70329803953869E-08
(PID.TID 0000.0001)  cg2d: iter=    76 ; resid.=  3.58205871840852E-08
(PID.TID 0000.0001)  cg2d: iter=    77 ; resid.=  3.06112228376269E-08
(PID.TID 0000.0001)  cg2d: iter=    78 ; resid.=  2.52222673722247E-08
(PID.TID 0000.0001)  cg2d: iter=    79 ; resid.=  2.19813636842007E-08
(PID.TID 0000.0001)  cg2d: iter=    80 ; resid.=  1.93404270977977E-08
(PID.TID 0000.0001)  cg2d: iter=    81 ; resid.=  1.68477669357720E-08
(PID.TID 0000.0001)  cg2d: iter=    82 ; resid.=  1.51296766323329E-08
(PID.TID 0000.0001)  cg2d: iter=    83 ; resid.=  1.28243185769484E-08
(PID.TID 0000.0001)  cg2d: iter=    84 ; resid.=  1.04563075277529E-08
(PID.TID 0000.0001)  cg2d: iter=    85 ; resid.=  7.61622270500695E-09
(PID.TID 0000.0001)  cg2d: iter=    86 ; resid.=  6.12496812049925E-09
(PID.TID 0000.0001)  cg2d: iter=    87 ; resid.=  4.96580273502252E-09
(PID.TID 0000.0001)  cg2d: iter=    88 ; resid.=  3.94694940238721E-09
(PID.TID 0000.0001)  cg2d: iter=    89 ; resid.=  3.18439955382075E-09
(PID.TID 0000.0001)  cg2d: iter=    90 ; resid.=  2.70908971066266E-09
(PID.TID 0000.0001)  cg2d: iter=    91 ; resid.=  2.15628819712385E-09
(PID.TID 0000.0001)  cg2d: iter=    92 ; resid.=  1.66732415029269E-09
(PID.TID 0000.0001)  cg2d: iter=    93 ; resid.=  1.32165418197448E-09
(PID.TID 0000.0001)  cg2d: iter=    94 ; resid.=  1.03568837295143E-09
(PID.TID 0000.0001)  cg2d: iter=    95 ; resid.=  8.22715951717760E-10
(PID.TID 0000.0001)  cg2d: iter=    96 ; resid.=  6.10800916546740E-10
(PID.TID 0000.0001)  cg2d: iter=    97 ; resid.=  4.72116421609676E-10
(PID.TID 0000.0001)  cg2d: iter=    98 ; resid.=  3.78754054355422E-10
(PID.TID 0000.0001)  cg2d: iter=    99 ; resid.=  2.78799650511336E-10
(PID.TID 0000.0001)  cg2d: iter=   100 ; resid.=  2.26722996742296E-10
(PID.TID 0000.0001)  cg2d: iter=   101 ; resid.=  1.67608006974330E-10
(PID.TID 0000.0001)  cg2d: iter=   102 ; resid.=  1.30374242176556E-10
(PID.TID 0000.0001)  cg2d: iter=   103 ; resid.=  1.16076666717203E-10
(PID.TID 0000.0001)  cg2d: iter=   104 ; resid.=  9.90993439799235E-11
(PID.TID 0000.0001)  cg2d: iter=   105 ; resid.=  8.45911902390671E-11
(PID.TID 0000.0001)  cg2d: iter=   106 ; resid.=  6.89020881006506E-11
(PID.TID 0000.0001)  cg2d: iter=   107 ; resid.=  5.92538756154913E-11
(PID.TID 0000.0001)  cg2d: iter=   108 ; resid.=  4.64541352042201E-11
(PID.TID 0000.0001)  cg2d: iter=   109 ; resid.=  3.41675491593645E-11
(PID.TID 0000.0001)  cg2d: iter=   110 ; resid.=  2.73363495796117E-11
(PID.TID 0000.0001)  cg2d: iter=   111 ; resid.=  2.40737794731523E-11
(PID.TID 0000.0001)  cg2d: iter=   112 ; resid.=  2.09968611699219E-11
(PID.TID 0000.0001)  cg2d: iter=   113 ; resid.=  1.51395883826974E-11
(PID.TID 0000.0001)  cg2d: iter=   114 ; resid.=  1.17903834937647E-11
(PID.TID 0000.0001)  cg2d: iter=   115 ; resid.=  9.43934607859250E-12
(PID.TID 0000.0001)  cg2d: iter=   116 ; resid.=  7.12350859963424E-12
(PID.TID 0000.0001)  cg2d: iter=   117 ; resid.=  5.14954424612173E-12
(PID.TID 0000.0001)  cg2d: iter=   118 ; resid.=  3.99713596224090E-12
(PID.TID 0000.0001)  cg2d: iter=   119 ; resid.=  3.09946817364591E-12
(PID.TID 0000.0001)  cg2d: iter=   120 ; resid.=  2.32919590940536E-12
(PID.TID 0000.0001)  cg2d: iter=   121 ; resid.=  1.68901938409640E-12
(PID.TID 0000.0001)  cg2d: iter=   122 ; resid.=  1.30126914686301E-12
(PID.TID 0000.0001)  cg2d: iter=   123 ; resid.=  1.02605564426083E-12
(PID.TID 0000.0001)  cg2d: iter=   124 ; resid.=  8.12765371037163E-13
(PID.TID 0000.0001)  cg2d: iter=   125 ; resid.=  6.54359411767965E-13
(PID.TID 0000.0001)  cg2d: iter=   126 ; resid.=  4.97721903501339E-13
(PID.TID 0000.0001)  cg2d: iter=   127 ; resid.=  3.35102329003670E-13
(PID.TID 0000.0001)  cg2d: iter=   128 ; resid.=  2.20587798093998E-13
(PID.TID 0000.0001)  cg2d: iter=   129 ; resid.=  1.47690689043139E-13
(PID.TID 0000.0001)  cg2d: iter=   130 ; resid.=  1.09512938208656E-13
(PID.TID 0000.0001)  cg2d: iter=   131 ; resid.=  8.52558099623495E-14
DEBUG_STATS_RL:    cg2d_x (SOLVE_FOR_PRESSURE)  min= -1.81325067134209E+01
DEBUG_STATS_RL:    cg2d_x (SOLVE_FOR_PRESSURE)  max=  7.36233385109468E+00
DEBUG_STATS_RL:    cg2d_x (SOLVE_FOR_PRESSURE) mean= -1.76609902023771E+00
DEBUG_STATS_RL:    cg2d_x (SOLVE_FOR_PRESSURE) S.D.=  6.88807901361541E+00
(PID.TID 0000.0001)      cg2d_init_res =   1.93304129346487E-01
(PID.TID 0000.0001)      cg2d_iters(min,last) =      -1     131
(PID.TID 0000.0001)      cg2d_last_res =   8.52558099623495E-14
(PID.TID 0000.0001) // =======================================================
(PID.TID 0000.0001) // Begin MONITOR dynamic field statistics
(PID.TID 0000.0001) // =======================================================
(PID.TID 0000.0001) %MON time_tsnumber                =                    98
(PID.TID 0000.0001) %MON time_secondsf                =   8.4672000000000E+06
(PID.TID 0000.0001) %MON dynstat_eta_max              =   7.5049274730832E-01
(PID.TID 0000.0001) %MON dynstat_eta_min              =  -1.8483696955575E+00
(PID.TID 0000.0001) %MON dynstat_eta_mean             =  -5.8645536896364E-03
(PID.TID 0000.0001) %MON dynstat_eta_sd               =   5.9598652516092E-01
(PID.TID 0000.0001) %MON dynstat_eta_del2             =   2.5880948873682E-03
(PID.TID 0000.0001) %MON dynstat_uvel_max             =   1.3224428255677E-01
(PID.TID 0000.0001) %MON dynstat_uvel_min             =  -1.4020953687623E-01
(PID.TID 0000.0001) %MON dynstat_uvel_mean            =   2.2989807726554E-03
(PID.TID 0000.0001) %MON dynstat_uvel_sd              =   1.5440871973802E-02
(PID.TID 0000.0001) %MON dynstat_uvel_del2            =   1.2000371168687E-04
(PID.TID 0000.0001) %MON dynstat_vvel_max             =   1.3109463508048E-01
(PID.TID 0000.0001) %MON dynstat_vvel_min             =  -9.6433703160559E-02
(PID.TID 0000.0001) %MON dynstat_vvel_mean            =   5.9350951040300E-05
(PID.TID 0000.0001) %MON dynstat_vvel_sd              =   8.4219145159373E-03
(PID.TID 0000.0001) %MON dynstat_vvel_del2            =   7.9862680001128E-05
(PID.TID 0000.0001) %MON dynstat_wvel_max             =   9.6415998851623E-05
(PID.TID 0000.0001) %MON dynstat_wvel_min             =  -6.9130248755006E-05
(PID.TID 0000.0001) %MON dynstat_wvel_mean            =  -1.3057990197448E-22
(PID.TID 0000.0001) %MON dynstat_wvel_sd              =   1.0361054014670E-05
(PID.TID 0000.0001) %MON dynstat_wvel_del2            =   1.0171794845433E-07
(PID.TID 0000.0001) %MON dynstat_theta_max            =   3.1310898390508E+01
(PID.TID 0000.0001) %MON dynstat_theta_min            =  -1.9243586781831E+00
(PID.TID 0000.0001) %MON dynstat_theta_mean           =   3.6442369094096E+00
(PID.TID 0000.0001) %MON dynstat_theta_sd             =   4.4291718091789E+00
(PID.TID 0000.0001) %MON dynstat_theta_del2           =   4.8228012492795E-03
(PID.TID 0000.0001) %MON dynstat_salt_max             =   3.7487773943109E+01
(PID.TID 0000.0001) %MON dynstat_salt_min             =   2.9992092321771E+01
(PID.TID 0000.0001) %MON dynstat_salt_mean            =   3.4737984864332E+01
(PID.TID 0000.0001) %MON dynstat_salt_sd              =   2.9666494178065E-01
(PID.TID 0000.0001) %MON dynstat_salt_del2            =   1.0005572099346E-03
(PID.TID 0000.0001) %MON dynstat_sst_max              =   3.1310898390508E+01
(PID.TID 0000.0001) %MON dynstat_sst_min              =  -1.9243586781831E+00
(PID.TID 0000.0001) %MON dynstat_sst_mean             =   1.9043782986858E+01
(PID.TID 0000.0001) %MON dynstat_sst_sd               =   9.3137165647811E+00
(PID.TID 0000.0001) %MON dynstat_sst_del2             =   2.9467233794502E-02
(PID.TID 0000.0001) %MON dynstat_sss_max              =   3.7487773943109E+01
(PID.TID 0000.0001) %MON dynstat_sss_min              =   2.9992092321771E+01
(PID.TID 0000.0001) %MON dynstat_sss_mean             =   3.4856019725686E+01
(PID.TID 0000.0001) %MON dynstat_sss_sd               =   9.9432588841476E-01
(PID.TID 0000.0001) %MON dynstat_sss_del2             =   8.3714390772578E-03
(PID.TID 0000.0001) %MON forcing_qnet_max             =   1.7099252522786E+02
(PID.TID 0000.0001) %MON forcing_qnet_min             =  -1.5443967183431E+02
(PID.TID 0000.0001) %MON forcing_qnet_mean            =   1.4697354471873E+00
(PID.TID 0000.0001) %MON forcing_qnet_sd              =   4.1898539270687E+01
(PID.TID 0000.0001) %MON forcing_qnet_del2            =   7.9096758072099E-01
(PID.TID 0000.0001) %MON forcing_qsw_max              =   0.0000000000000E+00
(PID.TID 0000.0001) %MON forcing_qsw_min              =   0.0000000000000E+00
(PID.TID 0000.0001) %MON forcing_qsw_mean             =   0.0000000000000E+00
(PID.TID 0000.0001) %MON forcing_qsw_sd               =   0.0000000000000E+00
(PID.TID 0000.0001) %MON forcing_qsw_del2             =   0.0000000000000E+00
(PID.TID 0000.0001) %MON forcing_empmr_max            =   6.6993059514668E-05
(PID.TID 0000.0001) %MON forcing_empmr_min            =  -8.3591031341257E-05
(PID.TID 0000.0001) %MON forcing_empmr_mean           =   5.6913027472259E-08
(PID.TID 0000.0001) %MON forcing_empmr_sd             =   2.5506549223614E-05
(PID.TID 0000.0001) %MON forcing_empmr_del2           =   3.6847966604449E-07
(PID.TID 0000.0001) %MON forcing_fu_max               =   3.4444528222084E-01
(PID.TID 0000.0001) %MON forcing_fu_min               =  -4.0908400416374E-01
(PID.TID 0000.0001) %MON forcing_fu_mean              =   1.7658503167866E-02
(PID.TID 0000.0001) %MON forcing_fu_sd                =   1.0136293778860E-01
(PID.TID 0000.0001) %MON forcing_fu_del2              =   7.9668426587324E-04
(PID.TID 0000.0001) %MON forcing_fv_max               =   1.8118831912676E-01
(PID.TID 0000.0001) %MON forcing_fv_min               =  -1.4509931405385E-01
(PID.TID 0000.0001) %MON forcing_fv_mean              =  -6.7270886478379E-03
(PID.TID 0000.0001) %MON forcing_fv_sd                =   3.8931335911595E-02
(PID.TID 0000.0001) %MON forcing_fv_del2              =   4.2395820174704E-04
(PID.TID 0000.0001) %MON trAdv_CFL_u_max              =   4.5888335296270E-02
(PID.TID 0000.0001) %MON trAdv_CFL_v_max              =   2.5592661250311E-02
(PID.TID 0000.0001) %MON trAdv_CFL_w_max              =   3.1863529220079E-02
(PID.TID 0000.0001) %MON advcfl_uvel_max              =   4.5601931983594E-02
(PID.TID 0000.0001) %MON advcfl_vvel_max              =   2.5469585090966E-02
(PID.TID 0000.0001) %MON advcfl_wvel_max              =   2.9361368256662E-02
(PID.TID 0000.0001) %MON advcfl_W_hf_max              =   3.5653090025947E-02
(PID.TID 0000.0001) %MON pe_b_mean                    =   4.5456514412306E-04
(PID.TID 0000.0001) %MON ke_max                       =   1.1228394377166E-02
(PID.TID 0000.0001) %MON ke_mean                      =   1.4256381005654E-04
(PID.TID 0000.0001) %MON ke_vol                       =   1.3226782436723E+18
(PID.TID 0000.0001) %MON vort_r_min                   =  -3.8375505256528E-07
(PID.TID 0000.0001) %MON vort_r_max                   =   4.6649749919479E-07
(PID.TID 0000.0001) %MON vort_a_mean                  =  -2.5274807198534E-05
(PID.TID 0000.0001) %MON vort_a_sd                    =   7.3604649734977E-05
(PID.TID 0000.0001) %MON vort_p_mean                  =  -3.1845655548842E-05
(PID.TID 0000.0001) %MON vort_p_sd                    =   1.3162468787155E-04
(PID.TID 0000.0001) %MON surfExpan_theta_mean         =   1.1262416264491E-07
(PID.TID 0000.0001) %MON surfExpan_salt_mean          =   1.4215430796151E-08
(PID.TID 0000.0001) // =======================================================
(PID.TID 0000.0001) // End MONITOR dynamic field statistics
(PID.TID 0000.0001) // =======================================================
 EXTERNAL_FIELDS_LOAD,        98 : iP,iLd,i0,i1=    3    4    3    4 ; Wght=  0.2333333333  0.7666666667
 EXTERNAL_FIELDS_LOAD: (fu0,1),fu,fv= -2.7199E-02 -3.7252E-02 -3.4906E-02 -2.7134E-02
 EXTERNAL_FIELDS_LOAD: SST,SSS,Q,E-P= -1.5820E-02  3.4571E+01  1.3008E+02  8.0751E-06
DEBUG_STATS_RL:          Uvel (THERMODYNAMICS)  min= -1.40209536876226E-01
DEBUG_STATS_RL:          Uvel (THERMODYNAMICS)  max=  1.32244282556769E-01
DEBUG_STATS_RL:          Uvel (THERMODYNAMICS) mean=  5.77132089287567E-03
DEBUG_STATS_RL:          Uvel (THERMODYNAMICS) S.D.=  2.30708120072312E-02
DEBUG_STATS_RL:          Vvel (THERMODYNAMICS)  min= -9.64337031605586E-02
DEBUG_STATS_RL:          Vvel (THERMODYNAMICS)  max=  1.31094635080477E-01
DEBUG_STATS_RL:          Vvel (THERMODYNAMICS) mean=  8.38082197533646E-04
DEBUG_STATS_RL:          Vvel (THERMODYNAMICS) S.D.=  1.31845849225444E-02
DEBUG_STATS_RL:          Wvel (THERMODYNAMICS)  min= -6.91302487550061E-05
DEBUG_STATS_RL:          Wvel (THERMODYNAMICS)  max=  9.64159988516226E-05
DEBUG_STATS_RL:          Wvel (THERMODYNAMICS) mean= -3.69357797806145E-08
DEBUG_STATS_RL:          Wvel (THERMODYNAMICS) S.D.=  8.93822170733648E-06
DEBUG_STATS_RL:         Theta (THERMODYNAMICS)  min= -1.92352447841545E+00
DEBUG_STATS_RL:         Theta (THERMODYNAMICS)  max=  3.13201802953561E+01
DEBUG_STATS_RL:         Theta (THERMODYNAMICS) mean=  3.23895856410758E+00
DEBUG_STATS_RL:         Theta (THERMODYNAMICS) S.D.=  5.88895461740761E+00
DEBUG_STATS_RL:          Salt (THERMODYNAMICS)  min=  2.00000000000000E-02
DEBUG_STATS_RL:          Salt (THERMODYNAMICS)  max=  3.74884225762156E+01
DEBUG_STATS_RL:          Salt (THERMODYNAMICS) mean=  1.88646932352495E+01
DEBUG_STATS_RL:          Salt (THERMODYNAMICS) S.D.=  1.73002626145920E+01
DEBUG_STATS_RL:         GtNm1 (THERMODYNAMICS)  min= -1.68660412693482E-06
DEBUG_STATS_RL:         GtNm1 (THERMODYNAMICS)  max=  1.86481924851696E-06
DEBUG_STATS_RL:         GtNm1 (THERMODYNAMICS) mean= -2.85024888152467E-09
DEBUG_STATS_RL:         GtNm1 (THERMODYNAMICS) S.D.=  1.30088684224586E-07
DEBUG_STATS_RL:         GsNm1 (THERMODYNAMICS)  min= -3.31035082258899E-07
DEBUG_STATS_RL:         GsNm1 (THERMODYNAMICS)  max=  2.57498090116450E-07
DEBUG_STATS_RL:         GsNm1 (THERMODYNAMICS) mean= -1.84582983711356E-10
DEBUG_STATS_RL:         GsNm1 (THERMODYNAMICS) S.D.=  1.24472540603801E-08
DEBUG_STATS_RL:                EtaN (DYNAMICS)  min= -1.84836969555747E+00
DEBUG_STATS_RL:                EtaN (DYNAMICS)  max=  7.50492747308317E-01
DEBUG_STATS_RL:                EtaN (DYNAMICS) mean= -1.80030481165925E-01
DEBUG_STATS_RL:                EtaN (DYNAMICS) S.D.=  7.02148727177928E-01
DEBUG_STATS_RL:                Uvel (DYNAMICS)  min= -1.40209536876226E-01
DEBUG_STATS_RL:                Uvel (DYNAMICS)  max=  1.32244282556769E-01
DEBUG_STATS_RL:                Uvel (DYNAMICS) mean=  5.77132089287567E-03
DEBUG_STATS_RL:                Uvel (DYNAMICS) S.D.=  2.30708120072312E-02
DEBUG_STATS_RL:                Vvel (DYNAMICS)  min= -9.64337031605586E-02
DEBUG_STATS_RL:                Vvel (DYNAMICS)  max=  1.31094635080477E-01
DEBUG_STATS_RL:                Vvel (DYNAMICS) mean=  8.38082197533646E-04
DEBUG_STATS_RL:                Vvel (DYNAMICS) S.D.=  1.31845849225444E-02
DEBUG_STATS_RL:                Wvel (DYNAMICS)  min= -6.91302487550061E-05
DEBUG_STATS_RL:                Wvel (DYNAMICS)  max=  9.64159988516226E-05
DEBUG_STATS_RL:                Wvel (DYNAMICS) mean= -3.69357797806145E-08
DEBUG_STATS_RL:                Wvel (DYNAMICS) S.D.=  8.93822170733648E-06
DEBUG_STATS_RL:               Theta (DYNAMICS)  min= -1.92352447841545E+00
DEBUG_STATS_RL:               Theta (DYNAMICS)  max=  3.13201802953561E+01
DEBUG_STATS_RL:               Theta (DYNAMICS) mean=  3.23895856410758E+00
DEBUG_STATS_RL:               Theta (DYNAMICS) S.D.=  5.88895461740761E+00
DEBUG_STATS_RL:                Salt (DYNAMICS)  min=  2.00000000000000E-02
DEBUG_STATS_RL:                Salt (DYNAMICS)  max=  3.74884225762156E+01
DEBUG_STATS_RL:                Salt (DYNAMICS) mean=  1.88646932352495E+01
DEBUG_STATS_RL:                Salt (DYNAMICS) S.D.=  1.73002626145920E+01
DEBUG_STATS_RL:                  Gu (DYNAMICS)  min= -1.39274039410854E-01
DEBUG_STATS_RL:                  Gu (DYNAMICS)  max=  1.36979268946114E-01
DEBUG_STATS_RL:                  Gu (DYNAMICS) mean=  5.73777147830484E-03
DEBUG_STATS_RL:                  Gu (DYNAMICS) S.D.=  2.34504767292102E-02
DEBUG_STATS_RL:                  Gv (DYNAMICS)  min= -9.39929736335340E-02
DEBUG_STATS_RL:                  Gv (DYNAMICS)  max=  1.30363802857069E-01
DEBUG_STATS_RL:                  Gv (DYNAMICS) mean=  3.51264540983259E-03
DEBUG_STATS_RL:                  Gv (DYNAMICS) S.D.=  1.47603097717586E-02
DEBUG_STATS_RL:               GuNm1 (DYNAMICS)  min= -9.45446900848080E-06
DEBUG_STATS_RL:               GuNm1 (DYNAMICS)  max=  1.03654584723761E-05
DEBUG_STATS_RL:               GuNm1 (DYNAMICS) mean=  1.93408759382083E-08
DEBUG_STATS_RL:               GuNm1 (DYNAMICS) S.D.=  1.23573359551934E-06
DEBUG_STATS_RL:               GvNm1 (DYNAMICS)  min= -9.36363752213189E-06
DEBUG_STATS_RL:               GvNm1 (DYNAMICS)  max=  1.48985529245377E-05
DEBUG_STATS_RL:               GvNm1 (DYNAMICS) mean=  7.46146782884622E-07
DEBUG_STATS_RL:               GvNm1 (DYNAMICS) S.D.=  2.60916807515304E-06
DEBUG_STATS_RL:               GtNm1 (DYNAMICS)  min= -1.68660412693482E-06
DEBUG_STATS_RL:               GtNm1 (DYNAMICS)  max=  1.86481924851696E-06
DEBUG_STATS_RL:               GtNm1 (DYNAMICS) mean= -2.85024888152467E-09
DEBUG_STATS_RL:               GtNm1 (DYNAMICS) S.D.=  1.30088684224586E-07
DEBUG_STATS_RL:               GsNm1 (DYNAMICS)  min= -3.31035082258899E-07
DEBUG_STATS_RL:               GsNm1 (DYNAMICS)  max=  2.57498090116450E-07
DEBUG_STATS_RL:               GsNm1 (DYNAMICS) mean= -1.84582983711356E-10
DEBUG_STATS_RL:               GsNm1 (DYNAMICS) S.D.=  1.24472540603801E-08
DEBUG_STATS_RL:    cg2d_b (SOLVE_FOR_PRESSURE)  min= -2.74172621073389E+04
DEBUG_STATS_RL:    cg2d_b (SOLVE_FOR_PRESSURE)  max=  3.31452913659230E+04
DEBUG_STATS_RL:    cg2d_b (SOLVE_FOR_PRESSURE) mean=  5.62350578041898E+00
DEBUG_STATS_RL:    cg2d_b (SOLVE_FOR_PRESSURE) S.D.=  4.07698673375632E+03
 cg2d: Sum(rhs),rhsMax =   3.92768183508965E-01  2.17707148096915E+00
(PID.TID 0000.0001)  cg2d: iter=     1 ; resid.=  8.02174430713148E-02
(PID.TID 0000.0001)  cg2d: iter=     2 ; resid.=  5.57283198568565E-02
(PID.TID 0000.0001)  cg2d: iter=     3 ; resid.=  4.74983789686897E-02
(PID.TID 0000.0001)  cg2d: iter=     4 ; resid.=  3.88748452493714E-02
(PID.TID 0000.0001)  cg2d: iter=     5 ; resid.=  2.77718614771318E-02
(PID.TID 0000.0001)  cg2d: iter=     6 ; resid.=  2.24523195977926E-02
(PID.TID 0000.0001)  cg2d: iter=     7 ; resid.=  1.86642945487320E-02
(PID.TID 0000.0001)  cg2d: iter=     8 ; resid.=  1.63035251124127E-02
(PID.TID 0000.0001)  cg2d: iter=     9 ; resid.=  1.39425769010211E-02
(PID.TID 0000.0001)  cg2d: iter=    10 ; resid.=  1.18221349324478E-02
(PID.TID 0000.0001)  cg2d: iter=    11 ; resid.=  1.08009757558450E-02
(PID.TID 0000.0001)  cg2d: iter=    12 ; resid.=  9.63070628964733E-03
(PID.TID 0000.0001)  cg2d: iter=    13 ; resid.=  8.14795792793193E-03
(PID.TID 0000.0001)  cg2d: iter=    14 ; resid.=  7.08597991630516E-03
(PID.TID 0000.0001)  cg2d: iter=    15 ; resid.=  6.07566173196235E-03
(PID.TID 0000.0001)  cg2d: iter=    16 ; resid.=  4.91544537449131E-03
(PID.TID 0000.0001)  cg2d: iter=    17 ; resid.=  4.15574623055162E-03
(PID.TID 0000.0001)  cg2d: iter=    18 ; resid.=  3.42063592316623E-03
(PID.TID 0000.0001)  cg2d: iter=    19 ; resid.=  2.90634890672682E-03
(PID.TID 0000.0001)  cg2d: iter=    20 ; resid.=  2.33537873426517E-03
(PID.TID 0000.0001)  cg2d: iter=    21 ; resid.=  2.00982223226411E-03
(PID.TID 0000.0001)  cg2d: iter=    22 ; resid.=  1.75139622121021E-03
(PID.TID 0000.0001)  cg2d: iter=    23 ; resid.=  1.52847669189951E-03
(PID.TID 0000.0001)  cg2d: iter=    24 ; resid.=  1.27528334556786E-03
(PID.TID 0000.0001)  cg2d: iter=    25 ; resid.=  9.94716346171428E-04
(PID.TID 0000.0001)  cg2d: iter=    26 ; resid.=  8.63312351568439E-04
(PID.TID 0000.0001)  cg2d: iter=    27 ; resid.=  7.88659531614572E-04
(PID.TID 0000.0001)  cg2d: iter=    28 ; resid.=  7.00679386684370E-04
(PID.TID 0000.0001)  cg2d: iter=    29 ; resid.=  5.80751191035841E-04
(PID.TID 0000.0001)  cg2d: iter=    30 ; resid.=  4.72618661856490E-04
(PID.TID 0000.0001)  cg2d: iter=    31 ; resid.=  4.02453869010212E-04
(PID.TID 0000.0001)  cg2d: iter=    32 ; resid.=  3.12878789122343E-04
(PID.TID 0000.0001)  cg2d: iter=    33 ; resid.=  2.35112062287967E-04
(PID.TID 0000.0001)  cg2d: iter=    34 ; resid.=  1.85872038867624E-04
(PID.TID 0000.0001)  cg2d: iter=    35 ; resid.=  1.44229528570802E-04
(PID.TID 0000.0001)  cg2d: iter=    36 ; resid.=  1.20223890780536E-04
(PID.TID 0000.0001)  cg2d: iter=    37 ; resid.=  9.38848624068376E-05
(PID.TID 0000.0001)  cg2d: iter=    38 ; resid.=  7.17599611227403E-05
(PID.TID 0000.0001)  cg2d: iter=    39 ; resid.=  5.36369109477384E-05
(PID.TID 0000.0001)  cg2d: iter=    40 ; resid.=  4.05359141405656E-05
(PID.TID 0000.0001)  cg2d: iter=    41 ; resid.=  2.94062668084781E-05
(PID.TID 0000.0001)  cg2d: iter=    42 ; resid.=  2.40277610098592E-05
(PID.TID 0000.0001)  cg2d: iter=    43 ; resid.=  2.06009534393381E-05
(PID.TID 0000.0001)  cg2d: iter=    44 ; resid.=  1.72899586203783E-05
(PID.TID 0000.0001)  cg2d: iter=    45 ; resid.=  1.37416786249671E-05
(PID.TID 0000.0001)  cg2d: iter=    46 ; resid.=  1.08804378719457E-05
(PID.TID 0000.0001)  cg2d: iter=    47 ; resid.=  9.62050844254913E-06
(PID.TID 0000.0001)  cg2d: iter=    48 ; resid.=  8.46956579724044E-06
(PID.TID 0000.0001)  cg2d: iter=    49 ; resid.=  7.28453724296485E-06
(PID.TID 0000.0001)  cg2d: iter=    50 ; resid.=  5.63668835346177E-06
(PID.TID 0000.0001)  cg2d: iter=    51 ; resid.=  4.34433155221072E-06
(PID.TID 0000.0001)  cg2d: iter=    52 ; resid.=  3.40677750911510E-06
(PID.TID 0000.0001)  cg2d: iter=    53 ; resid.=  2.64752100685243E-06
(PID.TID 0000.0001)  cg2d: iter=    54 ; resid.=  2.10050933970672E-06
(PID.TID 0000.0001)  cg2d: iter=    55 ; resid.=  1.85251866812187E-06
(PID.TID 0000.0001)  cg2d: iter=    56 ; resid.=  1.60427492175070E-06
(PID.TID 0000.0001)  cg2d: iter=    57 ; resid.=  1.51244599454488E-06
(PID.TID 0000.0001)  cg2d: iter=    58 ; resid.=  1.31876014167864E-06
(PID.TID 0000.0001)  cg2d: iter=    59 ; resid.=  1.09979290033387E-06
(PID.TID 0000.0001)  cg2d: iter=    60 ; resid.=  9.61926560553747E-07
(PID.TID 0000.0001)  cg2d: iter=    61 ; resid.=  7.57246583968966E-07
(PID.TID 0000.0001)  cg2d: iter=    62 ; resid.=  5.57569806939748E-07
(PID.TID 0000.0001)  cg2d: iter=    63 ; resid.=  4.37650943990911E-07
(PID.TID 0000.0001)  cg2d: iter=    64 ; resid.=  3.85795005434616E-07
(PID.TID 0000.0001)  cg2d: iter=    65 ; resid.=  3.22651856672504E-07
(PID.TID 0000.0001)  cg2d: iter=    66 ; resid.=  2.64171725337069E-07
(PID.TID 0000.0001)  cg2d: iter=    67 ; resid.=  2.33160531148227E-07
(PID.TID 0000.0001)  cg2d: iter=    68 ; resid.=  1.85405557490639E-07
(PID.TID 0000.0001)  cg2d: iter=    69 ; resid.=  1.49370906635782E-07
(PID.TID 0000.0001)  cg2d: iter=    70 ; resid.=  1.10248134073356E-07
(PID.TID 0000.0001)  cg2d: iter=    71 ; resid.=  8.97843600538435E-08
(PID.TID 0000.0001)  cg2d: iter=    72 ; resid.=  7.29066732621890E-08
(PID.TID 0000.0001)  cg2d: iter=    73 ; resid.=  6.65854514359021E-08
(PID.TID 0000.0001)  cg2d: iter=    74 ; resid.=  5.11773973990666E-08
(PID.TID 0000.0001)  cg2d: iter=    75 ; resid.=  3.81382697948336E-08
(PID.TID 0000.0001)  cg2d: iter=    76 ; resid.=  2.85228903897616E-08
(PID.TID 0000.0001)  cg2d: iter=    77 ; resid.=  2.37256125903755E-08
(PID.TID 0000.0001)  cg2d: iter=    78 ; resid.=  1.90089764868666E-08
(PID.TID 0000.0001)  cg2d: iter=    79 ; resid.=  1.58699741584393E-08
(PID.TID 0000.0001)  cg2d: iter=    80 ; resid.=  1.34676009969893E-08
(PID.TID 0000.0001)  cg2d: iter=    81 ; resid.=  1.15574408434814E-08
(PID.TID 0000.0001)  cg2d: iter=    82 ; resid.=  1.02335309409411E-08
(PID.TID 0000.0001)  cg2d: iter=    83 ; resid.=  8.61342583665627E-09
(PID.TID 0000.0001)  cg2d: iter=    84 ; resid.=  7.41758929821884E-09
(PID.TID 0000.0001)  cg2d: iter=    85 ; resid.=  5.60271137893334E-09
(PID.TID 0000.0001)  cg2d: iter=    86 ; resid.=  4.47645747110055E-09
(PID.TID 0000.0001)  cg2d: iter=    87 ; resid.=  3.61122629525954E-09
(PID.TID 0000.0001)  cg2d: iter=    88 ; resid.=  2.90321280238275E-09
(PID.TID 0000.0001)  cg2d: iter=    89 ; resid.=  2.39908862950456E-09
(PID.TID 0000.0001)  cg2d: iter=    90 ; resid.=  2.07107851233632E-09
(PID.TID 0000.0001)  cg2d: iter=    91 ; resid.=  1.70443304843932E-09
(PID.TID 0000.0001)  cg2d: iter=    92 ; resid.=  1.37978099736660E-09
(PID.TID 0000.0001)  cg2d: iter=    93 ; resid.=  1.13484102166895E-09
(PID.TID 0000.0001)  cg2d: iter=    94 ; resid.=  9.15203058323055E-10
(PID.TID 0000.0001)  cg2d: iter=    95 ; resid.=  7.44648494260222E-10
(PID.TID 0000.0001)  cg2d: iter=    96 ; resid.=  5.82368839680031E-10
(PID.TID 0000.0001)  cg2d: iter=    97 ; resid.=  4.81117193779588E-10
(PID.TID 0000.0001)  cg2d: iter=    98 ; resid.=  4.08905145371661E-10
(PID.TID 0000.0001)  cg2d: iter=    99 ; resid.=  3.19769635389741E-10
(PID.TID 0000.0001)  cg2d: iter=   100 ; resid.=  2.74519325892103E-10
(PID.TID 0000.0001)  cg2d: iter=   101 ; resid.=  2.16488474594358E-10
(PID.TID 0000.0001)  cg2d: iter=   102 ; resid.=  1.79129097058344E-10
(PID.TID 0000.0001)  cg2d: iter=   103 ; resid.=  1.62380457787159E-10
(PID.TID 0000.0001)  cg2d: iter=   104 ; resid.=  1.33468848135324E-10
(PID.TID 0000.0001)  cg2d: iter=   105 ; resid.=  1.12090433074701E-10
(PID.TID 0000.0001)  cg2d: iter=   106 ; resid.=  8.91123341412298E-11
(PID.TID 0000.0001)  cg2d: iter=   107 ; resid.=  7.47513685606959E-11
(PID.TID 0000.0001)  cg2d: iter=   108 ; resid.=  5.71207426072009E-11
(PID.TID 0000.0001)  cg2d: iter=   109 ; resid.=  4.07637355060226E-11
(PID.TID 0000.0001)  cg2d: iter=   110 ; resid.=  3.11469042523236E-11
(PID.TID 0000.0001)  cg2d: iter=   111 ; resid.=  2.62867012880679E-11
(PID.TID 0000.0001)  cg2d: iter=   112 ; resid.=  2.25584972405615E-11
(PID.TID 0000.0001)  cg2d: iter=   113 ; resid.=  1.58914414129091E-11
(PID.TID 0000.0001)  cg2d: iter=   114 ; resid.=  1.19165075811690E-11
(PID.TID 0000.0001)  cg2d: iter=   115 ; resid.=  9.11748472036117E-12
(PID.TID 0000.0001)  cg2d: iter=   116 ; resid.=  6.83963414331972E-12
(PID.TID 0000.0001)  cg2d: iter=   117 ; resid.=  4.94901390457245E-12
(PID.TID 0000.0001)  cg2d: iter=   118 ; resid.=  3.82897160778931E-12
(PID.TID 0000.0001)  cg2d: iter=   119 ; resid.=  2.95779012045367E-12
(PID.TID 0000.0001)  cg2d: iter=   120 ; resid.=  2.21424729173468E-12
(PID.TID 0000.0001)  cg2d: iter=   121 ; resid.=  1.63137942112040E-12
(PID.TID 0000.0001)  cg2d: iter=   122 ; resid.=  1.29689006610209E-12
(PID.TID 0000.0001)  cg2d: iter=   123 ; resid.=  1.04393303602829E-12
(PID.TID 0000.0001)  cg2d: iter=   124 ; resid.=  8.48109191463835E-13
(PID.TID 0000.0001)  cg2d: iter=   125 ; resid.=  6.75828007570506E-13
(PID.TID 0000.0001)  cg2d: iter=   126 ; resid.=  5.10337923348542E-13
(PID.TID 0000.0001)  cg2d: iter=   127 ; resid.=  3.31557544372759E-13
(PID.TID 0000.0001)  cg2d: iter=   128 ; resid.=  2.08604095447886E-13
(PID.TID 0000.0001)  cg2d: iter=   129 ; resid.=  1.34019273162876E-13
(PID.TID 0000.0001)  cg2d: iter=   130 ; resid.=  9.42984969139835E-14
DEBUG_STATS_RL:    cg2d_x (SOLVE_FOR_PRESSURE)  min= -1.82394166646894E+01
DEBUG_STATS_RL:    cg2d_x (SOLVE_FOR_PRESSURE)  max=  7.39646867432447E+00
DEBUG_STATS_RL:    cg2d_x (SOLVE_FOR_PRESSURE) mean= -1.76773433319178E+00
DEBUG_STATS_RL:    cg2d_x (SOLVE_FOR_PRESSURE) S.D.=  6.91651442408689E+00
(PID.TID 0000.0001)      cg2d_init_res =   1.90665094114159E-01
(PID.TID 0000.0001)      cg2d_iters(min,last) =      -1     130
(PID.TID 0000.0001)      cg2d_last_res =   9.42984969139835E-14
(PID.TID 0000.0001) // =======================================================
(PID.TID 0000.0001) // Begin MONITOR dynamic field statistics
(PID.TID 0000.0001) // =======================================================
(PID.TID 0000.0001) %MON time_tsnumber                =                    99
(PID.TID 0000.0001) %MON time_secondsf                =   8.5536000000000E+06
(PID.TID 0000.0001) %MON dynstat_eta_max              =   7.5397234192910E-01
(PID.TID 0000.0001) %MON dynstat_eta_min              =  -1.8592677537912E+00
(PID.TID 0000.0001) %MON dynstat_eta_mean             =  -5.8674309901706E-03
(PID.TID 0000.0001) %MON dynstat_eta_sd               =   5.9837237181507E-01
(PID.TID 0000.0001) %MON dynstat_eta_del2             =   2.5830553071812E-03
(PID.TID 0000.0001) %MON dynstat_uvel_max             =   1.3421377910852E-01
(PID.TID 0000.0001) %MON dynstat_uvel_min             =  -1.3943918618504E-01
(PID.TID 0000.0001) %MON dynstat_uvel_mean            =   2.3622284548952E-03
(PID.TID 0000.0001) %MON dynstat_uvel_sd              =   1.5410330492453E-02
(PID.TID 0000.0001) %MON dynstat_uvel_del2            =   1.2005477395952E-04
(PID.TID 0000.0001) %MON dynstat_vvel_max             =   1.3109650776894E-01
(PID.TID 0000.0001) %MON dynstat_vvel_min             =  -9.5433428321819E-02
(PID.TID 0000.0001) %MON dynstat_vvel_mean            =   4.9078920878638E-05
(PID.TID 0000.0001) %MON dynstat_vvel_sd              =   8.3609053604468E-03
(PID.TID 0000.0001) %MON dynstat_vvel_del2            =   7.9354721926930E-05
(PID.TID 0000.0001) %MON dynstat_wvel_max             =   9.5001165321671E-05
(PID.TID 0000.0001) %MON dynstat_wvel_min             =  -6.8214340841924E-05
(PID.TID 0000.0001) %MON dynstat_wvel_mean            =  -4.9302915737598E-23
(PID.TID 0000.0001) %MON dynstat_wvel_sd              =   1.0291931912677E-05
(PID.TID 0000.0001) %MON dynstat_wvel_del2            =   1.0093640521727E-07
(PID.TID 0000.0001) %MON dynstat_theta_max            =   3.1320180295356E+01
(PID.TID 0000.0001) %MON dynstat_theta_min            =  -1.9235244784154E+00
(PID.TID 0000.0001) %MON dynstat_theta_mean           =   3.6442220023561E+00
(PID.TID 0000.0001) %MON dynstat_theta_sd             =   4.4291494402452E+00
(PID.TID 0000.0001) %MON dynstat_theta_del2           =   4.8212484718072E-03
(PID.TID 0000.0001) %MON dynstat_salt_max             =   3.7488422576216E+01
(PID.TID 0000.0001) %MON dynstat_salt_min             =   2.9995669750545E+01
(PID.TID 0000.0001) %MON dynstat_salt_mean            =   3.4737985124598E+01
(PID.TID 0000.0001) %MON dynstat_salt_sd              =   2.9667323849260E-01
(PID.TID 0000.0001) %MON dynstat_salt_del2            =   1.0008916644239E-03
(PID.TID 0000.0001) %MON dynstat_sst_max              =   3.1320180295356E+01
(PID.TID 0000.0001) %MON dynstat_sst_min              =  -1.9235244784154E+00
(PID.TID 0000.0001) %MON dynstat_sst_mean             =   1.9039485652681E+01
(PID.TID 0000.0001) %MON dynstat_sst_sd               =   9.3208209490356E+00
(PID.TID 0000.0001) %MON dynstat_sst_del2             =   2.9486175340135E-02
(PID.TID 0000.0001) %MON dynstat_sss_max              =   3.7488422576216E+01
(PID.TID 0000.0001) %MON dynstat_sss_min              =   2.9995669750545E+01
(PID.TID 0000.0001) %MON dynstat_sss_mean             =   3.4855784478879E+01
(PID.TID 0000.0001) %MON dynstat_sss_sd               =   9.9472958097543E-01
(PID.TID 0000.0001) %MON dynstat_sss_del2             =   8.3801697500288E-03
(PID.TID 0000.0001) %MON forcing_qnet_max             =   1.6628729044596E+02
(PID.TID 0000.0001) %MON forcing_qnet_min             =  -1.5401167551676E+02
(PID.TID 0000.0001) %MON forcing_qnet_mean            =   1.8667718761569E+00
(PID.TID 0000.0001) %MON forcing_qnet_sd              =   4.2543345917318E+01
(PID.TID 0000.0001) %MON forcing_qnet_del2            =   7.9400470474141E-01
(PID.TID 0000.0001) %MON forcing_qsw_max              =   0.0000000000000E+00
(PID.TID 0000.0001) %MON forcing_qsw_min              =   0.0000000000000E+00
(PID.TID 0000.0001) %MON forcing_qsw_mean             =   0.0000000000000E+00
(PID.TID 0000.0001) %MON forcing_qsw_sd               =   0.0000000000000E+00
(PID.TID 0000.0001) %MON forcing_qsw_del2             =   0.0000000000000E+00
(PID.TID 0000.0001) %MON forcing_empmr_max            =   6.6896888502773E-05
(PID.TID 0000.0001) %MON forcing_empmr_min            =  -8.3605877421178E-05
(PID.TID 0000.0001) %MON forcing_empmr_mean           =   3.4467662644683E-08
(PID.TID 0000.0001) %MON forcing_empmr_sd             =   2.5512895431700E-05
(PID.TID 0000.0001) %MON forcing_empmr_del2           =   3.6941383160522E-07
(PID.TID 0000.0001) %MON forcing_fu_max               =   3.4395322799683E-01
(PID.TID 0000.0001) %MON forcing_fu_min               =  -4.1001707613468E-01
(PID.TID 0000.0001) %MON forcing_fu_mean              =   1.7531311070933E-02
(PID.TID 0000.0001) %MON forcing_fu_sd                =   1.0160162235513E-01
(PID.TID 0000.0001) %MON forcing_fu_del2              =   8.0229753052437E-04
(PID.TID 0000.0001) %MON forcing_fv_max               =   1.8109231789907E-01
(PID.TID 0000.0001) %MON forcing_fv_min               =  -1.4540471682946E-01
(PID.TID 0000.0001) %MON forcing_fv_mean              =  -6.6906119754649E-03
(PID.TID 0000.0001) %MON forcing_fv_sd                =   3.9065099338649E-02
(PID.TID 0000.0001) %MON forcing_fv_del2              =   4.2781951918176E-04
(PID.TID 0000.0001) %MON trAdv_CFL_u_max              =   4.5611194062130E-02
(PID.TID 0000.0001) %MON trAdv_CFL_v_max              =   2.5428193083552E-02
(PID.TID 0000.0001) %MON trAdv_CFL_w_max              =   3.1340289942373E-02
(PID.TID 0000.0001) %MON advcfl_uvel_max              =   4.5178672954706E-02
(PID.TID 0000.0001) %MON advcfl_vvel_max              =   2.5469948924299E-02
(PID.TID 0000.0001) %MON advcfl_wvel_max              =   2.7658781865639E-02
(PID.TID 0000.0001) %MON advcfl_W_hf_max              =   3.3585663693990E-02
(PID.TID 0000.0001) %MON pe_b_mean                    =   4.5821153919320E-04
(PID.TID 0000.0001) %MON ke_max                       =   1.1117590645484E-02
(PID.TID 0000.0001) %MON ke_mean                      =   1.4180949629720E-04
(PID.TID 0000.0001) %MON ke_vol                       =   1.3226782436723E+18
(PID.TID 0000.0001) %MON vort_r_min                   =  -3.8829735937679E-07
(PID.TID 0000.0001) %MON vort_r_max                   =   4.4655187371506E-07
(PID.TID 0000.0001) %MON vort_a_mean                  =  -2.5274807175177E-05
(PID.TID 0000.0001) %MON vort_a_sd                    =   7.3604662127894E-05
(PID.TID 0000.0001) %MON vort_p_mean                  =  -3.1845655519413E-05
(PID.TID 0000.0001) %MON vort_p_sd                    =   1.3162473661979E-04
(PID.TID 0000.0001) %MON surfExpan_theta_mean         =   1.9458583519755E-07
(PID.TID 0000.0001) %MON surfExpan_salt_mean          =  -5.2662061767860E-09
(PID.TID 0000.0001) // =======================================================
(PID.TID 0000.0001) // End MONITOR dynamic field statistics
(PID.TID 0000.0001) // =======================================================
 EXTERNAL_FIELDS_LOAD,        99 : iP,iLd,i0,i1=    3    4    3    4 ; Wght=  0.2000000000  0.8000000000
 EXTERNAL_FIELDS_LOAD: (fu0,1),fu,fv= -2.7199E-02 -3.7252E-02 -3.5241E-02 -2.8288E-02
 EXTERNAL_FIELDS_LOAD: SST,SSS,Q,E-P= -8.5119E-03  3.4571E+01  1.2637E+02  8.0314E-06
DEBUG_STATS_RL:          Uvel (THERMODYNAMICS)  min= -1.39439186185041E-01
DEBUG_STATS_RL:          Uvel (THERMODYNAMICS)  max=  1.34213779108517E-01
DEBUG_STATS_RL:          Uvel (THERMODYNAMICS) mean=  5.84225429311450E-03
DEBUG_STATS_RL:          Uvel (THERMODYNAMICS) S.D.=  2.30678134324989E-02
DEBUG_STATS_RL:          Vvel (THERMODYNAMICS)  min= -9.54334283218189E-02
DEBUG_STATS_RL:          Vvel (THERMODYNAMICS)  max=  1.31096507768935E-01
DEBUG_STATS_RL:          Vvel (THERMODYNAMICS) mean=  8.23740995258018E-04
DEBUG_STATS_RL:          Vvel (THERMODYNAMICS) S.D.=  1.30991606710302E-02
DEBUG_STATS_RL:          Wvel (THERMODYNAMICS)  min= -6.82143408419237E-05
DEBUG_STATS_RL:          Wvel (THERMODYNAMICS)  max=  9.50011653216714E-05
DEBUG_STATS_RL:          Wvel (THERMODYNAMICS) mean= -3.80894329451006E-08
DEBUG_STATS_RL:          Wvel (THERMODYNAMICS) S.D.=  8.86549555072389E-06
DEBUG_STATS_RL:         Theta (THERMODYNAMICS)  min= -1.92268547134938E+00
DEBUG_STATS_RL:         Theta (THERMODYNAMICS)  max=  3.13289632792523E+01
DEBUG_STATS_RL:         Theta (THERMODYNAMICS) mean=  3.23874913510416E+00
DEBUG_STATS_RL:         Theta (THERMODYNAMICS) S.D.=  5.88882452583398E+00
DEBUG_STATS_RL:          Salt (THERMODYNAMICS)  min=  2.00000000000000E-02
DEBUG_STATS_RL:          Salt (THERMODYNAMICS)  max=  3.74895230352765E+01
DEBUG_STATS_RL:          Salt (THERMODYNAMICS) mean=  1.88646889108105E+01
DEBUG_STATS_RL:          Salt (THERMODYNAMICS) S.D.=  1.73002594666718E+01
DEBUG_STATS_RL:         GtNm1 (THERMODYNAMICS)  min= -1.55407991336126E-06
DEBUG_STATS_RL:         GtNm1 (THERMODYNAMICS)  max=  1.59703811880040E-06
DEBUG_STATS_RL:         GtNm1 (THERMODYNAMICS) mean= -3.05264926076605E-09
DEBUG_STATS_RL:         GtNm1 (THERMODYNAMICS) S.D.=  1.28247158382561E-07
DEBUG_STATS_RL:         GsNm1 (THERMODYNAMICS)  min= -3.17773152920552E-07
DEBUG_STATS_RL:         GsNm1 (THERMODYNAMICS)  max=  2.31182214549111E-07
DEBUG_STATS_RL:         GsNm1 (THERMODYNAMICS) mean= -1.67246201892683E-10
DEBUG_STATS_RL:         GsNm1 (THERMODYNAMICS) S.D.=  1.21266328785149E-08
DEBUG_STATS_RL:                EtaN (DYNAMICS)  min= -1.85926775379117E+00
DEBUG_STATS_RL:                EtaN (DYNAMICS)  max=  7.53972341929102E-01
DEBUG_STATS_RL:                EtaN (DYNAMICS) mean= -1.80197179734128E-01
DEBUG_STATS_RL:                EtaN (DYNAMICS) S.D.=  7.05047341904889E-01
DEBUG_STATS_RL:                Uvel (DYNAMICS)  min= -1.39439186185041E-01
DEBUG_STATS_RL:                Uvel (DYNAMICS)  max=  1.34213779108517E-01
DEBUG_STATS_RL:                Uvel (DYNAMICS) mean=  5.84225429311450E-03
DEBUG_STATS_RL:                Uvel (DYNAMICS) S.D.=  2.30678134324989E-02
DEBUG_STATS_RL:                Vvel (DYNAMICS)  min= -9.54334283218189E-02
DEBUG_STATS_RL:                Vvel (DYNAMICS)  max=  1.31096507768935E-01
DEBUG_STATS_RL:                Vvel (DYNAMICS) mean=  8.23740995258018E-04
DEBUG_STATS_RL:                Vvel (DYNAMICS) S.D.=  1.30991606710302E-02
DEBUG_STATS_RL:                Wvel (DYNAMICS)  min= -6.82143408419237E-05
DEBUG_STATS_RL:                Wvel (DYNAMICS)  max=  9.50011653216714E-05
DEBUG_STATS_RL:                Wvel (DYNAMICS) mean= -3.80894329451006E-08
DEBUG_STATS_RL:                Wvel (DYNAMICS) S.D.=  8.86549555072389E-06
DEBUG_STATS_RL:               Theta (DYNAMICS)  min= -1.92268547134938E+00
DEBUG_STATS_RL:               Theta (DYNAMICS)  max=  3.13289632792523E+01
DEBUG_STATS_RL:               Theta (DYNAMICS) mean=  3.23874913510416E+00
DEBUG_STATS_RL:               Theta (DYNAMICS) S.D.=  5.88882452583398E+00
DEBUG_STATS_RL:                Salt (DYNAMICS)  min=  2.00000000000000E-02
DEBUG_STATS_RL:                Salt (DYNAMICS)  max=  3.74895230352765E+01
DEBUG_STATS_RL:                Salt (DYNAMICS) mean=  1.88646889108105E+01
DEBUG_STATS_RL:                Salt (DYNAMICS) S.D.=  1.73002594666718E+01
DEBUG_STATS_RL:                  Gu (DYNAMICS)  min= -1.38509524355983E-01
DEBUG_STATS_RL:                  Gu (DYNAMICS)  max=  1.37573371738115E-01
DEBUG_STATS_RL:                  Gu (DYNAMICS) mean=  5.81445264701958E-03
DEBUG_STATS_RL:                  Gu (DYNAMICS) S.D.=  2.34538833560872E-02
DEBUG_STATS_RL:                  Gv (DYNAMICS)  min= -9.39522532196369E-02
DEBUG_STATS_RL:                  Gv (DYNAMICS)  max=  1.30345295482511E-01
DEBUG_STATS_RL:                  Gv (DYNAMICS) mean=  3.52657075758040E-03
DEBUG_STATS_RL:                  Gv (DYNAMICS) S.D.=  1.46916686250439E-02
DEBUG_STATS_RL:               GuNm1 (DYNAMICS)  min= -9.40221829877228E-06
DEBUG_STATS_RL:               GuNm1 (DYNAMICS)  max=  1.03625602058959E-05
DEBUG_STATS_RL:               GuNm1 (DYNAMICS) mean=  1.95748589448663E-08
DEBUG_STATS_RL:               GuNm1 (DYNAMICS) S.D.=  1.23662299978296E-06
DEBUG_STATS_RL:               GvNm1 (DYNAMICS)  min= -9.38042440557486E-06
DEBUG_STATS_RL:               GvNm1 (DYNAMICS)  max=  1.48825024024273E-05
DEBUG_STATS_RL:               GvNm1 (DYNAMICS) mean=  7.46751230737811E-07
DEBUG_STATS_RL:               GvNm1 (DYNAMICS) S.D.=  2.60909554117554E-06
DEBUG_STATS_RL:               GtNm1 (DYNAMICS)  min= -1.55407991336126E-06
DEBUG_STATS_RL:               GtNm1 (DYNAMICS)  max=  1.59703811880040E-06
DEBUG_STATS_RL:               GtNm1 (DYNAMICS) mean= -3.05264926076605E-09
DEBUG_STATS_RL:               GtNm1 (DYNAMICS) S.D.=  1.28247158382561E-07
DEBUG_STATS_RL:               GsNm1 (DYNAMICS)  min= -3.17773152920552E-07
DEBUG_STATS_RL:               GsNm1 (DYNAMICS)  max=  2.31182214549111E-07
DEBUG_STATS_RL:               GsNm1 (DYNAMICS) mean= -1.67246201892683E-10
DEBUG_STATS_RL:               GsNm1 (DYNAMICS) S.D.=  1.21266328785149E-08
DEBUG_STATS_RL:    cg2d_b (SOLVE_FOR_PRESSURE)  min= -2.69738543049428E+04
DEBUG_STATS_RL:    cg2d_b (SOLVE_FOR_PRESSURE)  max=  3.31789790980902E+04
DEBUG_STATS_RL:    cg2d_b (SOLVE_FOR_PRESSURE) mean=  5.62446765850566E+00
DEBUG_STATS_RL:    cg2d_b (SOLVE_FOR_PRESSURE) S.D.=  4.07651718945381E+03
 cg2d: Sum(rhs),rhsMax =   3.92436505986044E-01  2.17928418141429E+00
(PID.TID 0000.0001)  cg2d: iter=     1 ; resid.=  8.01119830729897E-02
(PID.TID 0000.0001)  cg2d: iter=     2 ; resid.=  5.68574630638205E-02
(PID.TID 0000.0001)  cg2d: iter=     3 ; resid.=  4.96599719611090E-02
(PID.TID 0000.0001)  cg2d: iter=     4 ; resid.=  4.15411289969777E-02
(PID.TID 0000.0001)  cg2d: iter=     5 ; resid.=  3.07573195057188E-02
(PID.TID 0000.0001)  cg2d: iter=     6 ; resid.=  2.57291123239992E-02
(PID.TID 0000.0001)  cg2d: iter=     7 ; resid.=  2.26202015612024E-02
(PID.TID 0000.0001)  cg2d: iter=     8 ; resid.=  2.01581472500123E-02
(PID.TID 0000.0001)  cg2d: iter=     9 ; resid.=  1.71575645877707E-02
(PID.TID 0000.0001)  cg2d: iter=    10 ; resid.=  1.41631768249718E-02
(PID.TID 0000.0001)  cg2d: iter=    11 ; resid.=  1.25254609270199E-02
(PID.TID 0000.0001)  cg2d: iter=    12 ; resid.=  1.08979649495218E-02
(PID.TID 0000.0001)  cg2d: iter=    13 ; resid.=  8.94108564023099E-03
(PID.TID 0000.0001)  cg2d: iter=    14 ; resid.=  7.46352117428102E-03
(PID.TID 0000.0001)  cg2d: iter=    15 ; resid.=  6.19641718580114E-03
(PID.TID 0000.0001)  cg2d: iter=    16 ; resid.=  4.90978419849776E-03
(PID.TID 0000.0001)  cg2d: iter=    17 ; resid.=  4.13950148831826E-03
(PID.TID 0000.0001)  cg2d: iter=    18 ; resid.=  3.43677407894063E-03
(PID.TID 0000.0001)  cg2d: iter=    19 ; resid.=  2.88919358925849E-03
(PID.TID 0000.0001)  cg2d: iter=    20 ; resid.=  2.40639713781532E-03
(PID.TID 0000.0001)  cg2d: iter=    21 ; resid.=  2.10101353846468E-03
(PID.TID 0000.0001)  cg2d: iter=    22 ; resid.=  1.88344135287121E-03
(PID.TID 0000.0001)  cg2d: iter=    23 ; resid.=  1.68562859430233E-03
(PID.TID 0000.0001)  cg2d: iter=    24 ; resid.=  1.42321911809661E-03
(PID.TID 0000.0001)  cg2d: iter=    25 ; resid.=  1.11494627001137E-03
(PID.TID 0000.0001)  cg2d: iter=    26 ; resid.=  9.68891482672300E-04
(PID.TID 0000.0001)  cg2d: iter=    27 ; resid.=  8.77236602588613E-04
(PID.TID 0000.0001)  cg2d: iter=    28 ; resid.=  7.78321759698021E-04
(PID.TID 0000.0001)  cg2d: iter=    29 ; resid.=  6.35013551726214E-04
(PID.TID 0000.0001)  cg2d: iter=    30 ; resid.=  5.07779187175808E-04
(PID.TID 0000.0001)  cg2d: iter=    31 ; resid.=  4.16588306296498E-04
(PID.TID 0000.0001)  cg2d: iter=    32 ; resid.=  3.19637787473629E-04
(PID.TID 0000.0001)  cg2d: iter=    33 ; resid.=  2.40102819408386E-04
(PID.TID 0000.0001)  cg2d: iter=    34 ; resid.=  1.91314578024211E-04
(PID.TID 0000.0001)  cg2d: iter=    35 ; resid.=  1.55517675374810E-04
(PID.TID 0000.0001)  cg2d: iter=    36 ; resid.=  1.36934443712589E-04
(PID.TID 0000.0001)  cg2d: iter=    37 ; resid.=  1.11618392836665E-04
(PID.TID 0000.0001)  cg2d: iter=    38 ; resid.=  9.19272470429478E-05
(PID.TID 0000.0001)  cg2d: iter=    39 ; resid.=  7.55371905250340E-05
(PID.TID 0000.0001)  cg2d: iter=    40 ; resid.=  6.34482648686420E-05
(PID.TID 0000.0001)  cg2d: iter=    41 ; resid.=  5.12887636417256E-05
(PID.TID 0000.0001)  cg2d: iter=    42 ; resid.=  4.58208129380658E-05
(PID.TID 0000.0001)  cg2d: iter=    43 ; resid.=  4.12676984164956E-05
(PID.TID 0000.0001)  cg2d: iter=    44 ; resid.=  3.52179888906018E-05
(PID.TID 0000.0001)  cg2d: iter=    45 ; resid.=  2.79130102020079E-05
(PID.TID 0000.0001)  cg2d: iter=    46 ; resid.=  2.18833844020055E-05
(PID.TID 0000.0001)  cg2d: iter=    47 ; resid.=  1.85022556723524E-05
(PID.TID 0000.0001)  cg2d: iter=    48 ; resid.=  1.50255154477766E-05
(PID.TID 0000.0001)  cg2d: iter=    49 ; resid.=  1.22918800801983E-05
(PID.TID 0000.0001)  cg2d: iter=    50 ; resid.=  9.43740022919322E-06
(PID.TID 0000.0001)  cg2d: iter=    51 ; resid.=  7.54530944071612E-06
(PID.TID 0000.0001)  cg2d: iter=    52 ; resid.=  6.35202355082836E-06
(PID.TID 0000.0001)  cg2d: iter=    53 ; resid.=  5.41076902097143E-06
(PID.TID 0000.0001)  cg2d: iter=    54 ; resid.=  4.84532988238099E-06
(PID.TID 0000.0001)  cg2d: iter=    55 ; resid.=  4.67883590320816E-06
(PID.TID 0000.0001)  cg2d: iter=    56 ; resid.=  4.00689812313060E-06
(PID.TID 0000.0001)  cg2d: iter=    57 ; resid.=  3.50643729819967E-06
(PID.TID 0000.0001)  cg2d: iter=    58 ; resid.=  2.66427966418173E-06
(PID.TID 0000.0001)  cg2d: iter=    59 ; resid.=  1.96518936674402E-06
(PID.TID 0000.0001)  cg2d: iter=    60 ; resid.=  1.54493617655838E-06
(PID.TID 0000.0001)  cg2d: iter=    61 ; resid.=  1.12491914506389E-06
(PID.TID 0000.0001)  cg2d: iter=    62 ; resid.=  8.07696411317461E-07
(PID.TID 0000.0001)  cg2d: iter=    63 ; resid.=  6.15347661902048E-07
(PID.TID 0000.0001)  cg2d: iter=    64 ; resid.=  5.23145159042163E-07
(PID.TID 0000.0001)  cg2d: iter=    65 ; resid.=  4.18754945123353E-07
(PID.TID 0000.0001)  cg2d: iter=    66 ; resid.=  3.34130018376309E-07
(PID.TID 0000.0001)  cg2d: iter=    67 ; resid.=  2.80888429968696E-07
(PID.TID 0000.0001)  cg2d: iter=    68 ; resid.=  2.22543620663752E-07
(PID.TID 0000.0001)  cg2d: iter=    69 ; resid.=  1.81969027762781E-07
(PID.TID 0000.0001)  cg2d: iter=    70 ; resid.=  1.39138247917430E-07
(PID.TID 0000.0001)  cg2d: iter=    71 ; resid.=  1.16632662838408E-07
(PID.TID 0000.0001)  cg2d: iter=    72 ; resid.=  1.02692737708243E-07
(PID.TID 0000.0001)  cg2d: iter=    73 ; resid.=  9.96281008764425E-08
(PID.TID 0000.0001)  cg2d: iter=    74 ; resid.=  7.99164209827769E-08
(PID.TID 0000.0001)  cg2d: iter=    75 ; resid.=  6.40794986588866E-08
(PID.TID 0000.0001)  cg2d: iter=    76 ; resid.=  5.27672294179990E-08
(PID.TID 0000.0001)  cg2d: iter=    77 ; resid.=  4.69853985759693E-08
(PID.TID 0000.0001)  cg2d: iter=    78 ; resid.=  3.94899152107563E-08
(PID.TID 0000.0001)  cg2d: iter=    79 ; resid.=  3.30812703402750E-08
(PID.TID 0000.0001)  cg2d: iter=    80 ; resid.=  2.71499967287971E-08
(PID.TID 0000.0001)  cg2d: iter=    81 ; resid.=  2.19582002964738E-08
(PID.TID 0000.0001)  cg2d: iter=    82 ; resid.=  1.77483185554194E-08
(PID.TID 0000.0001)  cg2d: iter=    83 ; resid.=  1.35624194951378E-08
(PID.TID 0000.0001)  cg2d: iter=    84 ; resid.=  1.07816464752573E-08
(PID.TID 0000.0001)  cg2d: iter=    85 ; resid.=  7.66337811907934E-09
(PID.TID 0000.0001)  cg2d: iter=    86 ; resid.=  5.75722700164276E-09
(PID.TID 0000.0001)  cg2d: iter=    87 ; resid.=  4.41881197757602E-09
(PID.TID 0000.0001)  cg2d: iter=    88 ; resid.=  3.43779212086504E-09
(PID.TID 0000.0001)  cg2d: iter=    89 ; resid.=  2.85820460338118E-09
(PID.TID 0000.0001)  cg2d: iter=    90 ; resid.=  2.46122625722905E-09
(PID.TID 0000.0001)  cg2d: iter=    91 ; resid.=  2.05817754910978E-09
(PID.TID 0000.0001)  cg2d: iter=    92 ; resid.=  1.73560315760396E-09
(PID.TID 0000.0001)  cg2d: iter=    93 ; resid.=  1.48690568473547E-09
(PID.TID 0000.0001)  cg2d: iter=    94 ; resid.=  1.24307546234873E-09
(PID.TID 0000.0001)  cg2d: iter=    95 ; resid.=  1.02928278835968E-09
(PID.TID 0000.0001)  cg2d: iter=    96 ; resid.=  8.29759016604331E-10
(PID.TID 0000.0001)  cg2d: iter=    97 ; resid.=  6.97443343253355E-10
(PID.TID 0000.0001)  cg2d: iter=    98 ; resid.=  5.73887326848227E-10
(PID.TID 0000.0001)  cg2d: iter=    99 ; resid.=  4.32343131619957E-10
(PID.TID 0000.0001)  cg2d: iter=   100 ; resid.=  3.51230196190812E-10
(PID.TID 0000.0001)  cg2d: iter=   101 ; resid.=  2.60749680749278E-10
(PID.TID 0000.0001)  cg2d: iter=   102 ; resid.=  2.00002805796755E-10
(PID.TID 0000.0001)  cg2d: iter=   103 ; resid.=  1.60702251209279E-10
(PID.TID 0000.0001)  cg2d: iter=   104 ; resid.=  1.17658357762450E-10
(PID.TID 0000.0001)  cg2d: iter=   105 ; resid.=  9.36016944404790E-11
(PID.TID 0000.0001)  cg2d: iter=   106 ; resid.=  7.09212798797526E-11
(PID.TID 0000.0001)  cg2d: iter=   107 ; resid.=  5.68924809057569E-11
(PID.TID 0000.0001)  cg2d: iter=   108 ; resid.=  4.30345750198100E-11
(PID.TID 0000.0001)  cg2d: iter=   109 ; resid.=  2.99499899521003E-11
(PID.TID 0000.0001)  cg2d: iter=   110 ; resid.=  2.16774595525650E-11
(PID.TID 0000.0001)  cg2d: iter=   111 ; resid.=  1.71168174077112E-11
(PID.TID 0000.0001)  cg2d: iter=   112 ; resid.=  1.47915853344818E-11
(PID.TID 0000.0001)  cg2d: iter=   113 ; resid.=  1.07259459057132E-11
(PID.TID 0000.0001)  cg2d: iter=   114 ; resid.=  8.07454720483981E-12
(PID.TID 0000.0001)  cg2d: iter=   115 ; resid.=  5.98812823151475E-12
(PID.TID 0000.0001)  cg2d: iter=   116 ; resid.=  4.44796910426886E-12
(PID.TID 0000.0001)  cg2d: iter=   117 ; resid.=  3.21280940129147E-12
(PID.TID 0000.0001)  cg2d: iter=   118 ; resid.=  2.39647205747605E-12
(PID.TID 0000.0001)  cg2d: iter=   119 ; resid.=  1.77571069505415E-12
(PID.TID 0000.0001)  cg2d: iter=   120 ; resid.=  1.26315764791267E-12
(PID.TID 0000.0001)  cg2d: iter=   121 ; resid.=  8.98604351469014E-13
(PID.TID 0000.0001)  cg2d: iter=   122 ; resid.=  6.97002693648418E-13
(PID.TID 0000.0001)  cg2d: iter=   123 ; resid.=  5.56536099165213E-13
(PID.TID 0000.0001)  cg2d: iter=   124 ; resid.=  4.77346012689484E-13
(PID.TID 0000.0001)  cg2d: iter=   125 ; resid.=  4.27727105992449E-13
(PID.TID 0000.0001)  cg2d: iter=   126 ; resid.=  3.89156355156947E-13
(PID.TID 0000.0001)  cg2d: iter=   127 ; resid.=  2.82337717338628E-13
(PID.TID 0000.0001)  cg2d: iter=   128 ; resid.=  1.83093522074846E-13
(PID.TID 0000.0001)  cg2d: iter=   129 ; resid.=  1.17537673615966E-13
(PID.TID 0000.0001)  cg2d: iter=   130 ; resid.=  7.98496317679602E-14
DEBUG_STATS_RL:    cg2d_x (SOLVE_FOR_PRESSURE)  min= -1.83351455691545E+01
DEBUG_STATS_RL:    cg2d_x (SOLVE_FOR_PRESSURE)  max=  7.46665075797861E+00
DEBUG_STATS_RL:    cg2d_x (SOLVE_FOR_PRESSURE) mean= -1.77249806400153E+00
DEBUG_STATS_RL:    cg2d_x (SOLVE_FOR_PRESSURE) S.D.=  6.95126130115147E+00
(PID.TID 0000.0001)      cg2d_init_res =   1.88397580325706E-01
(PID.TID 0000.0001)      cg2d_iters(min,last) =      -1     130
(PID.TID 0000.0001)      cg2d_last_res =   7.98496317679602E-14
(PID.TID 0000.0001) // =======================================================
(PID.TID 0000.0001) // Begin MONITOR dynamic field statistics
(PID.TID 0000.0001) // =======================================================
(PID.TID 0000.0001) %MON time_tsnumber                =                   100
(PID.TID 0000.0001) %MON time_secondsf                =   8.6400000000000E+06
(PID.TID 0000.0001) %MON dynstat_eta_max              =   7.6112647889692E-01
(PID.TID 0000.0001) %MON dynstat_eta_min              =  -1.8690260519016E+00
(PID.TID 0000.0001) %MON dynstat_eta_mean             =  -5.8684345906840E-03
(PID.TID 0000.0001) %MON dynstat_eta_sd               =   6.0139824985530E-01
(PID.TID 0000.0001) %MON dynstat_eta_del2             =   2.5778381626044E-03
(PID.TID 0000.0001) %MON dynstat_uvel_max             =   1.3550805290407E-01
(PID.TID 0000.0001) %MON dynstat_uvel_min             =  -1.3854058936293E-01
(PID.TID 0000.0001) %MON dynstat_uvel_mean            =   2.4330494842842E-03
(PID.TID 0000.0001) %MON dynstat_uvel_sd              =   1.5388390187471E-02
(PID.TID 0000.0001) %MON dynstat_uvel_del2            =   1.2018114797924E-04
(PID.TID 0000.0001) %MON dynstat_vvel_max             =   1.3096848747858E-01
(PID.TID 0000.0001) %MON dynstat_vvel_min             =  -9.4364457174388E-02
(PID.TID 0000.0001) %MON dynstat_vvel_mean            =   3.8133650006926E-05
(PID.TID 0000.0001) %MON dynstat_vvel_sd              =   8.3013328063230E-03
(PID.TID 0000.0001) %MON dynstat_vvel_del2            =   7.8854182390602E-05
(PID.TID 0000.0001) %MON dynstat_wvel_max             =   9.5228626959434E-05
(PID.TID 0000.0001) %MON dynstat_wvel_min             =  -6.6819055889925E-05
(PID.TID 0000.0001) %MON dynstat_wvel_mean            =  -7.8117425109711E-23
(PID.TID 0000.0001) %MON dynstat_wvel_sd              =   1.0240412134355E-05
(PID.TID 0000.0001) %MON dynstat_wvel_del2            =   1.0027051080690E-07
(PID.TID 0000.0001) %MON dynstat_theta_max            =   3.1328963279252E+01
(PID.TID 0000.0001) %MON dynstat_theta_min            =  -1.9226854713494E+00
(PID.TID 0000.0001) %MON dynstat_theta_mean           =   3.6442031347014E+00
(PID.TID 0000.0001) %MON dynstat_theta_sd             =   4.4291133786560E+00
(PID.TID 0000.0001) %MON dynstat_theta_del2           =   4.8200427267806E-03
(PID.TID 0000.0001) %MON dynstat_salt_max             =   3.7489523035277E+01
(PID.TID 0000.0001) %MON dynstat_salt_min             =   2.9999099130210E+01
(PID.TID 0000.0001) %MON dynstat_salt_mean            =   3.4737985790319E+01
(PID.TID 0000.0001) %MON dynstat_salt_sd              =   2.9668256607632E-01
(PID.TID 0000.0001) %MON dynstat_salt_del2            =   1.0012290135395E-03
(PID.TID 0000.0001) %MON dynstat_sst_max              =   3.1328963279252E+01
(PID.TID 0000.0001) %MON dynstat_sst_min              =  -1.9226854713494E+00
(PID.TID 0000.0001) %MON dynstat_sst_mean             =   1.9034939113156E+01
(PID.TID 0000.0001) %MON dynstat_sst_sd               =   9.3279854503767E+00
(PID.TID 0000.0001) %MON dynstat_sst_del2             =   2.9506099478913E-02
(PID.TID 0000.0001) %MON dynstat_sss_max              =   3.7489523035277E+01
(PID.TID 0000.0001) %MON dynstat_sss_min              =   2.9999099130210E+01
(PID.TID 0000.0001) %MON dynstat_sss_mean             =   3.4855543801669E+01
(PID.TID 0000.0001) %MON dynstat_sss_sd               =   9.9513279099083E-01
(PID.TID 0000.0001) %MON dynstat_sss_del2             =   8.3886290348022E-03
(PID.TID 0000.0001) %MON forcing_qnet_max             =   1.6158205566406E+02
(PID.TID 0000.0001) %MON forcing_qnet_min             =  -1.5358367919922E+02
(PID.TID 0000.0001) %MON forcing_qnet_mean            =   2.2638083051266E+00
(PID.TID 0000.0001) %MON forcing_qnet_sd              =   4.3251861816584E+01
(PID.TID 0000.0001) %MON forcing_qnet_del2            =   7.9754295620117E-01
(PID.TID 0000.0001) %MON forcing_qsw_max              =   0.0000000000000E+00
(PID.TID 0000.0001) %MON forcing_qsw_min              =   0.0000000000000E+00
(PID.TID 0000.0001) %MON forcing_qsw_mean             =   0.0000000000000E+00
(PID.TID 0000.0001) %MON forcing_qsw_sd               =   0.0000000000000E+00
(PID.TID 0000.0001) %MON forcing_qsw_del2             =   0.0000000000000E+00
(PID.TID 0000.0001) %MON forcing_empmr_max            =   6.6800717490878E-05
(PID.TID 0000.0001) %MON forcing_empmr_min            =  -8.3620723501099E-05
(PID.TID 0000.0001) %MON forcing_empmr_mean           =   1.2022297817123E-08
(PID.TID 0000.0001) %MON forcing_empmr_sd             =   2.5522928542606E-05
(PID.TID 0000.0001) %MON forcing_empmr_del2           =   3.7041876953226E-07
(PID.TID 0000.0001) %MON forcing_fu_max               =   3.4346117377281E-01
(PID.TID 0000.0001) %MON forcing_fu_min               =  -4.1095014810562E-01
(PID.TID 0000.0001) %MON forcing_fu_mean              =   1.7404118974000E-02
(PID.TID 0000.0001) %MON forcing_fu_sd                =   1.0186347478370E-01
(PID.TID 0000.0001) %MON forcing_fu_del2              =   8.0856311401579E-04
(PID.TID 0000.0001) %MON forcing_fv_max               =   1.8099631667137E-01
(PID.TID 0000.0001) %MON forcing_fv_min               =  -1.4571011960506E-01
(PID.TID 0000.0001) %MON forcing_fv_mean              =  -6.6541353030919E-03
(PID.TID 0000.0001) %MON forcing_fv_sd                =   3.9225413743387E-02
(PID.TID 0000.0001) %MON forcing_fv_del2              =   4.3233394206160E-04
(PID.TID 0000.0001) %MON trAdv_CFL_u_max              =   4.5187849066307E-02
(PID.TID 0000.0001) %MON trAdv_CFL_v_max              =   2.5428556325600E-02
(PID.TID 0000.0001) %MON trAdv_CFL_w_max              =   3.0012409735790E-02
(PID.TID 0000.0001) %MON advcfl_uvel_max              =   4.4790238082186E-02
(PID.TID 0000.0001) %MON advcfl_vvel_max              =   2.5445076635081E-02
(PID.TID 0000.0001) %MON advcfl_wvel_max              =   2.5574002449259E-02
(PID.TID 0000.0001) %MON advcfl_W_hf_max              =   3.1054145831243E-02
(PID.TID 0000.0001) %MON pe_b_mean                    =   4.6285703692156E-04
(PID.TID 0000.0001) %MON ke_max                       =   1.0993627605711E-02
(PID.TID 0000.0001) %MON ke_mean                      =   1.4121073317442E-04
(PID.TID 0000.0001) %MON ke_vol                       =   1.3226782436723E+18
(PID.TID 0000.0001) %MON vort_r_min                   =  -3.9244606577533E-07
(PID.TID 0000.0001) %MON vort_r_max                   =   4.2306564241396E-07
(PID.TID 0000.0001) %MON vort_a_mean                  =  -2.5274807153420E-05
(PID.TID 0000.0001) %MON vort_a_sd                    =   7.3604675125814E-05
(PID.TID 0000.0001) %MON vort_p_mean                  =  -3.1845655491999E-05
(PID.TID 0000.0001) %MON vort_p_sd                    =   1.3162478952752E-04
(PID.TID 0000.0001) %MON surfExpan_theta_mean         =   2.7011595763581E-07
(PID.TID 0000.0001) %MON surfExpan_salt_mean          =  -2.3062728418784E-08
(PID.TID 0000.0001) // =======================================================
(PID.TID 0000.0001) // End MONITOR dynamic field statistics
(PID.TID 0000.0001) // =======================================================
(PID.TID 0000.0001) // =======================================================
(PID.TID 0000.0001) // Field Current uVel   at iteration        100
(PID.TID 0000.0001) // CMIN =         -1.385405893629278E-01
(PID.TID 0000.0001) // CMAX =          1.355080529040711E-01
(PID.TID 0000.0001) // CINT =          1.014994971359255E-02
(PID.TID 0000.0001) // SYMBOLS (CMIN->CMAX): -abcdefghijklmnopqrstuvwxyz+
(PID.TID 0000.0001) //                  0.0: .
(PID.TID 0000.0001) // RANGE I (Lo:Hi:Step):(     1:    90:     1)
(PID.TID 0000.0001) // RANGE J (Lo:Hi:Step):(    40:     1:    -1)
(PID.TID 0000.0001) // RANGE K (Lo:Hi:Step):(   1:   1:   1)
(PID.TID 0000.0001) // =======================================================
(PID.TID 0000.0001) K =   1
(PID.TID 0000.0001)                I=10      I=20      I=30      I=40      I=50      I=60      I=70      I=80      I=90
(PID.TID 0000.0001) |--J--|123456789|123456789|123456789|123456789|123456789|123456789|123456789|123456789|123456789|
(PID.TID 0000.0001)     40 mnmmm..mmmmmnnnnnnn...................................................................mmmm
(PID.TID 0000.0001)     39 nnnnmmnnnnnoon....n......................................................nnn.........llllm
(PID.TID 0000.0001)     38 noppooooonnnn............................................................nnnn.......mlmmnn
(PID.TID 0000.0001)     37 ooo...................................................................n....mm....mmmn..noo
(PID.TID 0000.0001)     36 po..........................................mmm.....................mmmmmmlllm..llnnnnooop
(PID.TID 0000.0001)     35 nn..................................nmm...nmmmmn....mmnn............nn.....mllmkknooooooon
(PID.TID 0000.0001)     34 ....................................nnn..mnnnnnn..nllmnnn...................oonnoopqqpon..
(PID.TID 0000.0001)     33 .....................................omkmopppppooooooopoonn..................rrqqrrrqpnll.
(PID.TID 0000.0001)     32 .....................................oppqqrrrqqppppppqqppom.................rtuqqqponmmln.
(PID.TID 0000.0001)     31 .....................................qrrsrrqqqpppqqqqqqqpon...............qwywusqqpommmm..
(PID.TID 0000.0001)     30 ....................................suuutttsrqqqrrrqqqqqpnm.............qstuuutsrqponnnn..
(PID.TID 0000.0001)     29 ..................................quwvvvvuuttsrrrqqpppponmmm............sstrqqpoooonmmmm..
(PID.TID 0000.0001)     28 ................................qsttsrrrrrqqpppoooooonnmmmmmm..........rsqpnnnmmnnnnmmnn..
(PID.TID 0000.0001)     27 ...............n...............tvtrpoooppponnnnnnnoooonnnmmmmm....nno..qponnnnnooooonm....
(PID.TID 0000.0001)     26 ...............no............loqqnlkklmnnnmmllllllmmmmlkkkjjjlmm..nnonpomlmmnnnmmmmlkj....
(PID.TID 0000.0001)     25 ...............ppn....oo....khiklhgffhiihhhhhhhhhhihhgffggghjkmnn....lkjfgiiiiiijjihgi....
(PID.TID 0000.0001)     24 .............nrtspm..pqp....nn..olihhhhhhiiiijkkklkjjijkklmnoooononn..mmjjklmnnnnnooon....
(PID.TID 0000.0001)     23 .............rtsrpn..ooo....po...kkjkkklmmmmnoppppnnnoqssssssqponooon.....nnqrpoprttsq....
(PID.TID 0000.0001)     22 p............llhgffhjhil....m..oihhghhijihggijjjkkjklmprsrrqponmlllllm.......nifgimpqpqqpq
(PID.TID 0000.0001)     21 qqp.........ljjgec-bdfill......ojlmkiijjhgfffggghgghiilnonmlmnooonmmll.........fbbglmlpsrr
(PID.TID 0000.0001)     20 nom........mmoppnkgiklnpo.........pooomnlmnmmmmlkjiikjjlljjjjlnonlkkkl..........iefijjlnmn
(PID.TID 0000.0001)     19 jll........ljlnnmlkkkjlnool....jm......onnppppoonnlkkjkljiijihjjihhiij............iiiijkjj
(PID.TID 0000.0001)     18 jkl........mhfhhgihihgiklkiiihgjl....lmmllmmmmkklmljihijiijjjijjjiiijkk...........lkkkkkjj
(PID.TID 0000.0001)     17 kll..........igfgfghghhiklkkkkm......nnmllmkklkjjllkkiiiiiiiiijjjjkkkkk..........omjjjjiij
(PID.TID 0000.0001)     16 fgi.......p..okjhhiiikjjkmnmlm........mnmnmkkmmlllmmmlkjiiiiihiiiiiiihik.........omjihgggg
(PID.TID 0000.0001)     15 gfgj.....mn..nllkklmmmllmnnmm..........lmomlkmnnnmnnnmlkkjjjjjjjjiiiigfil.......lllkjihhhg
(PID.TID 0000.0001)     14 jjik.....lljkkllmmnnnlmlmnnno..........mmmnnmnnnooooonnnmmmmlllllllllkjjl......jjkkkkkjjjj
(PID.TID 0000.0001)     13 mmkj.....nonmmmmnnppomnmnnnnn..........oooppopooppqpppqqrrrqqqpooooooonmm.....moooonnonnnn
(PID.TID 0000.0001)     12 qpnlmqsnnqrrrpooooppppppponnnoooon.....opqqnooooppppppqqrsssssrpppqppoon......pqrrrrrrrrrr
(PID.TID 0000.0001)     11 rqpoonmnquvvvvtrqqrqqqqqqpoppooooon...nnoon..onnnnnnnoooooppqqpppppooonn.....nortttstsssrs
(PID.TID 0000.0001)     10 tsrqqrsstvxyyxxvvwwvtssssrrqqqqpponn..ooonm..oonmmmmnnnnnmnooooppppooooo...mnoqsttuuvvuttt
(PID.TID 0000.0001)      9 wvvvvvwvvvvvvvwwvvxyxwvvvvvuuttttsrrppqqpo..oppppppppppqqqqqqqqrrqqppoom..npqstuuuvwxxxxxx
(PID.TID 0000.0001)      8 xxyzyxwwwwuuuvuutqquxyxxxxxxxwwxyyyyyxxwustttsssttuuuuuuvvvuuuuuttsrrqqn..qrrstttuwwxxyyxx
(PID.TID 0000.0001)      7 tuvvvuuuvuuutttstrpqstuuuuuvvvwwxyz+++zzzyxwuuuuuvwxyyyyxxxwwvvvvuuutttutuvuttsrrrstttuuut
(PID.TID 0000.0001)      6 qqqppqqrrssrqqqqrrrpoopqqqrrsttuuvvvvvvwyzyxvuuuvvwwyyzyyxwvvvvvuuuuuvvvwxwxxvtrqqppppqqrq
(PID.TID 0000.0001)      5 nnnmnnnoooooonnnopponnnnmnnoopqqqqqqqqrstuvvvuuuvvvvuuttttttttttttttttuuutrrrpooonnnnnoooo
(PID.TID 0000.0001)      4 llllllmmmmmmmmmmnnnnnmmlkllmmmmmnnnnoooooppqrssssrrqpoooopqrrrrqqqqqqqqppo...mmmmmmmmmmmll
(PID.TID 0000.0001)      3 mllllllllm.............................mnnnmnnoonnmmmllmmmnnnnnnnonnnnnnn...mllmmmmmmmmmmm
(PID.TID 0000.0001)      2 ...........................................mmmmmmmmmmmmmmmmmmnmn...mmm......nnmmmmmmmmm...
(PID.TID 0000.0001)      1 ..........................................................................................
(PID.TID 0000.0001) // =======================================================
(PID.TID 0000.0001) // END OF FIELD                                          =
(PID.TID 0000.0001) // =======================================================
(PID.TID 0000.0001) 
(PID.TID 0000.0001) // =======================================================
(PID.TID 0000.0001) // Field Current vVel   at iteration        100
(PID.TID 0000.0001) // CMIN =         -9.436445717438754E-02
(PID.TID 0000.0001) // CMAX =          1.309684874785811E-01
(PID.TID 0000.0001) // CINT =          8.345664616776617E-03
(PID.TID 0000.0001) // SYMBOLS (CMIN->CMAX): -abcdefghijklmnopqrstuvwxyz+
(PID.TID 0000.0001) //                  0.0: .
(PID.TID 0000.0001) // RANGE I (Lo:Hi:Step):(     1:    90:     1)
(PID.TID 0000.0001) // RANGE J (Lo:Hi:Step):(    40:     1:    -1)
(PID.TID 0000.0001) // RANGE K (Lo:Hi:Step):(   1:   1:   1)
(PID.TID 0000.0001) // =======================================================
(PID.TID 0000.0001) K =   1
(PID.TID 0000.0001)                I=10      I=20      I=30      I=40      I=50      I=60      I=70      I=80      I=90
(PID.TID 0000.0001) |--J--|123456789|123456789|123456789|123456789|123456789|123456789|123456789|123456789|123456789|
(PID.TID 0000.0001)     40 jloom.ijlmmmll...kk..................................................................kjjjj
(PID.TID 0000.0001)     39 kllmlklmmmmml...........................................................jkll........hiijkk
(PID.TID 0000.0001)     38 kmm.......................................................................llk......kh.llkk
(PID.TID 0000.0001)     37 ln...................................................................kl...llj...hknlj.lljk
(PID.TID 0000.0001)     36 ll.........................................lmml....................kkk....jkkj.fglmllkjllk
(PID.TID 0000.0001)     35 ...................................kkkl..llllllk...ijmnm...................hjjiikmmmllnn..
(PID.TID 0000.0001)     34 ....................................kjk.ikjjjjkj.iiijkmml...................ghikmooonmnn..
(PID.TID 0000.0001)     33 ....................................khgikkjiijiihhhhijjkkkk.................hcimnooonmknm.
(PID.TID 0000.0001)     32 ....................................mihjkkkjiihgggggghhiijk................sldilmllkkkkl..
(PID.TID 0000.0001)     31 ....................................ojhiijjiiigffffffgghhhi..............mljhhhhhihhhhjk..
(PID.TID 0000.0001)     30 ...................................oojhhijihiiiihhhiiijjigg............orlkihhhgggghhhjk..
(PID.TID 0000.0001)     29 .................................oopnlkkmnmllmnmmllmnnmlkigi...........pqmkjjiiiiiiiiikk..
(PID.TID 0000.0001)     28 ...............................ppponmmmmnonmmnonoonoonmllkjij.........momlkkkjjkkjjiij....
(PID.TID 0000.0001)     27 ..............kj..............tqonnnnnnooommnnnoppoooonnnmlljj...lmmm.nmkkjjjjklmmllkj....
(PID.TID 0000.0001)     26 ..............klm...........jlpronnnopqrrqppqqqrrqppqqqponmmljkk....omlmnljklmnoonmmkj....
(PID.TID 0000.0001)     25 ..............lmnn...nnk...hhl.okknoprssrqppqrrrrqpnoonmmmlllllkj....lmnoljkjkkllkjiij....
(PID.TID 0000.0001)     24 ............mpqrqpo.nppl...jjk..ggmpqrsrqpooppppqqpnmlkkklmmmmmkjjkl.....kjljjmnnmlllk....
(PID.TID 0000.0001)     23 ............vyxxtqp.oqok...on...fgnsuutssstttutuuvvtsssstttssqpnmmnmk.......mqvxxxwtpj....
(PID.TID 0000.0001)     22 j...........wyyupmlijnpn......kghnswyzzxutttttsssttsrrrsssrrqpnmlmnmjh........swy+zvspmjjj
(PID.TID 0000.0001)     21 jkl........npqpljhgfgijje......c.moqttvsqonmmlllllllkkllllkjihgghikkii.........oqvtqoljjii
(PID.TID 0000.0001)     20 hkl.......nnoljgggfgijige......-......qrppponnoomjhiiiiihfeddccdeeefgg...........soigedeee
(PID.TID 0000.0001)     19 hjl.......pptsponlklnnnlknn...hil.....qqpqrstttsqmkkmllljhhhgfeddccehj...........pojgedeeg
(PID.TID 0000.0001)     18 kkl.......o.uxrolmkmmkkkkkjiihf.....kklkkloqpommnnlllmmmlllmmllkihhjlnl..........nqnmlkkll
(PID.TID 0000.0001)     17 nmm.......n.nqkiihhgffhggffffi.......khffgijiigghjjjjkkkjklllllkjijlnnk.........kkmlmnlklm
(PID.TID 0000.0001)     16 ijk......km.kjiiighhefhhhgfdf.........ieegihiiiiiijjklkjjkllkkkjiiijllkj........kllkklkjjj
(PID.TID 0000.0001)     15 jjlj....jjm.jijiihjmkijklkief.........ifghiikllkjjkkklkkkklllllljjjjkkllk......gjmmllmlllk
(PID.TID 0000.0001)     14 lmnl....gimifghgggjlkijmnmlig.........gfhhhhikkkjiiihiiiijkklmlkkjklllmnk.....cfhijiikklml
(PID.TID 0000.0001)     13 mnon....eilifgijiijkjijmonmmk.........ggiihhhijjjiihhhiiiijjllkklllmmmnm.....iehijjiijkmnm
(PID.TID 0000.0001)     12 poooqnkigknmllnnnnnonnopqqppnmlkkk....ijkjg.kkkklkjjjkkkkklmmllmoonnnnnk.....kjklmnmmnopqq
(PID.TID 0000.0001)     11 qpppnmllmoqqomnopppqqqrrrrrqponnmnm..kjlkji.kllkmlllmmmnnnnnnllnqqpooomj....lloonnnnnopqrr
(PID.TID 0000.0001)     10 ooopomllostspnmnqpnmopqqqppponmmllmo.jjlkg..nmkjlmmmmmlmnoonmllnppponnmh..jnmoqponmnmmopqp
(PID.TID 0000.0001)      9 mmnppnlknqrrqpnmswolmopppoonnmkkkklonlkmli.pqolllmmmmnmmmnonmllnppoonmhd.kmnprtronnnllnqqo
(PID.TID 0000.0001)      8 oooonnmmnoqrrpompxvppooppoonmmllklmpoljklmrtqpooooonooooooonmmmnppoonmhe.qpqtvvtpoonnnoqrq
(PID.TID 0000.0001)      7 qpommmnonopqqonnmqusqoooonnmmmnnmmopolkklorssrqqqqqqppnoonmnnnnoopoonnmmprqsvvusqppnnoppqr
(PID.TID 0000.0001)      6 onmmmmnnnnnnnnmlmnoponnmllllmmmmmmnnnmlmmnoopqqqrrssrpnmlklnooooopoonnopqrrsrpppnnonmnoooo
(PID.TID 0000.0001)      5 lkkklklllkjjjjjjkkllkkjhhiijjjjjjjjklllllmmllnpqqqqqpnmlkklmnnnnnoonnnnnmm..okmmmmmllmmmll
(PID.TID 0000.0001)      4 hhhiihgggh............................jijkkjklmnnnmmllkkkllllllklllllkjkj...lkllllkkkkjjii
(PID.TID 0000.0001)      3 ..........................................kkkjkkkkkjjjjjjjjjjjjj..lkjj.....jlmkkjkkjjjj...
(PID.TID 0000.0001)      2 ..........................................................................................
(PID.TID 0000.0001)      1 ..........................................................................................
(PID.TID 0000.0001) // =======================================================
(PID.TID 0000.0001) // END OF FIELD                                          =
(PID.TID 0000.0001) // =======================================================
(PID.TID 0000.0001) 
(PID.TID 0000.0001) // =======================================================
(PID.TID 0000.0001) // Field Current theta  at iteration        100
(PID.TID 0000.0001) // CMIN =         -1.922685471349376E+00
(PID.TID 0000.0001) // CMAX =          3.132896327925229E+01
(PID.TID 0000.0001) // CINT =          1.231542546318580E+00
(PID.TID 0000.0001) // SYMBOLS (CMIN->CMAX): -abcdefghijklmnopqrstuvwxyz+
(PID.TID 0000.0001) //                  0.0: .
(PID.TID 0000.0001) // RANGE I (Lo:Hi:Step):(     1:    90:     1)
(PID.TID 0000.0001) // RANGE J (Lo:Hi:Step):(    40:     1:    -1)
(PID.TID 0000.0001) // RANGE K (Lo:Hi:Step):(   1:   1:   1)
(PID.TID 0000.0001) // =======================================================
(PID.TID 0000.0001) K =   1
(PID.TID 0000.0001)                I=10      I=20      I=30      I=40      I=50      I=60      I=70      I=80      I=90
(PID.TID 0000.0001) |--J--|123456789|123456789|123456789|123456789|123456789|123456789|123456789|123456789|123456789|
(PID.TID 0000.0001)     40 -bbccb--------abcddbbbbbbbbbbbbbbbbbbbbbbbbbbbbbbbbbbbbbbbbbbbbbbbbbbbbbbbbbbbbbbbbbbaa---
(PID.TID 0000.0001)     39 bbccccbba-----bbbddbbbbbbbbbbbbbbbbbbbbbbbbbbbbbbbbbbbbbbbbbbbbbbbbbbbbb----bbbbbbbbaaaaaa
(PID.TID 0000.0001)     38 deeeeecbcbaa-bbbbbbbbbbbbbbbbbbbbbbbbbbbbbbbbbbbbbbbbbbbbbbbbbbbbbbbbbbb-----bbbbbba--abcc
(PID.TID 0000.0001)     37 efgbbbbbbbbbbbbbbbbbbbbbbbbbbbbbbbbbbbbbbbbbbbbbbbbbbbbbbbbbbbbbbbbbbbbbbb--abbbbbeeebddde
(PID.TID 0000.0001)     36 ggbbbbbbbbbbbbbbbbbbbbbbbbbbbbbbbbbbbbbbbbbba--bbbbbbbbbbbbbbbbbbbbccbbbaaaaacbcefgghhhggg
(PID.TID 0000.0001)     35 ffbbbbbbbbbbbbbbbbbbbbbbbbbbbbbbbbb----bbabcccb-bbbddeefbbbbbbbbbbbbbbbbbbbcddddeffhhiiihg
(PID.TID 0000.0001)     34 bbbbbbbbbbbbbbbbbbbbbbbbbbbbbbbbbbb----bacccccccbccedefffbbbbbbbbbbbbbbbbbbcabdefgghiiiibb
(PID.TID 0000.0001)     33 bbbbbbbbbbbbbbbbbbbbbbbbbbbbbbbbbbbb--abbccdddddeeeeefffgghbbbbbbbbbbbbbbbbbbabfhijjjjjjjb
(PID.TID 0000.0001)     32 bbbbbbbbbbbbbbbbbbbbbbbbbbbbbbbbbbbbaabbccddddeefffgggghhhibbbbbbbbbbbbbbbbfec-hjklllkkkjb
(PID.TID 0000.0001)     31 bbbbbbbbbbbbbbbbbbbbbbbbbbbbbbbbbbbbeeefgggghhhhhhhhiijjjjjbbbbbbbbbbbbbbhillgilmmmmmllmbb
(PID.TID 0000.0001)     30 bbbbbbbbbbbbbbbbbbbbbbbbbbbbbbbbbbbkkjjjjkkkkkkkkkkkllmmmllbbbbbbbbbbbbmmmoooooooooonnnnbb
(PID.TID 0000.0001)     29 bbbbbbbbbbbbbbbbbbbbbbbbbbbbbbbbbnnnnnmmmnnnnnnnnnnnnooonmmmbbbbbbbbbbbnpqqppppppppooooobb
(PID.TID 0000.0001)     28 bbbbbbbbbbbbbbbbbbbbbbbbbbbbbbbmooppppoopppppppppqppqqqpponnnbbbbbbbbbqrrrqqrqqqqqppppppbb
(PID.TID 0000.0001)     27 bbbbbbbbbbbbbbtubbbbbbbbbbbbbbqqrrrrrrrrsssrrssssssrrrrqqppoopbbbrrrsbstttsstssssrrrqqbbbb
(PID.TID 0000.0001)     26 bbbbbbbbbbbbbbuuubbbbbbbbbbbtstttttuuuuuuuuuttttttttsssrrqqppqsubttuvuuuuuuuutttssrrqqbbbb
(PID.TID 0000.0001)     25 bbbbbbbbbbbbbbuvvvbbbwwwbbbuuvvvvvvwwwwvvvvvuuuuuuuutttssrrrsstvwbbbvvvvvvvuuuuttsrqqqbbbb
(PID.TID 0000.0001)     24 bbbbbbbbbbbbwvvwxxybwwxxbbbwwwbwwwwwwwwwwwvvvvvvvvuuvvvvvvvvvvvwwvwwbwvvvvuuuuuuttttttbbbb
(PID.TID 0000.0001)     23 bbbbbbbbbbbbwwxxyyzbwxyybbbxwwbbwxxxxxxxxxwwwwwwwwwwwxwwwwwxxwwwwwwxwbbbbwvvvvvvvvwwwwbbbb
(PID.TID 0000.0001)     22 vbbbbbbbbbbbwwwxxyyxxxyzbbbxxbzyxxyyyyzzyyxxxxxxxxxxxxxwwwwwxwwwwwwvvvbbbbbbwwwwwxxxxyyyxw
(PID.TID 0000.0001)     21 vvwbbbbbbbbxxxxxxxxxxyzzzbbbbbzyzzzzzz+zzzzyyyyyyyyyyyxxxxxxxxxxxxwvvvbbbbbbbbxxxxxyyyyyxw
(PID.TID 0000.0001)     20 vwvbbbbbbbyyyyyxyyyyyzzz+bbbbbbzbzzzzzzzz++zzzzzzzzzyyyxxxxxxxxxxxwwwvbbbbbbbbbyyyxxxxxxww
(PID.TID 0000.0001)     19 vvwbbbbbbbzzzyyyzzyyzyzzzzybbbzzzbbbbbz+zz++zzzzzzzzyyyxxxxxwwwvvwvvvvbbbbbbbbbbbxxwwwwvvv
(PID.TID 0000.0001)     18 uuubbbbbbbzyxxxyyyyyyyyyzyzzzz+zzbbb++zzzzzzzzzzzzzyyyyyxxxxwwwvvvvuuutbbbbbbbbbbyxxwwvvwv
(PID.TID 0000.0001)     17 uutbbbbbbbzbywwxxxxxxxxxyyyyyzzbbbbbyyyyyzzzzzzyyyyyyxxxxxxwwwvvuvvuttvbbbbbbbbbxxxxwvuvvv
(PID.TID 0000.0001)     16 tssbbbbbbyzbxxwxwwwwwwwwwwxxyybbbbbbbxxxxyyyyyyyyyyyyxxxwxxxwwwvvvvuttstbbbbbbbbxxxxxwvvut
(PID.TID 0000.0001)     15 srrrbbbbwxxbvwwwwvvvvvvvuuvvwbbbbbbbbbvwwwxxxwxxxxxxxxxxxxxxwwvvvvuutsssrbbbbbbwxxxxxwwvut
(PID.TID 0000.0001)     14 tsqqbbbbvxvvvwvvvvvvututtsttubbbbbbbbbuvvvwwvvwwwwwwwwwwwxxwwwvvvvuutrssrbbbbbvwwwwwxwwwvu
(PID.TID 0000.0001)     13 ttspbbbbvwvvvvuuuvvuuuttsssrsbbbbbbbbbtuuuuvuuuuuuuuvvvvvvwwwvvuuuuutsrspbbbbuvwwvvvwwvvuu
(PID.TID 0000.0001)     12 sssrssqrtutttutssssssttrrrrrqppqrqbbbbstttttttsssssstttsstuuutttssssssrrbbbbbtuvvuttuuttss
(PID.TID 0000.0001)     11 ppooppqrrrrqqrrqqppopqqppppooppqqpqbbrrssssbqrqqqrrrrrrrqrrrqqqqqqqrrrqpbbbboprssrrrrrrqqp
(PID.TID 0000.0001)     10 mmlklmnoooooooommlmmmmmllllllmnnoooobpqqqqqbopqpqqpppppppppoooooonnooooobbnpooooooonnooonm
(PID.TID 0000.0001)      9 ijiiiijjjjijkkjjjiijjjiiihiiiijkkmmmlmnnopbnmnnoooonnnoonnmllmmmlllllmmlblmmmmlllllkkklkji
(PID.TID 0000.0001)      8 fffgggghhggghiiihgghhhhgggghhhhiijjjjjklllmlkllllkkllllkkkkjjjjkjjjjjjlkbjkkkjjiiihhhhhggf
(PID.TID 0000.0001)      7 eedeeefffgfffggggfefffeeeefggggggghgghhijjjiiijjkjiiiiiihhiiihhhhhhhiiijiiiihhhggfffffeeee
(PID.TID 0000.0001)      6 cccddeeeeeeeeeeeeeeeeeeeeeeedddeeeeeffggghgghgghhhhgfffffggffffffgggggggggggggffeedddddddc
(PID.TID 0000.0001)      5 ccdddddddddddddddddddddddcdddddeeeedddeeeeffffeeeeedddeeeeeedddeeeeeeeeeeeeddeddddcccccccc
(PID.TID 0000.0001)      4 ccccccccccccccbbbbccccbbbbbbcccccbbbbcccccccccccccccccccccccccccccccccccdcbbbaabbbcccccccc
(PID.TID 0000.0001)      3 cccbbbaaaabbbbbbbbbbbbbbbbbbbbbbbbbbbbbbaaaabbbbbbbbbbbbbaaaaaaaaaaaabbbbbbbaaaaabbbbbbbbb
(PID.TID 0000.0001)      2 bbbbbbbbbbbbbbbbbbbbbbbbbbbbbbbbbbbbbbbbbbaaaabbbbbbbaaaaaaaaaaabbaaaabbbbbaaaaaaaabbbabbb
(PID.TID 0000.0001)      1 bbbbbbbbbbbbbbbbbbbbbbbbbbbbbbbbbbbbbbbbbbbbbbbbbbbbbbbbbbbbbbbbbbbbbbbbbbbbbbbbbbbbbbbbbb
(PID.TID 0000.0001) // =======================================================
(PID.TID 0000.0001) // END OF FIELD                                          =
(PID.TID 0000.0001) // =======================================================
(PID.TID 0000.0001) 
(PID.TID 0000.0001) // =======================================================
(PID.TID 0000.0001) // Field Current etaN   at iteration        100
(PID.TID 0000.0001) // CMIN =         -1.869026051901628E+00
(PID.TID 0000.0001) // CMAX =          7.611264788969224E-01
(PID.TID 0000.0001) // CINT =          9.741305669624262E-02
(PID.TID 0000.0001) // SYMBOLS (CMIN->CMAX): -abcdefghijklmnopqrstuvwxyz+
(PID.TID 0000.0001) //                  0.0: .
(PID.TID 0000.0001) // RANGE I (Lo:Hi:Step):(    -1:    92:     1)
(PID.TID 0000.0001) // RANGE J (Lo:Hi:Step):(    42:    -1:    -1)
(PID.TID 0000.0001) // RANGE K (Lo:Hi:Step):(   1:   1:   1)
(PID.TID 0000.0001) // =======================================================
(PID.TID 0000.0001) K =   1
(PID.TID 0000.0001)                I=8       I=18      I=28      I=38      I=48      I=58      I=68      I=78      I=88
(PID.TID 0000.0001) |--J--|101234567|901234567|901234567|901234567|901234567|901234567|901234567|901234567|901234567|9012
(PID.TID 0000.0001)     42 ............................................-----aaaabbbccbbbbbbbb..cbbb.....cdcccccccccc.....
(PID.TID 0000.0001)     41 ..............................................................................................
(PID.TID 0000.0001)     40 ooonnoo.oopppqqqqqqqq..................................................................oooooon
(PID.TID 0000.0001)     39 ooonnoooooppqqrs...pp.....................................................mmmn........pppoooon
(PID.TID 0000.0001)     38 oopppqqpppqqrrs...........................................................mmnnn......qoooooopp
(PID.TID 0000.0001)     37 pppqr..................................................................mm...ooo...qqpqp.nppppq
(PID.TID 0000.0001)     36 pqqs.........................................qqqq....................nnnoonnmnon.sonoppqpppqqs
(PID.TID 0000.0001)     35 rssr.................................nnnm..ppppqqq...ursss...........ooo....nmlmmmmnnooppqrssr
(PID.TID 0000.0001)     34 .....................................nnnn.oooppppq.rqqqqrst..................mmllllmnopqqt....
(PID.TID 0000.0001)     33 r.....................................oonnnoopppqqqqqqqqrrrss.................nmmmnopqqrqqr...
(PID.TID 0000.0001)     32 r.....................................qponoopppqqqrrrrrrrrrrs................kqonopqrrsrrqr...
(PID.TID 0000.0001)     31 ......................................ppppppqqrrrrrssssssssss..............rrrrqqqrrssrrrr....
(PID.TID 0000.0001)     30 .....................................prrrrrssssstttttttttuuts............psstuutttttttssss....
(PID.TID 0000.0001)     29 ...................................rttvvvuuvvvuuuvvvuuuuuuuuts...........quvwwvvvuuuttssss....
(PID.TID 0000.0001)     28 .................................suvwxxxxxxxxwwwwwwvvvvvvuuutts.........uvwwwwwvvuuuttssss....
(PID.TID 0000.0001)     27 ................uu..............wwxxyyyyyyyyyxxxxwwwwwvvvvuuttss...yyxx.wwxxwwwvuuuuttsr......
(PID.TID 0000.0001)     26 ................uuu...........+zzzyyyyzzzzzzyyyxxxxxxwwwvvuutttttt.yyxyyxxxxxxwvvuuuttss......
(PID.TID 0000.0001)     25 ................uuuu...wwx...zzyxzzyyzzzzzzzzyyyxxxxxwwwvvvuuuuuuuu...xyyyxxxwwvvuuuttss......
(PID.TID 0000.0001)     24 ..............uuvvvvw.wwxx...zzy.+zyyyyyyyyyyyyyxxxwwwwwvvvvvvvvvvuuuu.yxxxxxxwwvvuuuutu......
(PID.TID 0000.0001)     23 ..............uvvvwww.wwwx...zzy..zyyyyyyyyyyyyyxxxxxwwwwvvvvvvvvuuuuuu....xxxxwvvvvvuuv......
(PID.TID 0000.0001)     22 vuu...........vvvvvvvvvvww...zz.+yyyyyyyyyyxxxxxxxxxxxwwwwvvvvvvuuuuuuut......wvvvvvvvvvvvvuu.
(PID.TID 0000.0001)     21 vuuuu........wwvvuuuuuvvvww.....zyyyyyyyxxxxxxwwwwwwxxwwwwvvvvvuuuuuuttt........wwwvvvvvvvvuuu
(PID.TID 0000.0001)     20 uttuu.......xwwvvuuuuuuvvvw......y.yyxxwxwwxxxxwwwwwwwwvvvvvuuuutttttttt.........wwvvuuuuuuttu
(PID.TID 0000.0001)     19 ttttu.......xxwvvuvvvvvwwwwwv...xyy.....xxxxxyyyyyxxwwwwwvvvvuuttttttttt...........wvuuuuttttt
(PID.TID 0000.0001)     18 ttttt.......yxxwvvvwwwwwwwwwwwwxyyy...zzyyyyyyyyyyyyxxwwwwwvvvuuuutttttss..........xvvuuuttttt
(PID.TID 0000.0001)     17 ttttt.......y.zxwwwwwwwwwwwwwwwxx.....yyxxyyyyyyyyyyyxxwwwwwvvvvuuuuttttt.........xxwvvututttt
(PID.TID 0000.0001)     16 uttts......yz.yxxxxxxwwwwwvvvvww.......xxxxyyyyyxxyyyyxxxxwxwwwvvuuuutttss........wwwwvvuuuttt
(PID.TID 0000.0001)     15 vuttss....xxx.wxxxxxxwwwwvvuuuv.........wxxxxxyxxxxxyyyxxxxxxxwwwvuuuuttssr......vwxxxxwwvvutt
(PID.TID 0000.0001)     14 vvuttr....xyxwwxxxxxxwvvvvutttt.........vwwwxxxxwwwxxxxxxxyyxxxxwvvvvuuttss.....vwwxxxxxxwvvut
(PID.TID 0000.0001)     13 wvvuts....wyxxxwwwwwwvvvvvutssr.........vwwwvwwwvvvvvvvwwwxxxxxxwwvvvuuttsr....svwwxxxxxxxwvvu
(PID.TID 0000.0001)     12 wvvuuttpqswyxwwwwwwvvvvvvvuttsrrrrrr....uvvvuuuuuuuuuuvvvvvvwwwwwwvuuuttsr.....suvvwwwxxxwwvvu
(PID.TID 0000.0001)     11 uutttssstuvwwvvvvvvvvuuuuuttssrrrssss..rtttts.tutttttuuuuuuuvvuvvwvuttssrq....qsttuuuvvvvvuutt
(PID.TID 0000.0001)     10 srrrqqqqqrrrrqpqrrrrrrsrrrrrqqqqqrrsss.rstttu.tsstttuuuuuvuuuttuuvutrrrrrr..wtssrqqqrrstttsrrr
(PID.TID 0000.0001)      9 nnnnnnnmmnonmllklllkkmnnnnnnnooooqqrssrrrrrs.utrssttttutuuuutsstttsrqqqppo.rsrqponmmmnnoponnnn
(PID.TID 0000.0001)      8 ihhiiiihhijjjiihhjkhfhiijiijjjkklmnoppppqrsstrqqqrrrsstsssssrrrrrrqppppopr.rqpomkiiiiiijjjihhi
(PID.TID 0000.0001)      7 fedddddefffggfeefghjgeddeeeeffgghhijjjijkmoppoooooooooooooonnnnnnnnnnnnnnpqooomkihffeefffffedd
(PID.TID 0000.0001)      6 cbbaabbcccdddddddeeeedcccccccdddeeeeeeefghijkllkkkkkjjihhiiijjjjjjjjjjjkkkkkjjhgfeddcccddccbba
(PID.TID 0000.0001)      5 baaaaabbbbbbbbccccccccbbaaaaabbbbbbbcccccddeefggggffedbbbcceffffffffffffffedcbabbbbbbbbbbbbaaa
(PID.TID 0000.0001)      4 baaabbbbbbbbccccccbbbbbaaabbaaaaaaaaaaaaaabbbbbccbbaa--aaabbcccccccccccccccd..abbbbbbbbbbbbaaa
(PID.TID 0000.0001)      3 cccccccbbcbb............................aaaaaaaaaaa----aaaaaaaaabbbbbbbbbcb..edccccccccccccccc
(PID.TID 0000.0001)      2 ............................................-----aaaabbbccbbbbbbbb..cbbb.....cdcccccccccc.....
(PID.TID 0000.0001)      1 ..............................................................................................
(PID.TID 0000.0001)      0 ooonnoo.oopppqqqqqqqq..................................................................oooooon
(PID.TID 0000.0001)     -1 ooonnoooooppqqrs...pp.....................................................mmmn........pppoooon
(PID.TID 0000.0001) // =======================================================
(PID.TID 0000.0001) // END OF FIELD                                          =
(PID.TID 0000.0001) // =======================================================
(PID.TID 0000.0001) 
(PID.TID 0000.0001)  MDS_WRITE_FIELD: it,rec,kS,kL,kH=     100     1  15   1  15 file=U.0000000100
(PID.TID 0000.0001)  MDS_WRITE_FIELD: it,rec,kS,kL,kH=     100     1  15   1  15 file=V.0000000100
(PID.TID 0000.0001)  MDS_WRITE_FIELD: it,rec,kS,kL,kH=     100     1  15   1  15 file=T.0000000100
(PID.TID 0000.0001)  MDS_WRITE_FIELD: it,rec,kS,kL,kH=     100     1  15   1  15 file=S.0000000100
(PID.TID 0000.0001)  MDS_WRITE_FIELD: it,rec,kS,kL,kH=     100     1   1   1   1 file=Eta.0000000100
(PID.TID 0000.0001)  MDS_WRITE_FIELD: it,rec,kS,kL,kH=     100     1  15   1  15 file=W.0000000100
(PID.TID 0000.0001)  MDS_WRITE_FIELD: it,rec,kS,kL,kH=     100     1  15   1  15 file=PH.0000000100
(PID.TID 0000.0001)  MDS_WRITE_FIELD: it,rec,kS,kL,kH=     100     1   1   1   1 file=PHL.0000000100
(PID.TID 0000.0001)  MDS_WRITE_FIELD: it,rec,kS,kL,kH=     100     1   1   1   1 file=ETAtave.0000000100
(PID.TID 0000.0001)  MDS_WRITE_FIELD: it,rec,kS,kL,kH=     100     1  15   1  15 file=Ttave.0000000100
(PID.TID 0000.0001)  MDS_WRITE_FIELD: it,rec,kS,kL,kH=     100     1  15   1  15 file=Stave.0000000100
(PID.TID 0000.0001)  MDS_WRITE_FIELD: it,rec,kS,kL,kH=     100     1  15   1  15 file=uVeltave.0000000100
(PID.TID 0000.0001)  MDS_WRITE_FIELD: it,rec,kS,kL,kH=     100     1  15   1  15 file=vVeltave.0000000100
(PID.TID 0000.0001)  MDS_WRITE_FIELD: it,rec,kS,kL,kH=     100     1  15   1  15 file=wVeltave.0000000100
(PID.TID 0000.0001)  MDS_WRITE_FIELD: it,rec,kS,kL,kH=     100     1   1   1   1 file=Eta2tave.0000000100
(PID.TID 0000.0001)  MDS_WRITE_FIELD: it,rec,kS,kL,kH=     100     1  15   1  15 file=UTtave.0000000100
(PID.TID 0000.0001)  MDS_WRITE_FIELD: it,rec,kS,kL,kH=     100     1  15   1  15 file=VTtave.0000000100
(PID.TID 0000.0001)  MDS_WRITE_FIELD: it,rec,kS,kL,kH=     100     1  15   1  15 file=WTtave.0000000100
(PID.TID 0000.0001)  MDS_WRITE_FIELD: it,rec,kS,kL,kH=     100     1  15   1  15 file=UStave.0000000100
(PID.TID 0000.0001)  MDS_WRITE_FIELD: it,rec,kS,kL,kH=     100     1  15   1  15 file=VStave.0000000100
(PID.TID 0000.0001)  MDS_WRITE_FIELD: it,rec,kS,kL,kH=     100     1  15   1  15 file=WStave.0000000100
(PID.TID 0000.0001)  MDS_WRITE_FIELD: it,rec,kS,kL,kH=     100     1  15   1  15 file=TTtave.0000000100
(PID.TID 0000.0001)  MDS_WRITE_FIELD: it,rec,kS,kL,kH=     100     1  15   1  15 file=UUtave.0000000100
(PID.TID 0000.0001)  MDS_WRITE_FIELD: it,rec,kS,kL,kH=     100     1  15   1  15 file=VVtave.0000000100
(PID.TID 0000.0001)  MDS_WRITE_FIELD: it,rec,kS,kL,kH=     100     1  15   1  15 file=UVtave.0000000100
(PID.TID 0000.0001)  MDS_WRITE_FIELD: it,rec,kS,kL,kH=     100     1  15   1  15 file=Tdiftave.0000000100
(PID.TID 0000.0001)  MDS_WRITE_FIELD: it,rec,kS,kL,kH=     100     1  15   1  15 file=PhHytave.0000000100
(PID.TID 0000.0001)  MDS_WRITE_FIELD: it,rec,kS,kL,kH=     100     1   1   1   1 file=PHLtave.0000000100
(PID.TID 0000.0001)  MDS_WRITE_FIELD: it,rec,kS,kL,kH=     100     1   1   1   1 file=uFluxtave.0000000100
(PID.TID 0000.0001)  MDS_WRITE_FIELD: it,rec,kS,kL,kH=     100     1   1   1   1 file=vFluxtave.0000000100
(PID.TID 0000.0001)  MDS_WRITE_FIELD: it,rec,kS,kL,kH=     100     1   1   1   1 file=tFluxtave.0000000100
(PID.TID 0000.0001)  MDS_WRITE_FIELD: it,rec,kS,kL,kH=     100     1   1   1   1 file=sFluxtave.0000000100
(PID.TID 0000.0001)  MDS_WRITE_FIELD: it,rec,kS,kL,kH=     100     1   1   1   1 file=PHL2tave.0000000100
(PID.TID 0000.0001)  MDS_WRITE_FIELD: it,rec,kS,kL,kH=     100     1  15   1  15 file=Convtave.0000000100
(PID.TID 0000.0001) // Time-average data written, t-step       100
(PID.TID 0000.0001) 
(PID.TID 0000.0001)  MDS_WRITE_FIELD: it,rec,kS,kL,kH=     100     1  15   1  15 file=GM_Kwx-T.0000000100
(PID.TID 0000.0001)  MDS_WRITE_FIELD: it,rec,kS,kL,kH=     100     1  15   1  15 file=GM_Kwy-T.0000000100
(PID.TID 0000.0001)  MDS_WRITE_FIELD: it,rec,kS,kL,kH=     100     1  15   1  15 file=GM_Kwz-T.0000000100
(PID.TID 0000.0001)  MDS_WRITE_FIELD: it,rec,kS,kL,kH=     100     1  15   1  15 file=pickup_cd.0000000100
(PID.TID 0000.0001)  MDS_WRITE_FIELD: it,rec,kS,kL,kH=     100     2  15   1  15 file=pickup_cd.0000000100
(PID.TID 0000.0001)  MDS_WRITE_FIELD: it,rec,kS,kL,kH=     100     3  15   1  15 file=pickup_cd.0000000100
(PID.TID 0000.0001)  MDS_WRITE_FIELD: it,rec,kS,kL,kH=     100     4  15   1  15 file=pickup_cd.0000000100
(PID.TID 0000.0001)  MDS_WRITE_FIELD: it,rec,kS,kL,kH=     100    61   1   1   1 file=pickup_cd.0000000100
(PID.TID 0000.0001)  MDS_WRITE_FIELD: it,rec,kS,kL,kH=     100    -1  15   1  15 file=pickup.0000000100
(PID.TID 0000.0001)  MDS_WRITE_FIELD: it,rec,kS,kL,kH=     100    -2  15   1  15 file=pickup.0000000100
(PID.TID 0000.0001)  MDS_WRITE_FIELD: it,rec,kS,kL,kH=     100    -3  15   1  15 file=pickup.0000000100
(PID.TID 0000.0001)  MDS_WRITE_FIELD: it,rec,kS,kL,kH=     100    -4  15   1  15 file=pickup.0000000100
(PID.TID 0000.0001)  MDS_WRITE_FIELD: it,rec,kS,kL,kH=     100    -5  15   1  15 file=pickup.0000000100
(PID.TID 0000.0001)  MDS_WRITE_FIELD: it,rec,kS,kL,kH=     100    -6  15   1  15 file=pickup.0000000100
(PID.TID 0000.0001)  MDS_WRITE_FIELD: it,rec,kS,kL,kH=     100    -7  15   1  15 file=pickup.0000000100
(PID.TID 0000.0001)  MDS_WRITE_FIELD: it,rec,kS,kL,kH=     100    -8  15   1  15 file=pickup.0000000100
(PID.TID 0000.0001)  MDS_WRITE_FIELD: it,rec,kS,kL,kH=     100  -121   1   1   1 file=pickup.0000000100
(PID.TID 0000.0001)  MDS_WRITE_FIELD: it,rec,kS,kL,kH=     100  -122   1   1   1 file=pickup.0000000100
(PID.TID 0000.0001)  MDS_WRITE_FIELD: it,rec,kS,kL,kH=     100  -123   1   1   1 file=pickup.0000000100
(PID.TID 0000.0001) %CHECKPOINT       100 0000000100
(PID.TID 0000.0001)   Seconds in section "ALL                    [THE_MODEL_MAIN]":
(PID.TID 0000.0001)           User time:   31.0401155259460
(PID.TID 0000.0001)         System time:  0.000000000000000E+000
(PID.TID 0000.0001)     Wall clock time:   31.7553110122681
(PID.TID 0000.0001)          No. starts:           1
(PID.TID 0000.0001)           No. stops:           1
(PID.TID 0000.0001)   Seconds in section "INITIALISE_FIXED       [THE_MODEL_MAIN]":
(PID.TID 0000.0001)           User time:  8.945001289248466E-003
(PID.TID 0000.0001)         System time:  0.000000000000000E+000
(PID.TID 0000.0001)     Wall clock time:  2.416205406188965E-002
(PID.TID 0000.0001)          No. starts:           1
(PID.TID 0000.0001)           No. stops:           1
(PID.TID 0000.0001)   Seconds in section "THE_MAIN_LOOP          [THE_MODEL_MAIN]":
(PID.TID 0000.0001)           User time:   31.0311597120017
(PID.TID 0000.0001)         System time:  0.000000000000000E+000
(PID.TID 0000.0001)     Wall clock time:   31.7311329841614
(PID.TID 0000.0001)          No. starts:           1
(PID.TID 0000.0001)           No. stops:           1
(PID.TID 0000.0001)   Seconds in section "INITIALISE_VARIA    [THE_MAIN_LOOP]":
(PID.TID 0000.0001)           User time:  1.419799961149693E-002
(PID.TID 0000.0001)         System time:  0.000000000000000E+000
(PID.TID 0000.0001)     Wall clock time:  2.330684661865234E-002
(PID.TID 0000.0001)          No. starts:           1
(PID.TID 0000.0001)           No. stops:           1
(PID.TID 0000.0001)   Seconds in section "MAIN LOOP           [THE_MAIN_LOOP]":
(PID.TID 0000.0001)           User time:   31.0169499889016
(PID.TID 0000.0001)         System time:  0.000000000000000E+000
(PID.TID 0000.0001)     Wall clock time:   31.7078111171722
(PID.TID 0000.0001)          No. starts:           1
(PID.TID 0000.0001)           No. stops:           1
(PID.TID 0000.0001)   Seconds in section "INIT_PDAF           [THE_MAIN_LOOP]":
(PID.TID 0000.0001)           User time:  2.148200199007988E-002
(PID.TID 0000.0001)         System time:  0.000000000000000E+000
(PID.TID 0000.0001)     Wall clock time:  2.154612541198730E-002
(PID.TID 0000.0001)          No. starts:           1
(PID.TID 0000.0001)           No. stops:           1
(PID.TID 0000.0001)   Seconds in section "MAIN_DO_LOOP        [THE_MAIN_LOOP]":
(PID.TID 0000.0001)           User time:   2.91840880364180
(PID.TID 0000.0001)         System time:  0.000000000000000E+000
(PID.TID 0000.0001)     Wall clock time:   3.53233194351196
(PID.TID 0000.0001)          No. starts:         100
(PID.TID 0000.0001)           No. stops:         100
(PID.TID 0000.0001)   Seconds in section "FORWARD_STEP        [MAIN_DO_LOOP]":
(PID.TID 0000.0001)           User time:   2.91744735836983
(PID.TID 0000.0001)         System time:  0.000000000000000E+000
(PID.TID 0000.0001)     Wall clock time:   3.53135991096497
(PID.TID 0000.0001)          No. starts:         100
(PID.TID 0000.0001)           No. stops:         100
(PID.TID 0000.0001)   Seconds in section "LOAD_FIELDS_DRIVER  [FORWARD_STEP]":
(PID.TID 0000.0001)           User time:  9.354501962661743E-003
(PID.TID 0000.0001)         System time:  0.000000000000000E+000
(PID.TID 0000.0001)     Wall clock time:  9.599447250366211E-003
(PID.TID 0000.0001)          No. starts:         100
(PID.TID 0000.0001)           No. stops:         100
(PID.TID 0000.0001)   Seconds in section "EXTERNAL_FLDS_LOAD [LOAD_FLDS_DRIVER]":
(PID.TID 0000.0001)           User time:  8.346065878868103E-003
(PID.TID 0000.0001)         System time:  0.000000000000000E+000
(PID.TID 0000.0001)     Wall clock time:  8.629322052001953E-003
(PID.TID 0000.0001)          No. starts:         100
(PID.TID 0000.0001)           No. stops:         100
(PID.TID 0000.0001)   Seconds in section "DO_ATMOSPHERIC_PHYS [FORWARD_STEP]":
(PID.TID 0000.0001)           User time:  4.945620894432068E-004
(PID.TID 0000.0001)         System time:  0.000000000000000E+000
(PID.TID 0000.0001)     Wall clock time:  4.940032958984375E-004
(PID.TID 0000.0001)          No. starts:         100
(PID.TID 0000.0001)           No. stops:         100
(PID.TID 0000.0001)   Seconds in section "DO_OCEANIC_PHYS     [FORWARD_STEP]":
(PID.TID 0000.0001)           User time:  0.380504451692104
(PID.TID 0000.0001)         System time:  0.000000000000000E+000
(PID.TID 0000.0001)     Wall clock time:  0.387170553207397
(PID.TID 0000.0001)          No. starts:         100
(PID.TID 0000.0001)           No. stops:         100
(PID.TID 0000.0001)   Seconds in section "THERMODYNAMICS      [FORWARD_STEP]":
(PID.TID 0000.0001)           User time:  0.746875017881393
(PID.TID 0000.0001)         System time:  0.000000000000000E+000
(PID.TID 0000.0001)     Wall clock time:  0.762570619583130
(PID.TID 0000.0001)          No. starts:         100
(PID.TID 0000.0001)           No. stops:         100
(PID.TID 0000.0001)   Seconds in section "DYNAMICS            [FORWARD_STEP]":
(PID.TID 0000.0001)           User time:  0.814672544598579
(PID.TID 0000.0001)         System time:  0.000000000000000E+000
(PID.TID 0000.0001)     Wall clock time:  0.835558652877808
(PID.TID 0000.0001)          No. starts:         100
(PID.TID 0000.0001)           No. stops:         100
(PID.TID 0000.0001)   Seconds in section "SOLVE_FOR_PRESSURE  [FORWARD_STEP]":
(PID.TID 0000.0001)           User time:  0.384180426597595
(PID.TID 0000.0001)         System time:  0.000000000000000E+000
(PID.TID 0000.0001)     Wall clock time:  0.403992414474487
(PID.TID 0000.0001)          No. starts:         100
(PID.TID 0000.0001)           No. stops:         100
(PID.TID 0000.0001)   Seconds in section "MOM_CORRECTION_STEP [FORWARD_STEP]":
(PID.TID 0000.0001)           User time:  2.072199434041977E-002
(PID.TID 0000.0001)         System time:  0.000000000000000E+000
(PID.TID 0000.0001)     Wall clock time:  2.134752273559570E-002
(PID.TID 0000.0001)          No. starts:         100
(PID.TID 0000.0001)           No. stops:         100
(PID.TID 0000.0001)   Seconds in section "INTEGR_CONTINUITY   [FORWARD_STEP]":
(PID.TID 0000.0001)           User time:  3.427062183618546E-002
(PID.TID 0000.0001)         System time:  0.000000000000000E+000
(PID.TID 0000.0001)     Wall clock time:  3.521347045898438E-002
(PID.TID 0000.0001)          No. starts:         100
(PID.TID 0000.0001)           No. stops:         100
(PID.TID 0000.0001)   Seconds in section "TRC_CORRECTION_STEP [FORWARD_STEP]":
(PID.TID 0000.0001)           User time:  4.795193672180176E-004
(PID.TID 0000.0001)         System time:  0.000000000000000E+000
(PID.TID 0000.0001)     Wall clock time:  4.863739013671875E-004
(PID.TID 0000.0001)          No. starts:         100
(PID.TID 0000.0001)           No. stops:         100
(PID.TID 0000.0001)   Seconds in section "BLOCKING_EXCHANGES  [FORWARD_STEP]":
(PID.TID 0000.0001)           User time:  1.819622516632080E-002
(PID.TID 0000.0001)         System time:  0.000000000000000E+000
(PID.TID 0000.0001)     Wall clock time:  1.868844032287598E-002
(PID.TID 0000.0001)          No. starts:         100
(PID.TID 0000.0001)           No. stops:         100
(PID.TID 0000.0001)   Seconds in section "DO_STATEVARS_TAVE   [FORWARD_STEP]":
(PID.TID 0000.0001)           User time:  0.115402251482010
(PID.TID 0000.0001)         System time:  0.000000000000000E+000
(PID.TID 0000.0001)     Wall clock time:  0.121794223785400
(PID.TID 0000.0001)          No. starts:         100
(PID.TID 0000.0001)           No. stops:         100
(PID.TID 0000.0001)   Seconds in section "MONITOR             [FORWARD_STEP]":
(PID.TID 0000.0001)           User time:  0.281667582690716
(PID.TID 0000.0001)         System time:  0.000000000000000E+000
(PID.TID 0000.0001)     Wall clock time:  0.291028499603271
(PID.TID 0000.0001)          No. starts:         100
(PID.TID 0000.0001)           No. stops:         100
(PID.TID 0000.0001)   Seconds in section "DO_THE_MODEL_IO     [FORWARD_STEP]":
(PID.TID 0000.0001)           User time:  8.512800931930542E-002
(PID.TID 0000.0001)         System time:  0.000000000000000E+000
(PID.TID 0000.0001)     Wall clock time:  0.508572578430176
(PID.TID 0000.0001)          No. starts:         100
(PID.TID 0000.0001)           No. stops:         100
(PID.TID 0000.0001)   Seconds in section "DO_WRITE_PICKUP     [FORWARD_STEP]":
(PID.TID 0000.0001)           User time:  1.695388555526733E-002
(PID.TID 0000.0001)         System time:  0.000000000000000E+000
(PID.TID 0000.0001)     Wall clock time:  0.127358675003052
(PID.TID 0000.0001)          No. starts:         100
(PID.TID 0000.0001)           No. stops:         100
(PID.TID 0000.0001)   Seconds in section "ASSIMILATE_PDAF     [THE_MAIN_LOOP]":
(PID.TID 0000.0001)           User time:   28.0760449022055
(PID.TID 0000.0001)         System time:  0.000000000000000E+000
(PID.TID 0000.0001)     Wall clock time:   28.1529154777527
(PID.TID 0000.0001)          No. starts:         100
(PID.TID 0000.0001)           No. stops:         100
(PID.TID 0000.0001) // ======================================================
(PID.TID 0000.0001) // Tile <-> Tile communication statistics
(PID.TID 0000.0001) // ======================================================
(PID.TID 0000.0001) // o Tile number: 000001
(PID.TID 0000.0001) //         No. X exchanges =              0
(PID.TID 0000.0001) //            Max. X spins =              0
(PID.TID 0000.0001) //            Min. X spins =     1000000000
(PID.TID 0000.0001) //          Total. X spins =              0
(PID.TID 0000.0001) //            Avg. X spins =       0.00E+00
(PID.TID 0000.0001) //         No. Y exchanges =              0
(PID.TID 0000.0001) //            Max. Y spins =              0
(PID.TID 0000.0001) //            Min. Y spins =     1000000000
(PID.TID 0000.0001) //          Total. Y spins =              0
(PID.TID 0000.0001) //            Avg. Y spins =       0.00E+00
(PID.TID 0000.0001) // o Thread number: 000001
(PID.TID 0000.0001) //            No. barriers =         140288
(PID.TID 0000.0001) //      Max. barrier spins =              1
(PID.TID 0000.0001) //      Min. barrier spins =              1
(PID.TID 0000.0001) //     Total barrier spins =         140288
(PID.TID 0000.0001) //      Avg. barrier spins =       1.00E+00
PROGRAM MAIN: Execution ended Normally
